MODEL 1
REMARK VINA RESULT:      -7.6      0.000      0.000
REMARK  Name = 
REMARK  7 active torsions:
REMARK  status: ('A' for Active; 'I' for Inactive)
REMARK    1  A    between atoms: C_1  and  O_2
REMARK    2  A    between atoms: O_2  and  C_3
REMARK    3  A    between atoms: C_6  and  C_7
REMARK    4  A    between atoms: C_7  and  C_8
REMARK    5  A    between atoms: C_7  and  N_9
REMARK    6  A    between atoms: N_9  and  C_10
REMARK    7  A    between atoms: C_13  and  C_14
REMARK                            x       y       z     vdW  Elec       q    Type
REMARK                         _______ _______ _______ _____ _____    ______ ____
ROOT
ATOM      1  N   UNL     1       5.270   6.241  17.911  0.00  0.00    +0.000 N 
ATOM      2  H   UNL     1       4.787   6.578  17.082  0.00  0.00    +0.000 HD
ENDROOT
BRANCH   1   3
ATOM      3  C   UNL     1       4.360   5.513  18.698  0.00  0.00    +0.000 A 
ATOM      4  N   UNL     1       4.748   4.340  19.248  0.00  0.00    +0.000 NA
ATOM      5  C   UNL     1       3.852   3.655  20.008  0.00  0.00    +0.000 A 
ATOM      6  C   UNL     1       2.575   4.110  20.296  0.00  0.00    +0.000 A 
ATOM      7  C   UNL     1       2.175   5.325  19.751  0.00  0.00    +0.000 A 
ATOM      8  C   UNL     1       3.071   6.028  18.941  0.00  0.00    +0.000 A 
ATOM      9 CL   UNL     1       2.538   7.513  18.232  0.00  0.00    +0.000 Cl
BRANCH   6  10
ATOM     10  C   UNL     1       1.693   3.267  21.126  0.00  0.00    +0.000 C 
ATOM     11  N   UNL     1       0.484   2.907  20.601  0.00  0.00    +0.000 N 
ATOM     12  O   UNL     1       2.024   2.925  22.253  0.00  0.00    +0.000 OA
ATOM     13  H   UNL     1       0.076   3.357  19.794  0.00  0.00    +0.000 HD
ATOM     14  H   UNL     1      -0.141   2.403  21.220  0.00  0.00    +0.000 HD
ENDBRANCH   6  10
ENDBRANCH   1   3
BRANCH   1  15
ATOM     15  C   UNL     1       6.543   5.589  17.595  0.00  0.00    +0.000 C 
ATOM     16  C   UNL     1       7.696   6.589  17.729  0.00  0.00    +0.000 C 
BRANCH  15  20
ATOM     17  C   UNL     1       6.397   4.026  13.530  0.00  0.00    +0.000 A 
ATOM     18  C   UNL     1       5.478   3.586  14.488  0.00  0.00    +0.000 A 
ATOM     19  C   UNL     1       5.515   4.077  15.798  0.00  0.00    +0.000 A 
ATOM     20  C   UNL     1       6.473   5.030  16.179  0.00  0.00    +0.000 A 
ATOM     21  C   UNL     1       7.391   5.469  15.212  0.00  0.00    +0.000 A 
ATOM     22  C   UNL     1       7.346   4.976  13.908  0.00  0.00    +0.000 A 
ATOM     23  F   UNL     1       8.248   5.454  13.039  0.00  0.00    +0.000 F 
BRANCH  17  25
ATOM     24  C   UNL     1       4.914   3.211  11.858  0.00  0.00    +0.000 C 
ATOM     25  O   UNL     1       6.246   3.449  12.298  0.00  0.00    +0.000 OA
ENDBRANCH  17  25
ENDBRANCH  15  20
ENDBRANCH   1  15
TORSDOF 5
ENDMDL
MODEL 2
REMARK VINA RESULT:      -7.4      4.173      7.796
REMARK  Name = 
REMARK  7 active torsions:
REMARK  status: ('A' for Active; 'I' for Inactive)
REMARK    1  A    between atoms: C_1  and  O_2
REMARK    2  A    between atoms: O_2  and  C_3
REMARK    3  A    between atoms: C_6  and  C_7
REMARK    4  A    between atoms: C_7  and  C_8
REMARK    5  A    between atoms: C_7  and  N_9
REMARK    6  A    between atoms: N_9  and  C_10
REMARK    7  A    between atoms: C_13  and  C_14
REMARK                            x       y       z     vdW  Elec       q    Type
REMARK                         _______ _______ _______ _____ _____    ______ ____
ROOT
ATOM      1  N   UNL     1       2.325   5.614  18.395  0.00  0.00    +0.000 N 
ATOM      2  H   UNL     1       1.644   6.198  17.913  0.00  0.00    +0.000 HD
ENDROOT
BRANCH   1   3
ATOM      3  C   UNL     1       3.393   5.353  17.518  0.00  0.00    +0.000 A 
ATOM      4  N   UNL     1       4.186   6.373  17.116  0.00  0.00    +0.000 NA
ATOM      5  C   UNL     1       5.216   6.097  16.273  0.00  0.00    +0.000 A 
ATOM      6  C   UNL     1       5.536   4.821  15.835  0.00  0.00    +0.000 A 
ATOM      7  C   UNL     1       4.738   3.764  16.260  0.00  0.00    +0.000 A 
ATOM      8  C   UNL     1       3.655   4.033  17.102  0.00  0.00    +0.000 A 
ATOM      9 CL   UNL     1       2.645   2.713  17.580  0.00  0.00    +0.000 Cl
BRANCH   6  10
ATOM     10  C   UNL     1       6.673   4.654  14.910  0.00  0.00    +0.000 C 
ATOM     11  N   UNL     1       6.561   3.704  13.934  0.00  0.00    +0.000 N 
ATOM     12  O   UNL     1       7.689   5.325  15.030  0.00  0.00    +0.000 OA
ATOM     13  H   UNL     1       5.860   2.977  13.947  0.00  0.00    +0.000 HD
ATOM     14  H   UNL     1       7.386   3.545  13.367  0.00  0.00    +0.000 HD
ENDBRANCH   6  10
ENDBRANCH   1   3
BRANCH   1  15
ATOM     15  C   UNL     1       2.666   6.129  19.722  0.00  0.00    +0.000 C 
ATOM     16  C   UNL     1       2.285   5.108  20.798  0.00  0.00    +0.000 C 
BRANCH  15  20
ATOM     17  C   UNL     1       0.591   9.917  20.295  0.00  0.00    +0.000 A 
ATOM     18  C   UNL     1       0.650   8.982  21.333  0.00  0.00    +0.000 A 
ATOM     19  C   UNL     1       1.310   7.760  21.162  0.00  0.00    +0.000 A 
ATOM     20  C   UNL     1       1.936   7.448  19.945  0.00  0.00    +0.000 A 
ATOM     21  C   UNL     1       1.875   8.392  18.908  0.00  0.00    +0.000 A 
ATOM     22  C   UNL     1       1.216   9.608  19.087  0.00  0.00    +0.000 A 
ATOM     23  F   UNL     1       1.212  10.463  18.054  0.00  0.00    +0.000 F 
BRANCH  17  25
ATOM     24  C   UNL     1      -0.432  11.258  21.973  0.00  0.00    +0.000 C 
ATOM     25  O   UNL     1      -0.099  11.058  20.604  0.00  0.00    +0.000 OA
ENDBRANCH  17  25
ENDBRANCH  15  20
ENDBRANCH   1  15
TORSDOF 5
ENDMDL
MODEL 3
REMARK VINA RESULT:      -7.4      4.870      8.337
REMARK  Name = 
REMARK  7 active torsions:
REMARK  status: ('A' for Active; 'I' for Inactive)
REMARK    1  A    between atoms: C_1  and  O_2
REMARK    2  A    between atoms: O_2  and  C_3
REMARK    3  A    between atoms: C_6  and  C_7
REMARK    4  A    between atoms: C_7  and  C_8
REMARK    5  A    between atoms: C_7  and  N_9
REMARK    6  A    between atoms: N_9  and  C_10
REMARK    7  A    between atoms: C_13  and  C_14
REMARK                            x       y       z     vdW  Elec       q    Type
REMARK                         _______ _______ _______ _____ _____    ______ ____
ROOT
ATOM      1  N   UNL     1       2.343   6.665  18.352  0.00  0.00    +0.000 N 
ATOM      2  H   UNL     1       2.028   7.483  17.834  0.00  0.00    +0.000 HD
ENDROOT
BRANCH   1   3
ATOM      3  C   UNL     1       3.534   6.195  17.770  0.00  0.00    +0.000 A 
ATOM      4  N   UNL     1       4.588   7.032  17.649  0.00  0.00    +0.000 NA
ATOM      5  C   UNL     1       5.731   6.555  17.088  0.00  0.00    +0.000 A 
ATOM      6  C   UNL     1       5.900   5.243  16.674  0.00  0.00    +0.000 A 
ATOM      7  C   UNL     1       4.827   4.370  16.814  0.00  0.00    +0.000 A 
ATOM      8  C   UNL     1       3.633   4.851  17.359  0.00  0.00    +0.000 A 
ATOM      9 CL   UNL     1       2.294   3.763  17.479  0.00  0.00    +0.000 Cl
BRANCH   6  10
ATOM     10  C   UNL     1       7.188   4.852  16.069  0.00  0.00    +0.000 C 
ATOM     11  N   UNL     1       7.418   5.224  14.774  0.00  0.00    +0.000 N 
ATOM     12  O   UNL     1       8.007   4.196  16.697  0.00  0.00    +0.000 OA
ATOM     13  H   UNL     1       6.689   5.545  14.153  0.00  0.00    +0.000 HD
ATOM     14  H   UNL     1       8.268   4.869  14.351  0.00  0.00    +0.000 HD
ENDBRANCH   6  10
ENDBRANCH   1   3
BRANCH   1  15
ATOM     15  C   UNL     1       2.354   6.886  19.799  0.00  0.00    +0.000 C 
ATOM     16  C   UNL     1       1.843   5.639  20.528  0.00  0.00    +0.000 C 
BRANCH  15  20
ATOM     17  C   UNL     1      -0.146  10.318  20.780  0.00  0.00    +0.000 A 
ATOM     18  C   UNL     1       0.523  10.261  19.554  0.00  0.00    +0.000 A 
ATOM     19  C   UNL     1       1.332   9.166  19.226  0.00  0.00    +0.000 A 
ATOM     20  C   UNL     1       1.484   8.096  20.122  0.00  0.00    +0.000 A 
ATOM     21  C   UNL     1       0.808   8.158  21.350  0.00  0.00    +0.000 A 
ATOM     22  C   UNL     1       0.002   9.251  21.668  0.00  0.00    +0.000 A 
ATOM     23  F   UNL     1      -0.621   9.232  22.854  0.00  0.00    +0.000 F 
BRANCH  17  25
ATOM     24  C   UNL     1      -0.307  12.479  21.762  0.00  0.00    +0.000 C 
ATOM     25  O   UNL     1      -0.888  11.453  20.965  0.00  0.00    +0.000 OA
ENDBRANCH  17  25
ENDBRANCH  15  20
ENDBRANCH   1  15
TORSDOF 5
ENDMDL
MODEL 4
REMARK VINA RESULT:      -7.4      4.578      7.982
REMARK  Name = 
REMARK  7 active torsions:
REMARK  status: ('A' for Active; 'I' for Inactive)
REMARK    1  A    between atoms: C_1  and  O_2
REMARK    2  A    between atoms: O_2  and  C_3
REMARK    3  A    between atoms: C_6  and  C_7
REMARK    4  A    between atoms: C_7  and  C_8
REMARK    5  A    between atoms: C_7  and  N_9
REMARK    6  A    between atoms: N_9  and  C_10
REMARK    7  A    between atoms: C_13  and  C_14
REMARK                            x       y       z     vdW  Elec       q    Type
REMARK                         _______ _______ _______ _____ _____    ______ ____
ROOT
ATOM      1  N   UNL     1       2.334   5.629  18.391  0.00  0.00    +0.000 N 
ATOM      2  H   UNL     1       1.626   6.164  17.892  0.00  0.00    +0.000 HD
ENDROOT
BRANCH   1   3
ATOM      3  C   UNL     1       3.398   5.362  17.511  0.00  0.00    +0.000 A 
ATOM      4  N   UNL     1       4.195   6.377  17.107  0.00  0.00    +0.000 NA
ATOM      5  C   UNL     1       5.221   6.095  16.259  0.00  0.00    +0.000 A 
ATOM      6  C   UNL     1       5.532   4.818  15.820  0.00  0.00    +0.000 A 
ATOM      7  C   UNL     1       4.730   3.765  16.248  0.00  0.00    +0.000 A 
ATOM      8  C   UNL     1       3.651   4.040  17.094  0.00  0.00    +0.000 A 
ATOM      9 CL   UNL     1       2.635   2.726  17.575  0.00  0.00    +0.000 Cl
BRANCH   6  10
ATOM     10  C   UNL     1       6.666   4.645  14.892  0.00  0.00    +0.000 C 
ATOM     11  N   UNL     1       6.551   3.685  13.926  0.00  0.00    +0.000 N 
ATOM     12  O   UNL     1       7.680   5.319  15.001  0.00  0.00    +0.000 OA
ATOM     13  H   UNL     1       5.852   2.956  13.950  0.00  0.00    +0.000 HD
ATOM     14  H   UNL     1       7.374   3.522  13.357  0.00  0.00    +0.000 HD
ENDBRANCH   6  10
ENDBRANCH   1   3
BRANCH   1  15
ATOM     15  C   UNL     1       2.676   6.221  19.686  0.00  0.00    +0.000 C 
ATOM     16  C   UNL     1       2.305   5.260  20.820  0.00  0.00    +0.000 C 
BRANCH  15  20
ATOM     17  C   UNL     1       0.553   9.994  20.177  0.00  0.00    +0.000 A 
ATOM     18  C   UNL     1       1.179   9.690  18.964  0.00  0.00    +0.000 A 
ATOM     19  C   UNL     1       1.867   8.483  18.793  0.00  0.00    +0.000 A 
ATOM     20  C   UNL     1       1.939   7.546  19.836  0.00  0.00    +0.000 A 
ATOM     21  C   UNL     1       1.306   7.856  21.050  0.00  0.00    +0.000 A 
ATOM     22  C   UNL     1       0.621   9.060  21.211  0.00  0.00    +0.000 A 
ATOM     23  F   UNL     1       0.032   9.278  22.396  0.00  0.00    +0.000 F 
BRANCH  17  25
ATOM     24  C   UNL     1       0.539  12.230  20.988  0.00  0.00    +0.000 C 
ATOM     25  O   UNL     1      -0.068  11.213  20.200  0.00  0.00    +0.000 OA
ENDBRANCH  17  25
ENDBRANCH  15  20
ENDBRANCH   1  15
TORSDOF 5
ENDMDL
MODEL 5
REMARK VINA RESULT:      -7.1      4.318      5.569
REMARK  Name = 
REMARK  7 active torsions:
REMARK  status: ('A' for Active; 'I' for Inactive)
REMARK    1  A    between atoms: C_1  and  O_2
REMARK    2  A    between atoms: O_2  and  C_3
REMARK    3  A    between atoms: C_6  and  C_7
REMARK    4  A    between atoms: C_7  and  C_8
REMARK    5  A    between atoms: C_7  and  N_9
REMARK    6  A    between atoms: N_9  and  C_10
REMARK    7  A    between atoms: C_13  and  C_14
REMARK                            x       y       z     vdW  Elec       q    Type
REMARK                         _______ _______ _______ _____ _____    ______ ____
ROOT
ATOM      1  N   UNL     1       2.562   7.023  20.334  0.00  0.00    +0.000 N 
ATOM      2  H   UNL     1       3.513   7.319  20.125  0.00  0.00    +0.000 HD
ENDROOT
BRANCH   1   3
ATOM      3  C   UNL     1       1.683   8.073  20.014  0.00  0.00    +0.000 A 
ATOM      4  N   UNL     1       0.749   8.455  20.913  0.00  0.00    +0.000 NA
ATOM      5  C   UNL     1      -0.087   9.476  20.584  0.00  0.00    +0.000 A 
ATOM      6  C   UNL     1      -0.009  10.186  19.396  0.00  0.00    +0.000 A 
ATOM      7  C   UNL     1       0.963   9.813  18.474  0.00  0.00    +0.000 A 
ATOM      8  C   UNL     1       1.810   8.745  18.782  0.00  0.00    +0.000 A 
ATOM      9 CL   UNL     1       2.980   8.265  17.601  0.00  0.00    +0.000 Cl
BRANCH   6  10
ATOM     10  C   UNL     1      -0.983  11.267  19.153  0.00  0.00    +0.000 C 
ATOM     11  N   UNL     1      -1.247  11.600  17.854  0.00  0.00    +0.000 N 
ATOM     12  O   UNL     1      -1.514  11.860  20.081  0.00  0.00    +0.000 OA
ATOM     13  H   UNL     1      -0.665  11.313  17.080  0.00  0.00    +0.000 HD
ATOM     14  H   UNL     1      -1.850  12.403  17.711  0.00  0.00    +0.000 HD
ENDBRANCH   6  10
ENDBRANCH   1   3
BRANCH   1  15
ATOM     15  C   UNL     1       2.249   5.704  19.780  0.00  0.00    +0.000 C 
ATOM     16  C   UNL     1       2.015   4.698  20.911  0.00  0.00    +0.000 C 
BRANCH  15  20
ATOM     17  C   UNL     1       5.584   4.444  17.274  0.00  0.00    +0.000 A 
ATOM     18  C   UNL     1       4.268   4.277  16.832  0.00  0.00    +0.000 A 
ATOM     19  C   UNL     1       3.187   4.674  17.628  0.00  0.00    +0.000 A 
ATOM     20  C   UNL     1       3.400   5.257  18.887  0.00  0.00    +0.000 A 
ATOM     21  C   UNL     1       4.724   5.424  19.324  0.00  0.00    +0.000 A 
ATOM     22  C   UNL     1       5.795   5.027  18.524  0.00  0.00    +0.000 A 
ATOM     23  F   UNL     1       7.030   5.231  19.005  0.00  0.00    +0.000 F 
BRANCH  17  25
ATOM     24  C   UNL     1       6.138   3.861  15.036  0.00  0.00    +0.000 C 
ATOM     25  O   UNL     1       6.533   3.998  16.396  0.00  0.00    +0.000 OA
ENDBRANCH  17  25
ENDBRANCH  15  20
ENDBRANCH   1  15
TORSDOF 5
ENDMDL
MODEL 6
REMARK VINA RESULT:      -7.0      4.402      7.592
REMARK  Name = 
REMARK  7 active torsions:
REMARK  status: ('A' for Active; 'I' for Inactive)
REMARK    1  A    between atoms: C_1  and  O_2
REMARK    2  A    between atoms: O_2  and  C_3
REMARK    3  A    between atoms: C_6  and  C_7
REMARK    4  A    between atoms: C_7  and  C_8
REMARK    5  A    between atoms: C_7  and  N_9
REMARK    6  A    between atoms: N_9  and  C_10
REMARK    7  A    between atoms: C_13  and  C_14
REMARK                            x       y       z     vdW  Elec       q    Type
REMARK                         _______ _______ _______ _____ _____    ______ ____
ROOT
ATOM      1  N   UNL     1       3.960   6.001  19.524  0.00  0.00    +0.000 N 
ATOM      2  H   UNL     1       4.322   5.439  20.292  0.00  0.00    +0.000 HD
ENDROOT
BRANCH   1   3
ATOM      3  C   UNL     1       4.647   5.650  18.348  0.00  0.00    +0.000 A 
ATOM      4  N   UNL     1       4.924   6.604  17.432  0.00  0.00    +0.000 NA
ATOM      5  C   UNL     1       5.593   6.243  16.304  0.00  0.00    +0.000 A 
ATOM      6  C   UNL     1       6.053   4.959  16.056  0.00  0.00    +0.000 A 
ATOM      7  C   UNL     1       5.790   3.976  17.003  0.00  0.00    +0.000 A 
ATOM      8  C   UNL     1       5.076   4.321  18.153  0.00  0.00    +0.000 A 
ATOM      9 CL   UNL     1       4.715   3.074  19.296  0.00  0.00    +0.000 Cl
BRANCH   6  10
ATOM     10  C   UNL     1       6.758   4.692  14.787  0.00  0.00    +0.000 C 
ATOM     11  N   UNL     1       6.355   3.610  14.056  0.00  0.00    +0.000 N 
ATOM     12  O   UNL     1       7.685   5.400  14.418  0.00  0.00    +0.000 OA
ATOM     13  H   UNL     1       5.774   2.875  14.430  0.00  0.00    +0.000 HD
ATOM     14  H   UNL     1       6.909   3.394  13.234  0.00  0.00    +0.000 HD
ENDBRANCH   6  10
ENDBRANCH   1   3
BRANCH   1  15
ATOM     15  C   UNL     1       2.497   5.996  19.464  0.00  0.00    +0.000 C 
ATOM     16  C   UNL     1       2.020   5.168  18.267  0.00  0.00    +0.000 C 
BRANCH  15  20
ATOM     17  C   UNL     1       1.069  10.106  19.229  0.00  0.00    +0.000 A 
ATOM     18  C   UNL     1       1.571   9.468  18.091  0.00  0.00    +0.000 A 
ATOM     19  C   UNL     1       2.037   8.150  18.152  0.00  0.00    +0.000 A 
ATOM     20  C   UNL     1       2.002   7.434  19.359  0.00  0.00    +0.000 A 
ATOM     21  C   UNL     1       1.494   8.079  20.498  0.00  0.00    +0.000 A 
ATOM     22  C   UNL     1       1.030   9.392  20.428  0.00  0.00    +0.000 A 
ATOM     23  F   UNL     1       0.548   9.935  21.554  0.00  0.00    +0.000 F 
BRANCH  17  25
ATOM     24  C   UNL     1      -0.736  11.617  18.880  0.00  0.00    +0.000 C 
ATOM     25  O   UNL     1       0.663  11.396  19.019  0.00  0.00    +0.000 OA
ENDBRANCH  17  25
ENDBRANCH  15  20
ENDBRANCH   1  15
TORSDOF 5
ENDMDL
MODEL 7
REMARK VINA RESULT:      -7.0      5.354      8.399
REMARK  Name = 
REMARK  7 active torsions:
REMARK  status: ('A' for Active; 'I' for Inactive)
REMARK    1  A    between atoms: C_1  and  O_2
REMARK    2  A    between atoms: O_2  and  C_3
REMARK    3  A    between atoms: C_6  and  C_7
REMARK    4  A    between atoms: C_7  and  C_8
REMARK    5  A    between atoms: C_7  and  N_9
REMARK    6  A    between atoms: N_9  and  C_10
REMARK    7  A    between atoms: C_13  and  C_14
REMARK                            x       y       z     vdW  Elec       q    Type
REMARK                         _______ _______ _______ _____ _____    ______ ____
ROOT
ATOM      1  N   UNL     1       2.517   7.676  19.766  0.00  0.00    +0.000 N 
ATOM      2  H   UNL     1       2.556   7.781  20.778  0.00  0.00    +0.000 HD
ENDROOT
BRANCH   1   3
ATOM      3  C   UNL     1       2.551   6.305  19.455  0.00  0.00    +0.000 A 
ATOM      4  N   UNL     1       1.819   5.439  20.192  0.00  0.00    +0.000 NA
ATOM      5  C   UNL     1       1.863   4.119  19.870  0.00  0.00    +0.000 A 
ATOM      6  C   UNL     1       2.577   3.608  18.798  0.00  0.00    +0.000 A 
ATOM      7  C   UNL     1       3.317   4.494  18.022  0.00  0.00    +0.000 A 
ATOM      8  C   UNL     1       3.309   5.851  18.357  0.00  0.00    +0.000 A 
ATOM      9 CL   UNL     1       4.274   6.931  17.411  0.00  0.00    +0.000 Cl
BRANCH   6  10
ATOM     10  C   UNL     1       2.553   2.151  18.561  0.00  0.00    +0.000 C 
ATOM     11  N   UNL     1       1.346   1.516  18.649  0.00  0.00    +0.000 N 
ATOM     12  O   UNL     1       3.580   1.533  18.319  0.00  0.00    +0.000 OA
ATOM     13  H   UNL     1       0.531   1.933  19.076  0.00  0.00    +0.000 HD
ATOM     14  H   UNL     1       1.365   0.506  18.570  0.00  0.00    +0.000 HD
ENDBRANCH   6  10
ENDBRANCH   1   3
BRANCH   1  15
ATOM     15  C   UNL     1       1.445   8.468  19.159  0.00  0.00    +0.000 C 
ATOM     16  C   UNL     1       1.998   9.308  18.004  0.00  0.00    +0.000 C 
BRANCH  15  20
ATOM     17  C   UNL     1      -0.322  10.968  22.260  0.00  0.00    +0.000 A 
ATOM     18  C   UNL     1      -0.213  11.443  20.949  0.00  0.00    +0.000 A 
ATOM     19  C   UNL     1       0.355  10.652  19.943  0.00  0.00    +0.000 A 
ATOM     20  C   UNL     1       0.823   9.359  20.228  0.00  0.00    +0.000 A 
ATOM     21  C   UNL     1       0.708   8.888  21.545  0.00  0.00    +0.000 A 
ATOM     22  C   UNL     1       0.139   9.682  22.541  0.00  0.00    +0.000 A 
ATOM     23  F   UNL     1       0.053   9.157  23.771  0.00  0.00    +0.000 F 
BRANCH  17  25
ATOM     24  C   UNL     1      -2.302  11.819  23.267  0.00  0.00    +0.000 C 
ATOM     25  O   UNL     1      -0.886  11.857  23.134  0.00  0.00    +0.000 OA
ENDBRANCH  17  25
ENDBRANCH  15  20
ENDBRANCH   1  15
TORSDOF 5
ENDMDL
MODEL 8
REMARK VINA RESULT:      -7.0      4.805      6.189
REMARK  Name = 
REMARK  7 active torsions:
REMARK  status: ('A' for Active; 'I' for Inactive)
REMARK    1  A    between atoms: C_1  and  O_2
REMARK    2  A    between atoms: O_2  and  C_3
REMARK    3  A    between atoms: C_6  and  C_7
REMARK    4  A    between atoms: C_7  and  C_8
REMARK    5  A    between atoms: C_7  and  N_9
REMARK    6  A    between atoms: N_9  and  C_10
REMARK    7  A    between atoms: C_13  and  C_14
REMARK                            x       y       z     vdW  Elec       q    Type
REMARK                         _______ _______ _______ _____ _____    ______ ____
ROOT
ATOM      1  N   UNL     1       2.122   7.853  20.302  0.00  0.00    +0.000 N 
ATOM      2  H   UNL     1       3.061   8.247  20.289  0.00  0.00    +0.000 HD
ENDROOT
BRANCH   1   3
ATOM      3  C   UNL     1       1.215   8.840  19.875  0.00  0.00    +0.000 A 
ATOM      4  N   UNL     1       1.129   9.136  18.559  0.00  0.00    +0.000 NA
ATOM      5  C   UNL     1       0.241  10.090  18.168  0.00  0.00    +0.000 A 
ATOM      6  C   UNL     1      -0.619  10.747  19.034  0.00  0.00    +0.000 A 
ATOM      7  C   UNL     1      -0.550  10.433  20.387  0.00  0.00    +0.000 A 
ATOM      8  C   UNL     1       0.378   9.478  20.811  0.00  0.00    +0.000 A 
ATOM      9 CL   UNL     1       0.483   9.137  22.504  0.00  0.00    +0.000 Cl
BRANCH   6  10
ATOM     10  C   UNL     1      -1.528  11.772  18.486  0.00  0.00    +0.000 C 
ATOM     11  N   UNL     1      -0.994  12.708  17.646  0.00  0.00    +0.000 N 
ATOM     12  O   UNL     1      -2.711  11.797  18.796  0.00  0.00    +0.000 OA
ATOM     13  H   UNL     1      -0.001  12.870  17.557  0.00  0.00    +0.000 HD
ATOM     14  H   UNL     1      -1.616  13.453  17.352  0.00  0.00    +0.000 HD
ENDBRANCH   6  10
ENDBRANCH   1   3
BRANCH   1  15
ATOM     15  C   UNL     1       2.049   6.552  19.634  0.00  0.00    +0.000 C 
ATOM     16  C   UNL     1       1.782   5.447  20.661  0.00  0.00    +0.000 C 
BRANCH  15  20
ATOM     17  C   UNL     1       5.771   5.869  17.473  0.00  0.00    +0.000 A 
ATOM     18  C   UNL     1       5.598   5.350  18.760  0.00  0.00    +0.000 A 
ATOM     19  C   UNL     1       4.409   5.564  19.468  0.00  0.00    +0.000 A 
ATOM     20  C   UNL     1       3.359   6.300  18.896  0.00  0.00    +0.000 A 
ATOM     21  C   UNL     1       3.538   6.816  17.603  0.00  0.00    +0.000 A 
ATOM     22  C   UNL     1       4.725   6.597  16.905  0.00  0.00    +0.000 A 
ATOM     23  F   UNL     1       4.816   7.111  15.670  0.00  0.00    +0.000 F 
BRANCH  17  25
ATOM     24  C   UNL     1       7.109   4.351  16.222  0.00  0.00    +0.000 C 
ATOM     25  O   UNL     1       6.987   5.590  16.913  0.00  0.00    +0.000 OA
ENDBRANCH  17  25
ENDBRANCH  15  20
ENDBRANCH   1  15
TORSDOF 5
ENDMDL
MODEL 9
REMARK VINA RESULT:      -7.0      2.931      3.813
REMARK  Name = 
REMARK  7 active torsions:
REMARK  status: ('A' for Active; 'I' for Inactive)
REMARK    1  A    between atoms: C_1  and  O_2
REMARK    2  A    between atoms: O_2  and  C_3
REMARK    3  A    between atoms: C_6  and  C_7
REMARK    4  A    between atoms: C_7  and  C_8
REMARK    5  A    between atoms: C_7  and  N_9
REMARK    6  A    between atoms: N_9  and  C_10
REMARK    7  A    between atoms: C_13  and  C_14
REMARK                            x       y       z     vdW  Elec       q    Type
REMARK                         _______ _______ _______ _____ _____    ______ ____
ROOT
ATOM      1  N   UNL     1       2.659   3.609  18.200  0.00  0.00    +0.000 N 
ATOM      2  H   UNL     1       1.922   2.939  18.408  0.00  0.00    +0.000 HD
ENDROOT
BRANCH   1   3
ATOM      3  C   UNL     1       2.373   4.813  18.868  0.00  0.00    +0.000 A 
ATOM      4  N   UNL     1       2.773   5.985  18.324  0.00  0.00    +0.000 NA
ATOM      5  C   UNL     1       2.482   7.137  18.985  0.00  0.00    +0.000 A 
ATOM      6  C   UNL     1       1.754   7.190  20.163  0.00  0.00    +0.000 A 
ATOM      7  C   UNL     1       1.320   5.990  20.718  0.00  0.00    +0.000 A 
ATOM      8  C   UNL     1       1.638   4.794  20.070  0.00  0.00    +0.000 A 
ATOM      9 CL   UNL     1       1.133   3.310  20.802  0.00  0.00    +0.000 Cl
BRANCH   6  10
ATOM     10  C   UNL     1       1.513   8.504  20.789  0.00  0.00    +0.000 C 
ATOM     11  N   UNL     1       1.750   8.619  22.130  0.00  0.00    +0.000 N 
ATOM     12  O   UNL     1       1.093   9.448  20.135  0.00  0.00    +0.000 OA
ATOM     13  H   UNL     1       1.860   7.824  22.743  0.00  0.00    +0.000 HD
ATOM     14  H   UNL     1       1.495   9.503  22.556  0.00  0.00    +0.000 HD
ENDBRANCH   6  10
ENDBRANCH   1   3
BRANCH   1  15
ATOM     15  C   UNL     1       3.999   3.049  18.388  0.00  0.00    +0.000 C 
ATOM     16  C   UNL     1       4.439   3.211  19.846  0.00  0.00    +0.000 C 
BRANCH  15  20
ATOM     17  C   UNL     1       6.803   5.091  15.752  0.00  0.00    +0.000 A 
ATOM     18  C   UNL     1       5.734   4.366  15.217  0.00  0.00    +0.000 A 
ATOM     19  C   UNL     1       4.827   3.703  16.052  0.00  0.00    +0.000 A 
ATOM     20  C   UNL     1       4.967   3.756  17.447  0.00  0.00    +0.000 A 
ATOM     21  C   UNL     1       6.042   4.487  17.978  0.00  0.00    +0.000 A 
ATOM     22  C   UNL     1       6.940   5.147  17.139  0.00  0.00    +0.000 A 
ATOM     23  F   UNL     1       7.933   5.834  17.721  0.00  0.00    +0.000 F 
BRANCH  17  25
ATOM     24  C   UNL     1       7.586   5.117  13.505  0.00  0.00    +0.000 C 
ATOM     25  O   UNL     1       7.612   5.674  14.815  0.00  0.00    +0.000 OA
ENDBRANCH  17  25
ENDBRANCH  15  20
ENDBRANCH   1  15
TORSDOF 5
ENDMDL
