MODEL 1
REMARK VINA RESULT:      -7.8      0.000      0.000
REMARK  Name = 
REMARK  6 active torsions:
REMARK  status: ('A' for Active; 'I' for Inactive)
REMARK    1  A    between atoms: C_1  and  C_2
REMARK    2  A    between atoms: C_2  and  C_4
REMARK    3  A    between atoms: C_7  and  N_8
REMARK    4  A    between atoms: C_9  and  C_11
REMARK    5  A    between atoms: C_11  and  N_12
REMARK    6  A    between atoms: N_15  and  C_16
REMARK                            x       y       z     vdW  Elec       q    Type
REMARK                         _______ _______ _______ _____ _____    ______ ____
ROOT
ATOM      1  N   UNL     1       7.782   8.941  17.689  0.00  0.00    +0.000 N 
ATOM      2  C   UNL     1       7.854   7.600  18.028  0.00  0.00    +0.000 C 
ATOM      3  O   UNL     1       8.621   7.092  18.842  0.00  0.00    +0.000 OA
ATOM      4  H   UNL     1       7.144   9.172  16.935  0.00  0.00    +0.000 HD
ENDROOT
BRANCH   1   8
ATOM      5  C   UNL     1      10.109  12.029  19.432  0.00  0.00    +0.000 A 
ATOM      6  C   UNL     1       9.525  12.216  18.179  0.00  0.00    +0.000 A 
ATOM      7  C   UNL     1       8.757  11.207  17.600  0.00  0.00    +0.000 A 
ATOM      8  C   UNL     1       8.539   9.991  18.253  0.00  0.00    +0.000 A 
ATOM      9  C   UNL     1       9.108   9.808  19.519  0.00  0.00    +0.000 A 
ATOM     10  C   UNL     1       9.893  10.819  20.103  0.00  0.00    +0.000 A 
BRANCH   5  12
ATOM     11  C   UNL     1      10.335  13.996  21.093  0.00  0.00    +0.000 C 
ATOM     12  C   UNL     1      10.956  13.088  20.059  0.00  0.00    +0.000 C 
ATOM     13  O   UNL     1      12.135  13.203  19.732  0.00  0.00    +0.000 OA
ENDBRANCH   5  12
ENDBRANCH   1   8
BRANCH   2  14
ATOM     14  C   UNL     1       6.848   6.711  17.289  0.00  0.00    +0.000 C 
BRANCH  14  15
ATOM     15  N   UNL     1       6.717   5.367  17.897  0.00  0.00    +0.000 NA
ATOM     16  C   UNL     1       6.060   5.411  19.233  0.00  0.00    +0.000 C 
ATOM     17  C   UNL     1       4.604   5.915  19.213  0.00  0.00    +0.000 C 
ATOM     18  N   UNL     1       3.795   5.070  18.328  0.00  0.00    +0.000 N 
ATOM     19  C   UNL     1       4.334   4.834  16.980  0.00  0.00    +0.000 C 
ATOM     20  C   UNL     1       5.862   4.510  17.022  0.00  0.00    +0.000 C 
BRANCH  18  21
ATOM     21  C   UNL     1       2.741   4.321  18.818  0.00  0.00    +0.000 A 
ATOM     22  C   UNL     1       2.273   4.494  20.128  0.00  0.00    +0.000 A 
ATOM     23  C   UNL     1       1.238   3.707  20.649  0.00  0.00    +0.000 A 
ATOM     24  C   UNL     1       0.639   2.731  19.860  0.00  0.00    +0.000 A 
ATOM     25  C   UNL     1       1.071   2.547  18.554  0.00  0.00    +0.000 A 
ATOM     26  C   UNL     1       2.110   3.333  18.045  0.00  0.00    +0.000 A 
ENDBRANCH  18  21
ENDBRANCH  14  15
ENDBRANCH   2  14
TORSDOF 5
ENDMDL
MODEL 2
REMARK VINA RESULT:      -7.8      1.276      1.794
REMARK  Name = 
REMARK  6 active torsions:
REMARK  status: ('A' for Active; 'I' for Inactive)
REMARK    1  A    between atoms: C_1  and  C_2
REMARK    2  A    between atoms: C_2  and  C_4
REMARK    3  A    between atoms: C_7  and  N_8
REMARK    4  A    between atoms: C_9  and  C_11
REMARK    5  A    between atoms: C_11  and  N_12
REMARK    6  A    between atoms: N_15  and  C_16
REMARK                            x       y       z     vdW  Elec       q    Type
REMARK                         _______ _______ _______ _____ _____    ______ ____
ROOT
ATOM      1  N   UNL     1       8.840   8.749  19.087  0.00  0.00    +0.000 N 
ATOM      2  C   UNL     1       8.056   8.211  18.079  0.00  0.00    +0.000 C 
ATOM      3  O   UNL     1       7.599   8.812  17.110  0.00  0.00    +0.000 OA
ATOM      4  H   UNL     1       9.061   8.124  19.855  0.00  0.00    +0.000 HD
ENDROOT
BRANCH   1   8
ATOM      5  C   UNL     1      10.220  12.757  19.234  0.00  0.00    +0.000 A 
ATOM      6  C   UNL     1       9.812  12.115  20.403  0.00  0.00    +0.000 A 
ATOM      7  C   UNL     1       9.358  10.797  20.364  0.00  0.00    +0.000 A 
ATOM      8  C   UNL     1       9.309  10.078  19.167  0.00  0.00    +0.000 A 
ATOM      9  C   UNL     1       9.737  10.714  17.995  0.00  0.00    +0.000 A 
ATOM     10  C   UNL     1      10.186  12.047  18.028  0.00  0.00    +0.000 A 
BRANCH   5  12
ATOM     11  C   UNL     1       9.969  15.185  18.387  0.00  0.00    +0.000 C 
ATOM     12  C   UNL     1      10.686  14.176  19.252  0.00  0.00    +0.000 C 
ATOM     13  O   UNL     1      11.631  14.502  19.966  0.00  0.00    +0.000 OA
ENDBRANCH   5  12
ENDBRANCH   1   8
BRANCH   2  14
ATOM     14  C   UNL     1       7.771   6.714  18.237  0.00  0.00    +0.000 C 
BRANCH  14  15
ATOM     15  N   UNL     1       6.909   6.179  17.158  0.00  0.00    +0.000 NA
ATOM     16  C   UNL     1       6.717   4.706  17.265  0.00  0.00    +0.000 C 
ATOM     17  C   UNL     1       5.983   4.249  18.541  0.00  0.00    +0.000 C 
ATOM     18  N   UNL     1       4.667   4.893  18.619  0.00  0.00    +0.000 N 
ATOM     19  C   UNL     1       4.646   6.353  18.443  0.00  0.00    +0.000 C 
ATOM     20  C   UNL     1       5.554   6.801  17.254  0.00  0.00    +0.000 C 
BRANCH  18  21
ATOM     21  C   UNL     1       3.501   4.151  18.583  0.00  0.00    +0.000 A 
ATOM     22  C   UNL     1       2.375   4.529  19.327  0.00  0.00    +0.000 A 
ATOM     23  C   UNL     1       1.206   3.758  19.335  0.00  0.00    +0.000 A 
ATOM     24  C   UNL     1       1.136   2.590  18.583  0.00  0.00    +0.000 A 
ATOM     25  C   UNL     1       2.231   2.198  17.824  0.00  0.00    +0.000 A 
ATOM     26  C   UNL     1       3.395   2.972  17.829  0.00  0.00    +0.000 A 
ENDBRANCH  18  21
ENDBRANCH  14  15
ENDBRANCH   2  14
TORSDOF 5
ENDMDL
MODEL 3
REMARK VINA RESULT:      -7.8      1.400      1.884
REMARK  Name = 
REMARK  6 active torsions:
REMARK  status: ('A' for Active; 'I' for Inactive)
REMARK    1  A    between atoms: C_1  and  C_2
REMARK    2  A    between atoms: C_2  and  C_4
REMARK    3  A    between atoms: C_7  and  N_8
REMARK    4  A    between atoms: C_9  and  C_11
REMARK    5  A    between atoms: C_11  and  N_12
REMARK    6  A    between atoms: N_15  and  C_16
REMARK                            x       y       z     vdW  Elec       q    Type
REMARK                         _______ _______ _______ _____ _____    ______ ____
ROOT
ATOM      1  N   UNL     1       8.929   9.069  19.201  0.00  0.00    +0.000 N 
ATOM      2  C   UNL     1       8.258   8.421  18.176  0.00  0.00    +0.000 C 
ATOM      3  O   UNL     1       7.903   8.913  17.108  0.00  0.00    +0.000 OA
ATOM      4  H   UNL     1       9.070   8.529  20.047  0.00  0.00    +0.000 HD
ENDROOT
BRANCH   1   8
ATOM      5  C   UNL     1      10.333  13.072  19.264  0.00  0.00    +0.000 A 
ATOM      6  C   UNL     1      10.134  12.419  18.047  0.00  0.00    +0.000 A 
ATOM      7  C   UNL     1       9.672  11.104  18.017  0.00  0.00    +0.000 A 
ATOM      8  C   UNL     1       9.383  10.407  19.192  0.00  0.00    +0.000 A 
ATOM      9  C   UNL     1       9.562  11.065  20.415  0.00  0.00    +0.000 A 
ATOM     10  C   UNL     1      10.039  12.388  20.451  0.00  0.00    +0.000 A 
BRANCH   5  12
ATOM     11  C   UNL     1      10.036  15.572  18.683  0.00  0.00    +0.000 C 
ATOM     12  C   UNL     1      10.851  14.471  19.318  0.00  0.00    +0.000 C 
ATOM     13  O   UNL     1      11.920  14.707  19.876  0.00  0.00    +0.000 OA
ENDBRANCH   5  12
ENDBRANCH   1   8
BRANCH   2  14
ATOM     14  C   UNL     1       7.963   6.944  18.457  0.00  0.00    +0.000 C 
BRANCH  14  15
ATOM     15  N   UNL     1       7.285   6.270  17.325  0.00  0.00    +0.000 NA
ATOM     16  C   UNL     1       7.158   4.802  17.534  0.00  0.00    +0.000 C 
ATOM     17  C   UNL     1       6.282   4.401  18.737  0.00  0.00    +0.000 C 
ATOM     18  N   UNL     1       4.936   4.964  18.586  0.00  0.00    +0.000 N 
ATOM     19  C   UNL     1       4.862   6.401  18.282  0.00  0.00    +0.000 C 
ATOM     20  C   UNL     1       5.899   6.810  17.187  0.00  0.00    +0.000 C 
BRANCH  18  21
ATOM     21  C   UNL     1       3.827   4.149  18.461  0.00  0.00    +0.000 A 
ATOM     22  C   UNL     1       3.951   2.753  18.422  0.00  0.00    +0.000 A 
ATOM     23  C   UNL     1       2.839   1.920  18.247  0.00  0.00    +0.000 A 
ATOM     24  C   UNL     1       1.568   2.471  18.117  0.00  0.00    +0.000 A 
ATOM     25  C   UNL     1       1.412   3.850  18.166  0.00  0.00    +0.000 A 
ATOM     26  C   UNL     1       2.530   4.673  18.335  0.00  0.00    +0.000 A 
ENDBRANCH  18  21
ENDBRANCH  14  15
ENDBRANCH   2  14
TORSDOF 5
ENDMDL
MODEL 4
REMARK VINA RESULT:      -7.7      1.029      1.320
REMARK  Name = 
REMARK  6 active torsions:
REMARK  status: ('A' for Active; 'I' for Inactive)
REMARK    1  A    between atoms: C_1  and  C_2
REMARK    2  A    between atoms: C_2  and  C_4
REMARK    3  A    between atoms: C_7  and  N_8
REMARK    4  A    between atoms: C_9  and  C_11
REMARK    5  A    between atoms: C_11  and  N_12
REMARK    6  A    between atoms: N_15  and  C_16
REMARK                            x       y       z     vdW  Elec       q    Type
REMARK                         _______ _______ _______ _____ _____    ______ ____
ROOT
ATOM      1  N   UNL     1       8.054   9.358  17.678  0.00  0.00    +0.000 N 
ATOM      2  C   UNL     1       8.084   8.035  18.087  0.00  0.00    +0.000 C 
ATOM      3  O   UNL     1       8.722   7.577  19.033  0.00  0.00    +0.000 OA
ATOM      4  H   UNL     1       7.538   9.544  16.825  0.00  0.00    +0.000 HD
ENDROOT
BRANCH   1   8
ATOM      5  C   UNL     1      10.077  12.560  19.588  0.00  0.00    +0.000 A 
ATOM      6  C   UNL     1       9.380  12.783  18.401  0.00  0.00    +0.000 A 
ATOM      7  C   UNL     1       8.711  11.736  17.767  0.00  0.00    +0.000 A 
ATOM      8  C   UNL     1       8.706  10.445  18.300  0.00  0.00    +0.000 A 
ATOM      9  C   UNL     1       9.389  10.223  19.502  0.00  0.00    +0.000 A 
ATOM     10  C   UNL     1      10.075  11.273  20.140  0.00  0.00    +0.000 A 
BRANCH   5  12
ATOM     11  C   UNL     1      12.047  14.232  19.597  0.00  0.00    +0.000 C 
ATOM     12  C   UNL     1      10.821  13.662  20.268  0.00  0.00    +0.000 C 
ATOM     13  O   UNL     1      10.427  14.090  21.351  0.00  0.00    +0.000 OA
ENDBRANCH   5  12
ENDBRANCH   1   8
BRANCH   2  14
ATOM     14  C   UNL     1       7.213   7.098  17.246  0.00  0.00    +0.000 C 
BRANCH  14  15
ATOM     15  N   UNL     1       7.233   5.701  17.738  0.00  0.00    +0.000 NA
ATOM     16  C   UNL     1       6.436   5.529  18.984  0.00  0.00    +0.000 C 
ATOM     17  C   UNL     1       4.929   5.807  18.822  0.00  0.00    +0.000 C 
ATOM     18  N   UNL     1       4.367   4.930  17.789  0.00  0.00    +0.000 N 
ATOM     19  C   UNL     1       5.081   4.897  16.503  0.00  0.00    +0.000 C 
ATOM     20  C   UNL     1       6.627   4.805  16.708  0.00  0.00    +0.000 C 
BRANCH  18  21
ATOM     21  C   UNL     1       3.399   3.990  18.093  0.00  0.00    +0.000 A 
ATOM     22  C   UNL     1       3.719   2.631  18.219  0.00  0.00    +0.000 A 
ATOM     23  C   UNL     1       2.739   1.665  18.479  0.00  0.00    +0.000 A 
ATOM     24  C   UNL     1       1.409   2.045  18.630  0.00  0.00    +0.000 A 
ATOM     25  C   UNL     1       1.064   3.386  18.526  0.00  0.00    +0.000 A 
ATOM     26  C   UNL     1       2.050   4.341  18.259  0.00  0.00    +0.000 A 
ENDBRANCH  18  21
ENDBRANCH  14  15
ENDBRANCH   2  14
TORSDOF 5
ENDMDL
MODEL 5
REMARK VINA RESULT:      -7.6      1.037      1.999
REMARK  Name = 
REMARK  6 active torsions:
REMARK  status: ('A' for Active; 'I' for Inactive)
REMARK    1  A    between atoms: C_1  and  C_2
REMARK    2  A    between atoms: C_2  and  C_4
REMARK    3  A    between atoms: C_7  and  N_8
REMARK    4  A    between atoms: C_9  and  C_11
REMARK    5  A    between atoms: C_11  and  N_12
REMARK    6  A    between atoms: N_15  and  C_16
REMARK                            x       y       z     vdW  Elec       q    Type
REMARK                         _______ _______ _______ _____ _____    ______ ____
ROOT
ATOM      1  N   UNL     1       7.805   8.330  17.354  0.00  0.00    +0.000 N 
ATOM      2  C   UNL     1       7.736   7.046  17.872  0.00  0.00    +0.000 C 
ATOM      3  O   UNL     1       8.181   6.669  18.953  0.00  0.00    +0.000 OA
ATOM      4  H   UNL     1       7.457   8.444  16.408  0.00  0.00    +0.000 HD
ENDROOT
BRANCH   1   8
ATOM      5  C   UNL     1       9.374  11.794  19.234  0.00  0.00    +0.000 A 
ATOM      6  C   UNL     1       9.563  10.538  19.812  0.00  0.00    +0.000 A 
ATOM      7  C   UNL     1       9.052   9.394  19.200  0.00  0.00    +0.000 A 
ATOM      8  C   UNL     1       8.351   9.464  17.994  0.00  0.00    +0.000 A 
ATOM      9  C   UNL     1       8.176  10.721  17.402  0.00  0.00    +0.000 A 
ATOM     10  C   UNL     1       8.680  11.880  18.021  0.00  0.00    +0.000 A 
BRANCH   5  12
ATOM     11  C   UNL     1      11.383  13.269  19.915  0.00  0.00    +0.000 C 
ATOM     12  C   UNL     1       9.892  13.033  19.887  0.00  0.00    +0.000 C 
ATOM     13  O   UNL     1       9.107  13.838  20.383  0.00  0.00    +0.000 OA
ENDBRANCH   5  12
ENDBRANCH   1   8
BRANCH   2  14
ATOM     14  C   UNL     1       7.017   6.042  16.965  0.00  0.00    +0.000 C 
BRANCH  14  15
ATOM     15  N   UNL     1       5.580   6.355  16.792  0.00  0.00    +0.000 NA
ATOM     16  C   UNL     1       4.807   5.193  16.271  0.00  0.00    +0.000 C 
ATOM     17  C   UNL     1       4.775   3.973  17.212  0.00  0.00    +0.000 C 
ATOM     18  N   UNL     1       4.212   4.358  18.511  0.00  0.00    +0.000 N 
ATOM     19  C   UNL     1       4.793   5.551  19.145  0.00  0.00    +0.000 C 
ATOM     20  C   UNL     1       4.988   6.710  18.116  0.00  0.00    +0.000 C 
BRANCH  18  21
ATOM     21  C   UNL     1       3.032   3.805  18.974  0.00  0.00    +0.000 A 
ATOM     22  C   UNL     1       2.231   3.006  18.147  0.00  0.00    +0.000 A 
ATOM     23  C   UNL     1       1.010   2.481  18.591  0.00  0.00    +0.000 A 
ATOM     24  C   UNL     1       0.570   2.739  19.885  0.00  0.00    +0.000 A 
ATOM     25  C   UNL     1       1.350   3.516  20.732  0.00  0.00    +0.000 A 
ATOM     26  C   UNL     1       2.563   4.040  20.276  0.00  0.00    +0.000 A 
ENDBRANCH  18  21
ENDBRANCH  14  15
ENDBRANCH   2  14
TORSDOF 5
ENDMDL
MODEL 6
REMARK VINA RESULT:      -7.6      1.549      2.116
REMARK  Name = 
REMARK  6 active torsions:
REMARK  status: ('A' for Active; 'I' for Inactive)
REMARK    1  A    between atoms: C_1  and  C_2
REMARK    2  A    between atoms: C_2  and  C_4
REMARK    3  A    between atoms: C_7  and  N_8
REMARK    4  A    between atoms: C_9  and  C_11
REMARK    5  A    between atoms: C_11  and  N_12
REMARK    6  A    between atoms: N_15  and  C_16
REMARK                            x       y       z     vdW  Elec       q    Type
REMARK                         _______ _______ _______ _____ _____    ______ ____
ROOT
ATOM      1  N   UNL     1       8.893   9.139  19.113  0.00  0.00    +0.000 N 
ATOM      2  C   UNL     1       8.291   8.388  18.116  0.00  0.00    +0.000 C 
ATOM      3  O   UNL     1       8.008   8.770  16.983  0.00  0.00    +0.000 OA
ATOM      4  H   UNL     1       8.976   8.687  20.017  0.00  0.00    +0.000 HD
ENDROOT
BRANCH   1   8
ATOM      5  C   UNL     1      10.172  13.166  18.737  0.00  0.00    +0.000 A 
ATOM      6  C   UNL     1      10.684  12.362  19.756  0.00  0.00    +0.000 A 
ATOM      7  C   UNL     1      10.270  11.036  19.886  0.00  0.00    +0.000 A 
ATOM      8  C   UNL     1       9.347  10.472  19.002  0.00  0.00    +0.000 A 
ATOM      9  C   UNL     1       8.846  11.271  17.967  0.00  0.00    +0.000 A 
ATOM     10  C   UNL     1       9.253  12.612  17.838  0.00  0.00    +0.000 A 
BRANCH   5  12
ATOM     11  C   UNL     1      12.048  14.942  18.716  0.00  0.00    +0.000 C 
ATOM     12  C   UNL     1      10.584  14.595  18.597  0.00  0.00    +0.000 C 
ATOM     13  O   UNL     1       9.736  15.458  18.383  0.00  0.00    +0.000 OA
ENDBRANCH   5  12
ENDBRANCH   1   8
BRANCH   2  14
ATOM     14  C   UNL     1       7.976   6.945  18.522  0.00  0.00    +0.000 C 
BRANCH  14  15
ATOM     15  N   UNL     1       7.412   6.147  17.408  0.00  0.00    +0.000 NA
ATOM     16  C   UNL     1       7.243   4.713  17.769  0.00  0.00    +0.000 C 
ATOM     17  C   UNL     1       6.239   4.454  18.909  0.00  0.00    +0.000 C 
ATOM     18  N   UNL     1       4.925   4.999  18.551  0.00  0.00    +0.000 N 
ATOM     19  C   UNL     1       4.904   6.392  18.079  0.00  0.00    +0.000 C 
ATOM     20  C   UNL     1       6.057   6.670  17.063  0.00  0.00    +0.000 C 
BRANCH  18  21
ATOM     21  C   UNL     1       3.823   4.177  18.402  0.00  0.00    +0.000 A 
ATOM     22  C   UNL     1       2.556   4.704  18.116  0.00  0.00    +0.000 A 
ATOM     23  C   UNL     1       1.425   3.884  18.011  0.00  0.00    +0.000 A 
ATOM     24  C   UNL     1       1.543   2.509  18.182  0.00  0.00    +0.000 A 
ATOM     25  C   UNL     1       2.788   1.957  18.452  0.00  0.00    +0.000 A 
ATOM     26  C   UNL     1       3.909   2.785  18.561  0.00  0.00    +0.000 A 
ENDBRANCH  18  21
ENDBRANCH  14  15
ENDBRANCH   2  14
TORSDOF 5
ENDMDL
MODEL 7
REMARK VINA RESULT:      -7.6      1.295      1.969
REMARK  Name = 
REMARK  6 active torsions:
REMARK  status: ('A' for Active; 'I' for Inactive)
REMARK    1  A    between atoms: C_1  and  C_2
REMARK    2  A    between atoms: C_2  and  C_4
REMARK    3  A    between atoms: C_7  and  N_8
REMARK    4  A    between atoms: C_9  and  C_11
REMARK    5  A    between atoms: C_11  and  N_12
REMARK    6  A    between atoms: N_15  and  C_16
REMARK                            x       y       z     vdW  Elec       q    Type
REMARK                         _______ _______ _______ _____ _____    ______ ____
ROOT
ATOM      1  N   UNL     1       8.641   8.857  19.028  0.00  0.00    +0.000 N 
ATOM      2  C   UNL     1       8.131   8.061  18.015  0.00  0.00    +0.000 C 
ATOM      3  O   UNL     1       8.035   8.362  16.827  0.00  0.00    +0.000 OA
ATOM      4  H   UNL     1       8.567   8.478  19.966  0.00  0.00    +0.000 HD
ENDROOT
BRANCH   1   8
ATOM      5  C   UNL     1      10.227  12.764  18.566  0.00  0.00    +0.000 A 
ATOM      6  C   UNL     1      10.816  11.871  19.462  0.00  0.00    +0.000 A 
ATOM      7  C   UNL     1      10.301  10.585  19.619  0.00  0.00    +0.000 A 
ATOM      8  C   UNL     1       9.198  10.146  18.883  0.00  0.00    +0.000 A 
ATOM      9  C   UNL     1       8.617  11.033  17.969  0.00  0.00    +0.000 A 
ATOM     10  C   UNL     1       9.126  12.336  17.814  0.00  0.00    +0.000 A 
BRANCH   5  12
ATOM     11  C   UNL     1      11.283  14.875  19.615  0.00  0.00    +0.000 C 
ATOM     12  C   UNL     1      10.747  14.154  18.402  0.00  0.00    +0.000 C 
ATOM     13  O   UNL     1      10.738  14.685  17.294  0.00  0.00    +0.000 OA
ENDBRANCH   5  12
ENDBRANCH   1   8
BRANCH   2  14
ATOM     14  C   UNL     1       7.663   6.678  18.479  0.00  0.00    +0.000 C 
BRANCH  14  15
ATOM     15  N   UNL     1       6.870   5.967  17.449  0.00  0.00    +0.000 NA
ATOM     16  C   UNL     1       6.665   4.531  17.784  0.00  0.00    +0.000 C 
ATOM     17  C   UNL     1       5.850   4.284  19.068  0.00  0.00    +0.000 C 
ATOM     18  N   UNL     1       4.534   4.924  18.956  0.00  0.00    +0.000 N 
ATOM     19  C   UNL     1       4.530   6.335  18.541  0.00  0.00    +0.000 C 
ATOM     20  C   UNL     1       5.514   6.587  17.355  0.00  0.00    +0.000 C 
BRANCH  18  21
ATOM     21  C   UNL     1       3.370   4.178  18.966  0.00  0.00    +0.000 A 
ATOM     22  C   UNL     1       3.177   3.119  18.069  0.00  0.00    +0.000 A 
ATOM     23  C   UNL     1       1.982   2.389  18.039  0.00  0.00    +0.000 A 
ATOM     24  C   UNL     1       0.953   2.699  18.921  0.00  0.00    +0.000 A 
ATOM     25  C   UNL     1       1.121   3.734  19.831  0.00  0.00    +0.000 A 
ATOM     26  C   UNL     1       2.315   4.461  19.849  0.00  0.00    +0.000 A 
ENDBRANCH  18  21
ENDBRANCH  14  15
ENDBRANCH   2  14
TORSDOF 5
ENDMDL
MODEL 8
REMARK VINA RESULT:      -7.6      0.982      1.710
REMARK  Name = 
REMARK  6 active torsions:
REMARK  status: ('A' for Active; 'I' for Inactive)
REMARK    1  A    between atoms: C_1  and  C_2
REMARK    2  A    between atoms: C_2  and  C_4
REMARK    3  A    between atoms: C_7  and  N_8
REMARK    4  A    between atoms: C_9  and  C_11
REMARK    5  A    between atoms: C_11  and  N_12
REMARK    6  A    between atoms: N_15  and  C_16
REMARK                            x       y       z     vdW  Elec       q    Type
REMARK                         _______ _______ _______ _____ _____    ______ ____
ROOT
ATOM      1  N   UNL     1       7.873   8.429  17.356  0.00  0.00    +0.000 N 
ATOM      2  C   UNL     1       7.787   7.146  17.872  0.00  0.00    +0.000 C 
ATOM      3  O   UNL     1       8.201   6.769  18.966  0.00  0.00    +0.000 OA
ATOM      4  H   UNL     1       7.552   8.542  16.400  0.00  0.00    +0.000 HD
ENDROOT
BRANCH   1   8
ATOM      5  C   UNL     1       9.392  11.892  19.276  0.00  0.00    +0.000 A 
ATOM      6  C   UNL     1       9.559  10.638  19.862  0.00  0.00    +0.000 A 
ATOM      7  C   UNL     1       9.064   9.494  19.237  0.00  0.00    +0.000 A 
ATOM      8  C   UNL     1       8.402   9.563  18.009  0.00  0.00    +0.000 A 
ATOM      9  C   UNL     1       8.249  10.819  17.409  0.00  0.00    +0.000 A 
ATOM     10  C   UNL     1       8.738  11.978  18.041  0.00  0.00    +0.000 A 
BRANCH   5  12
ATOM     11  C   UNL     1       9.751  14.451  19.222  0.00  0.00    +0.000 C 
ATOM     12  C   UNL     1       9.893  13.132  19.942  0.00  0.00    +0.000 C 
ATOM     13  O   UNL     1      10.403  13.064  21.058  0.00  0.00    +0.000 OA
ENDBRANCH   5  12
ENDBRANCH   1   8
BRANCH   2  14
ATOM     14  C   UNL     1       7.093   6.142  16.946  0.00  0.00    +0.000 C 
BRANCH  14  15
ATOM     15  N   UNL     1       5.670   6.473  16.707  0.00  0.00    +0.000 NA
ATOM     16  C   UNL     1       4.913   5.330  16.125  0.00  0.00    +0.000 C 
ATOM     17  C   UNL     1       4.822   4.092  17.038  0.00  0.00    +0.000 C 
ATOM     18  N   UNL     1       4.198   4.457  18.315  0.00  0.00    +0.000 N 
ATOM     19  C   UNL     1       4.758   5.631  19.001  0.00  0.00    +0.000 C 
ATOM     20  C   UNL     1       5.015   6.808  18.007  0.00  0.00    +0.000 C 
BRANCH  18  21
ATOM     21  C   UNL     1       2.991   3.908  18.707  0.00  0.00    +0.000 A 
ATOM     22  C   UNL     1       2.236   4.476  19.742  0.00  0.00    +0.000 A 
ATOM     23  C   UNL     1       1.036   3.900  20.179  0.00  0.00    +0.000 A 
ATOM     24  C   UNL     1       0.560   2.740  19.577  0.00  0.00    +0.000 A 
ATOM     25  C   UNL     1       1.279   2.162  18.539  0.00  0.00    +0.000 A 
ATOM     26  C   UNL     1       2.479   2.743  18.115  0.00  0.00    +0.000 A 
ENDBRANCH  18  21
ENDBRANCH  14  15
ENDBRANCH   2  14
TORSDOF 5
ENDMDL
MODEL 9
REMARK VINA RESULT:      -7.5      6.867      9.954
REMARK  Name = 
REMARK  6 active torsions:
REMARK  status: ('A' for Active; 'I' for Inactive)
REMARK    1  A    between atoms: C_1  and  C_2
REMARK    2  A    between atoms: C_2  and  C_4
REMARK    3  A    between atoms: C_7  and  N_8
REMARK    4  A    between atoms: C_9  and  C_11
REMARK    5  A    between atoms: C_11  and  N_12
REMARK    6  A    between atoms: N_15  and  C_16
REMARK                            x       y       z     vdW  Elec       q    Type
REMARK                         _______ _______ _______ _____ _____    ______ ____
ROOT
ATOM      1  N   UNL     1       2.075   7.703  20.086  0.00  0.00    +0.000 N 
ATOM      2  C   UNL     1       1.707   8.555  19.057  0.00  0.00    +0.000 C 
ATOM      3  O   UNL     1       1.817   8.338  17.853  0.00  0.00    +0.000 OA
ATOM      4  H   UNL     1       1.989   8.081  21.024  0.00  0.00    +0.000 HD
ENDROOT
BRANCH   1   8
ATOM      5  C   UNL     1       3.552   3.748  19.680  0.00  0.00    +0.000 A 
ATOM      6  C   UNL     1       4.260   4.818  19.133  0.00  0.00    +0.000 A 
ATOM      7  C   UNL     1       3.782   6.122  19.263  0.00  0.00    +0.000 A 
ATOM      8  C   UNL     1       2.598   6.398  19.949  0.00  0.00    +0.000 A 
ATOM      9  C   UNL     1       1.895   5.328  20.515  0.00  0.00    +0.000 A 
ATOM     10  C   UNL     1       2.367   4.010  20.377  0.00  0.00    +0.000 A 
BRANCH   5  12
ATOM     11  C   UNL     1       3.478   1.501  18.406  0.00  0.00    +0.000 C 
ATOM     12  C   UNL     1       4.034   2.342  19.529  0.00  0.00    +0.000 C 
ATOM     13  O   UNL     1       4.873   1.895  20.309  0.00  0.00    +0.000 OA
ENDBRANCH   5  12
ENDBRANCH   1   8
BRANCH   2  14
ATOM     14  C   UNL     1       1.102   9.882  19.528  0.00  0.00    +0.000 C 
BRANCH  14  15
ATOM     15  N   UNL     1      -0.323   9.757  19.912  0.00  0.00    +0.000 NA
ATOM     16  C   UNL     1      -0.499   9.544  21.375  0.00  0.00    +0.000 C 
ATOM     17  C   UNL     1      -0.014  10.713  22.254  0.00  0.00    +0.000 C 
ATOM     18  N   UNL     1      -0.717  11.945  21.879  0.00  0.00    +0.000 N 
ATOM     19  C   UNL     1      -0.730  12.277  20.447  0.00  0.00    +0.000 C 
ATOM     20  C   UNL     1      -1.040  11.022  19.570  0.00  0.00    +0.000 C 
BRANCH  18  21
ATOM     21  C   UNL     1      -1.546  12.598  22.772  0.00  0.00    +0.000 A 
ATOM     22  C   UNL     1      -2.772  12.044  23.165  0.00  0.00    +0.000 A 
ATOM     23  C   UNL     1      -3.641  12.720  24.031  0.00  0.00    +0.000 A 
ATOM     24  C   UNL     1      -3.293  13.969  24.535  0.00  0.00    +0.000 A 
ATOM     25  C   UNL     1      -2.078  14.537  24.174  0.00  0.00    +0.000 A 
ATOM     26  C   UNL     1      -1.220  13.856  23.304  0.00  0.00    +0.000 A 
ENDBRANCH  18  21
ENDBRANCH  14  15
ENDBRANCH   2  14
TORSDOF 5
ENDMDL
