MODEL 1
REMARK VINA RESULT:      -6.1      0.000      0.000
REMARK  Name = 
REMARK  4 active torsions:
REMARK  status: ('A' for Active; 'I' for Inactive)
REMARK    1  A    between atoms: C_1  and  C_2
REMARK    2  A    between atoms: C_4  and  C_5
REMARK    3  A    between atoms: C_10  and  C_11
REMARK    4  A    between atoms: C_11  and  O_13
REMARK                            x       y       z     vdW  Elec       q    Type
REMARK                         _______ _______ _______ _____ _____    ______ ____
ROOT
ATOM      1  C   UNL     1       1.523   3.058  19.576  0.00  0.00    +0.000 C 
ATOM      2  C   UNL     1       2.636   3.965  19.114  0.00  0.00    +0.000 A 
ATOM      3  C   UNL     1       2.306   5.271  18.725  0.00  0.00    +0.000 A 
ATOM      4  C   UNL     1       3.287   6.157  18.261  0.00  0.00    +0.000 A 
ATOM      5  C   UNL     1       2.968   7.554  17.838  0.00  0.00    +0.000 C 
ATOM      6  N   UNL     1       4.608   5.741  18.178  0.00  0.00    +0.000 N 
ATOM      7  O   UNL     1       5.541   6.522  17.773  0.00  0.00    +0.000 OA
ATOM      8  C   UNL     1       4.961   4.430  18.563  0.00  0.00    +0.000 A 
ATOM      9  N   UNL     1       6.333   4.059  18.413  0.00  0.00    +0.000 N 
ATOM     10  C   UNL     1       3.979   3.541  19.039  0.00  0.00    +0.000 A 
ATOM     11  H   UNL     1       6.777   4.922  18.044  0.00  0.00    +0.000 HD
ATOM     12  H   UNL     1       6.754   3.845  19.321  0.00  0.00    +0.000 HD
ENDROOT
BRANCH  10  13
ATOM     13  C   UNL     1       4.361   2.161  19.455  0.00  0.00    +0.000 C 
ATOM     14  O   UNL     1       4.913   1.905  20.509  0.00  0.00    +0.000 OA
BRANCH  13  15
ATOM     15  O   UNL     1       4.016   1.199  18.569  0.00  0.00    +0.000 OA
ATOM     16  H   UNL     1       3.139   1.352  18.142  0.00  0.00    +0.000 HD
ENDBRANCH  13  15
ENDBRANCH  10  13
TORSDOF 2
ENDMDL
MODEL 2
REMARK VINA RESULT:      -6.1      1.834      2.201
REMARK  Name = 
REMARK  4 active torsions:
REMARK  status: ('A' for Active; 'I' for Inactive)
REMARK    1  A    between atoms: C_1  and  C_2
REMARK    2  A    between atoms: C_4  and  C_5
REMARK    3  A    between atoms: C_10  and  C_11
REMARK    4  A    between atoms: C_11  and  O_13
REMARK                            x       y       z     vdW  Elec       q    Type
REMARK                         _______ _______ _______ _____ _____    ______ ____
ROOT
ATOM      1  C   UNL     1       1.278   4.733  17.559  0.00  0.00    +0.000 C 
ATOM      2  C   UNL     1       2.724   4.614  17.968  0.00  0.00    +0.000 A 
ATOM      3  C   UNL     1       3.620   5.598  17.526  0.00  0.00    +0.000 A 
ATOM      4  C   UNL     1       4.982   5.532  17.848  0.00  0.00    +0.000 A 
ATOM      5  C   UNL     1       5.961   6.564  17.393  0.00  0.00    +0.000 C 
ATOM      6  N   UNL     1       5.461   4.477  18.612  0.00  0.00    +0.000 N 
ATOM      7  O   UNL     1       6.696   4.385  18.942  0.00  0.00    +0.000 OA
ATOM      8  C   UNL     1       4.576   3.475  19.064  0.00  0.00    +0.000 A 
ATOM      9  N   UNL     1       5.146   2.399  19.811  0.00  0.00    +0.000 N 
ATOM     10  C   UNL     1       3.205   3.544  18.752  0.00  0.00    +0.000 A 
ATOM     11  H   UNL     1       6.153   2.645  19.860  0.00  0.00    +0.000 HD
ATOM     12  H   UNL     1       4.775   2.380  20.765  0.00  0.00    +0.000 HD
ENDROOT
BRANCH  10  13
ATOM     13  C   UNL     1       2.274   2.488  19.243  0.00  0.00    +0.000 C 
ATOM     14  O   UNL     1       1.532   2.636  20.197  0.00  0.00    +0.000 OA
BRANCH  13  15
ATOM     15  O   UNL     1       2.298   1.346  18.519  0.00  0.00    +0.000 OA
ATOM     16  H   UNL     1       1.901   1.441  17.620  0.00  0.00    +0.000 HD
ENDBRANCH  13  15
ENDBRANCH  10  13
TORSDOF 2
ENDMDL
MODEL 3
REMARK VINA RESULT:      -6.0      1.476      3.999
REMARK  Name = 
REMARK  4 active torsions:
REMARK  status: ('A' for Active; 'I' for Inactive)
REMARK    1  A    between atoms: C_1  and  C_2
REMARK    2  A    between atoms: C_4  and  C_5
REMARK    3  A    between atoms: C_10  and  C_11
REMARK    4  A    between atoms: C_11  and  O_13
REMARK                            x       y       z     vdW  Elec       q    Type
REMARK                         _______ _______ _______ _____ _____    ______ ____
ROOT
ATOM      1  C   UNL     1       3.027   7.837  17.748  0.00  0.00    +0.000 C 
ATOM      2  C   UNL     1       3.562   6.516  18.242  0.00  0.00    +0.000 A 
ATOM      3  C   UNL     1       2.784   5.786  19.151  0.00  0.00    +0.000 A 
ATOM      4  C   UNL     1       3.234   4.564  19.669  0.00  0.00    +0.000 A 
ATOM      5  C   UNL     1       2.429   3.762  20.639  0.00  0.00    +0.000 C 
ATOM      6  N   UNL     1       4.470   4.065  19.285  0.00  0.00    +0.000 N 
ATOM      7  O   UNL     1       4.916   2.945  19.722  0.00  0.00    +0.000 OA
ATOM      8  C   UNL     1       5.270   4.787  18.372  0.00  0.00    +0.000 A 
ATOM      9  N   UNL     1       6.547   4.232  18.054  0.00  0.00    +0.000 N 
ATOM     10  C   UNL     1       4.816   6.008  17.842  0.00  0.00    +0.000 A 
ATOM     11  H   UNL     1       6.571   3.350  18.601  0.00  0.00    +0.000 HD
ATOM     12  H   UNL     1       6.603   3.992  17.060  0.00  0.00    +0.000 HD
ENDROOT
BRANCH  10  13
ATOM     13  C   UNL     1       5.661   6.760  16.870  0.00  0.00    +0.000 C 
ATOM     14  O   UNL     1       6.639   7.410  17.191  0.00  0.00    +0.000 OA
BRANCH  13  15
ATOM     15  O   UNL     1       5.267   6.639  15.582  0.00  0.00    +0.000 OA
ATOM     16  H   UNL     1       6.009   6.449  14.959  0.00  0.00    +0.000 HD
ENDBRANCH  13  15
ENDBRANCH  10  13
TORSDOF 2
ENDMDL
MODEL 4
REMARK VINA RESULT:      -6.0      2.428      3.975
REMARK  Name = 
REMARK  4 active torsions:
REMARK  status: ('A' for Active; 'I' for Inactive)
REMARK    1  A    between atoms: C_1  and  C_2
REMARK    2  A    between atoms: C_4  and  C_5
REMARK    3  A    between atoms: C_10  and  C_11
REMARK    4  A    between atoms: C_11  and  O_13
REMARK                            x       y       z     vdW  Elec       q    Type
REMARK                         _______ _______ _______ _____ _____    ______ ____
ROOT
ATOM      1  C   UNL     1       5.430   4.200  14.682  0.00  0.00    +0.000 C 
ATOM      2  C   UNL     1       4.993   4.262  16.124  0.00  0.00    +0.000 A 
ATOM      3  C   UNL     1       3.667   3.924  16.430  0.00  0.00    +0.000 A 
ATOM      4  C   UNL     1       3.190   3.986  17.745  0.00  0.00    +0.000 A 
ATOM      5  C   UNL     1       1.783   3.633  18.103  0.00  0.00    +0.000 C 
ATOM      6  N   UNL     1       4.036   4.392  18.768  0.00  0.00    +0.000 N 
ATOM      7  O   UNL     1       3.646   4.450  19.988  0.00  0.00    +0.000 OA
ATOM      8  C   UNL     1       5.374   4.739  18.481  0.00  0.00    +0.000 A 
ATOM      9  N   UNL     1       6.174   5.186  19.577  0.00  0.00    +0.000 N 
ATOM     10  C   UNL     1       5.859   4.667  17.162  0.00  0.00    +0.000 A 
ATOM     11  H   UNL     1       5.530   5.124  20.388  0.00  0.00    +0.000 HD
ATOM     12  H   UNL     1       6.957   4.547  19.741  0.00  0.00    +0.000 HD
ENDROOT
BRANCH  10  13
ATOM     13  C   UNL     1       7.277   5.024  16.868  0.00  0.00    +0.000 C 
ATOM     14  O   UNL     1       7.609   6.051  16.305  0.00  0.00    +0.000 OA
BRANCH  13  15
ATOM     15  O   UNL     1       8.180   4.118  17.306  0.00  0.00    +0.000 OA
ATOM     16  H   UNL     1       8.818   3.830  16.611  0.00  0.00    +0.000 HD
ENDBRANCH  13  15
ENDBRANCH  10  13
TORSDOF 2
ENDMDL
MODEL 5
REMARK VINA RESULT:      -6.0      2.056      3.538
REMARK  Name = 
REMARK  4 active torsions:
REMARK  status: ('A' for Active; 'I' for Inactive)
REMARK    1  A    between atoms: C_1  and  C_2
REMARK    2  A    between atoms: C_4  and  C_5
REMARK    3  A    between atoms: C_10  and  C_11
REMARK    4  A    between atoms: C_11  and  O_13
REMARK                            x       y       z     vdW  Elec       q    Type
REMARK                         _______ _______ _______ _____ _____    ______ ____
ROOT
ATOM      1  C   UNL     1       5.599   6.943  17.334  0.00  0.00    +0.000 C 
ATOM      2  C   UNL     1       4.840   5.732  17.814  0.00  0.00    +0.000 A 
ATOM      3  C   UNL     1       3.479   5.634  17.492  0.00  0.00    +0.000 A 
ATOM      4  C   UNL     1       2.710   4.548  17.930  0.00  0.00    +0.000 A 
ATOM      5  C   UNL     1       1.258   4.414  17.605  0.00  0.00    +0.000 C 
ATOM      6  N   UNL     1       3.295   3.552  18.699  0.00  0.00    +0.000 N 
ATOM      7  O   UNL     1       2.633   2.534  19.108  0.00  0.00    +0.000 OA
ATOM      8  C   UNL     1       4.663   3.634  19.035  0.00  0.00    +0.000 A 
ATOM      9  N   UNL     1       5.188   2.593  19.862  0.00  0.00    +0.000 N 
ATOM     10  C   UNL     1       5.441   4.718  18.588  0.00  0.00    +0.000 A 
ATOM     11  H   UNL     1       4.373   1.969  20.012  0.00  0.00    +0.000 HD
ATOM     12  H   UNL     1       5.910   2.063  19.367  0.00  0.00    +0.000 HD
ENDROOT
BRANCH  10  13
ATOM     13  C   UNL     1       6.889   4.791  18.938  0.00  0.00    +0.000 C 
ATOM     14  O   UNL     1       7.306   5.261  19.981  0.00  0.00    +0.000 OA
BRANCH  13  15
ATOM     15  O   UNL     1       7.714   4.264  18.004  0.00  0.00    +0.000 OA
ATOM     16  H   UNL     1       8.651   4.188  18.305  0.00  0.00    +0.000 HD
ENDBRANCH  13  15
ENDBRANCH  10  13
TORSDOF 2
ENDMDL
MODEL 6
REMARK VINA RESULT:      -5.9      1.906      3.429
REMARK  Name = 
REMARK  4 active torsions:
REMARK  status: ('A' for Active; 'I' for Inactive)
REMARK    1  A    between atoms: C_1  and  C_2
REMARK    2  A    between atoms: C_4  and  C_5
REMARK    3  A    between atoms: C_10  and  C_11
REMARK    4  A    between atoms: C_11  and  O_13
REMARK                            x       y       z     vdW  Elec       q    Type
REMARK                         _______ _______ _______ _____ _____    ______ ____
ROOT
ATOM      1  C   UNL     1       4.344   6.684  17.397  0.00  0.00    +0.000 C 
ATOM      2  C   UNL     1       3.938   5.534  18.285  0.00  0.00    +0.000 A 
ATOM      3  C   UNL     1       2.681   5.587  18.903  0.00  0.00    +0.000 A 
ATOM      4  C   UNL     1       2.254   4.565  19.760  0.00  0.00    +0.000 A 
ATOM      5  C   UNL     1       0.921   4.591  20.434  0.00  0.00    +0.000 C 
ATOM      6  N   UNL     1       3.084   3.481  20.011  0.00  0.00    +0.000 N 
ATOM      7  O   UNL     1       2.729   2.517  20.776  0.00  0.00    +0.000 OA
ATOM      8  C   UNL     1       4.355   3.411  19.400  0.00  0.00    +0.000 A 
ATOM      9  N   UNL     1       5.171   2.287  19.736  0.00  0.00    +0.000 N 
ATOM     10  C   UNL     1       4.782   4.431  18.530  0.00  0.00    +0.000 A 
ATOM     11  H   UNL     1       4.575   1.741  20.386  0.00  0.00    +0.000 HD
ATOM     12  H   UNL     1       5.355   1.711  18.910  0.00  0.00    +0.000 HD
ENDROOT
BRANCH  10  13
ATOM     13  C   UNL     1       6.122   4.344  17.879  0.00  0.00    +0.000 C 
ATOM     14  O   UNL     1       7.161   4.644  18.438  0.00  0.00    +0.000 OA
BRANCH  13  15
ATOM     15  O   UNL     1       6.094   3.875  16.611  0.00  0.00    +0.000 OA
ATOM     16  H   UNL     1       5.507   4.395  16.012  0.00  0.00    +0.000 HD
ENDBRANCH  13  15
ENDBRANCH  10  13
TORSDOF 2
ENDMDL
MODEL 7
REMARK VINA RESULT:      -5.9      1.769      4.070
REMARK  Name = 
REMARK  4 active torsions:
REMARK  status: ('A' for Active; 'I' for Inactive)
REMARK    1  A    between atoms: C_1  and  C_2
REMARK    2  A    between atoms: C_4  and  C_5
REMARK    3  A    between atoms: C_10  and  C_11
REMARK    4  A    between atoms: C_11  and  O_13
REMARK                            x       y       z     vdW  Elec       q    Type
REMARK                         _______ _______ _______ _____ _____    ______ ____
ROOT
ATOM      1  C   UNL     1       2.832   7.649  17.937  0.00  0.00    +0.000 C 
ATOM      2  C   UNL     1       3.059   6.162  17.823  0.00  0.00    +0.000 A 
ATOM      3  C   UNL     1       2.085   5.301  18.350  0.00  0.00    +0.000 A 
ATOM      4  C   UNL     1       2.247   3.911  18.300  0.00  0.00    +0.000 A 
ATOM      5  C   UNL     1       1.229   2.968  18.853  0.00  0.00    +0.000 C 
ATOM      6  N   UNL     1       3.388   3.368  17.727  0.00  0.00    +0.000 N 
ATOM      7  O   UNL     1       3.572   2.102  17.647  0.00  0.00    +0.000 OA
ATOM      8  C   UNL     1       4.382   4.218  17.194  0.00  0.00    +0.000 A 
ATOM      9  N   UNL     1       5.547   3.590  16.656  0.00  0.00    +0.000 N 
ATOM     10  C   UNL     1       4.217   5.615  17.232  0.00  0.00    +0.000 A 
ATOM     11  H   UNL     1       5.357   2.578  16.782  0.00  0.00    +0.000 HD
ATOM     12  H   UNL     1       5.632   3.778  15.653  0.00  0.00    +0.000 HD
ENDROOT
BRANCH  10  13
ATOM     13  C   UNL     1       5.265   6.506  16.656  0.00  0.00    +0.000 C 
ATOM     14  O   UNL     1       6.111   7.069  17.326  0.00  0.00    +0.000 OA
BRANCH  13  15
ATOM     15  O   UNL     1       5.218   6.620  15.309  0.00  0.00    +0.000 OA
ATOM     16  H   UNL     1       5.665   7.431  14.967  0.00  0.00    +0.000 HD
ENDBRANCH  13  15
ENDBRANCH  10  13
TORSDOF 2
ENDMDL
MODEL 8
REMARK VINA RESULT:      -5.9      2.139      3.762
REMARK  Name = 
REMARK  4 active torsions:
REMARK  status: ('A' for Active; 'I' for Inactive)
REMARK    1  A    between atoms: C_1  and  C_2
REMARK    2  A    between atoms: C_4  and  C_5
REMARK    3  A    between atoms: C_10  and  C_11
REMARK    4  A    between atoms: C_11  and  O_13
REMARK                            x       y       z     vdW  Elec       q    Type
REMARK                         _______ _______ _______ _____ _____    ______ ____
ROOT
ATOM      1  C   UNL     1       4.133   6.722  17.454  0.00  0.00    +0.000 C 
ATOM      2  C   UNL     1       3.603   5.400  17.952  0.00  0.00    +0.000 A 
ATOM      3  C   UNL     1       2.534   5.415  18.859  0.00  0.00    +0.000 A 
ATOM      4  C   UNL     1       2.013   4.224  19.380  0.00  0.00    +0.000 A 
ATOM      5  C   UNL     1       0.875   4.206  20.348  0.00  0.00    +0.000 C 
ATOM      6  N   UNL     1       2.560   3.006  19.001  0.00  0.00    +0.000 N 
ATOM      7  O   UNL     1       2.105   1.891  19.441  0.00  0.00    +0.000 OA
ATOM      8  C   UNL     1       3.638   2.971  18.090  0.00  0.00    +0.000 A 
ATOM      9  N   UNL     1       4.176   1.684  17.777  0.00  0.00    +0.000 N 
ATOM     10  C   UNL     1       4.157   4.165  17.557  0.00  0.00    +0.000 A 
ATOM     11  H   UNL     1       3.582   1.034  18.326  0.00  0.00    +0.000 HD
ATOM     12  H   UNL     1       4.052   1.470  16.784  0.00  0.00    +0.000 HD
ENDROOT
BRANCH  10  13
ATOM     13  C   UNL     1       5.289   4.118  16.587  0.00  0.00    +0.000 C 
ATOM     14  O   UNL     1       5.148   4.239  15.383  0.00  0.00    +0.000 OA
BRANCH  13  15
ATOM     15  O   UNL     1       6.504   3.956  17.158  0.00  0.00    +0.000 OA
ATOM     16  H   UNL     1       6.508   3.300  17.895  0.00  0.00    +0.000 HD
ENDBRANCH  13  15
ENDBRANCH  10  13
TORSDOF 2
ENDMDL
MODEL 9
REMARK VINA RESULT:      -5.9      2.017      3.479
REMARK  Name = 
REMARK  4 active torsions:
REMARK  status: ('A' for Active; 'I' for Inactive)
REMARK    1  A    between atoms: C_1  and  C_2
REMARK    2  A    between atoms: C_4  and  C_5
REMARK    3  A    between atoms: C_10  and  C_11
REMARK    4  A    between atoms: C_11  and  O_13
REMARK                            x       y       z     vdW  Elec       q    Type
REMARK                         _______ _______ _______ _____ _____    ______ ____
ROOT
ATOM      1  C   UNL     1       4.752   6.832  16.929  0.00  0.00    +0.000 C 
ATOM      2  C   UNL     1       4.286   5.830  17.956  0.00  0.00    +0.000 A 
ATOM      3  C   UNL     1       3.181   6.163  18.752  0.00  0.00    +0.000 A 
ATOM      4  C   UNL     1       2.714   5.288  19.741  0.00  0.00    +0.000 A 
ATOM      5  C   UNL     1       1.540   5.614  20.606  0.00  0.00    +0.000 C 
ATOM      6  N   UNL     1       3.352   4.073  19.947  0.00  0.00    +0.000 N 
ATOM      7  O   UNL     1       2.950   3.237  20.831  0.00  0.00    +0.000 OA
ATOM      8  C   UNL     1       4.468   3.721  19.158  0.00  0.00    +0.000 A 
ATOM      9  N   UNL     1       5.099   2.473  19.453  0.00  0.00    +0.000 N 
ATOM     10  C   UNL     1       4.933   4.592  18.156  0.00  0.00    +0.000 A 
ATOM     11  H   UNL     1       4.525   2.089  20.227  0.00  0.00    +0.000 HD
ATOM     12  H   UNL     1       5.031   1.833  18.656  0.00  0.00    +0.000 HD
ENDROOT
BRANCH  10  13
ATOM     13  C   UNL     1       6.106   4.208  17.318  0.00  0.00    +0.000 C 
ATOM     14  O   UNL     1       6.022   3.912  16.140  0.00  0.00    +0.000 OA
BRANCH  13  15
ATOM     15  O   UNL     1       7.289   4.240  17.971  0.00  0.00    +0.000 OA
ATOM     16  H   UNL     1       7.196   4.275  18.953  0.00  0.00    +0.000 HD
ENDBRANCH  13  15
ENDBRANCH  10  13
TORSDOF 2
ENDMDL
