MODEL 1
REMARK VINA RESULT:      -7.3      0.000      0.000
REMARK  Name = 
REMARK  6 active torsions:
REMARK  status: ('A' for Active; 'I' for Inactive)
REMARK    1  A    between atoms: C_1  and  N_2
REMARK    2  A    between atoms: C_4  and  C_5
REMARK    3  A    between atoms: N_7  and  C_8
REMARK    4  A    between atoms: N_7  and  C_14
REMARK    5  A    between atoms: C_8  and  C_9
REMARK    6  A    between atoms: C_14  and  C_15
REMARK                            x       y       z     vdW  Elec       q    Type
REMARK                         _______ _______ _______ _____ _____    ______ ____
ROOT
ATOM      1  C   UNL     1       3.930   6.262  18.401  0.00  0.00    +0.000 C 
ATOM      2  O   UNL     1       5.103   6.644  18.309  0.00  0.00    +0.000 OA
ATOM      3  N   UNL     1       3.611   4.916  18.226  0.00  0.00    +0.000 N 
ENDROOT
BRANCH   1   7
ATOM      4  C   UNL     1       0.596   8.563  21.305  0.00  0.00    +0.000 C 
ATOM      5  N   UNL     1       1.307   8.517  20.037  0.00  0.00    +0.000 N 
ATOM      6  C   UNL     1       2.275   7.549  19.842  0.00  0.00    +0.000 A 
ATOM      7  C   UNL     1       2.883   7.336  18.662  0.00  0.00    +0.000 A 
ATOM      8  C   UNL     1       2.607   8.314  17.610  0.00  0.00    +0.000 A 
ATOM      9  C   UNL     1       1.694   9.285  17.767  0.00  0.00    +0.000 A 
ATOM     10  C   UNL     1       0.919   9.389  19.028  0.00  0.00    +0.000 A 
ATOM     11  O   UNL     1       0.019  10.216  19.126  0.00  0.00    +0.000 OA
ENDBRANCH   1   7
BRANCH   3  12
ATOM     12  C   UNL     1       2.274   4.319  18.201  0.00  0.00    +0.000 C 
BRANCH  12  13
ATOM     13  C   UNL     1       1.865   3.787  19.541  0.00  0.00    +0.000 A 
ATOM     14  C   UNL     1       0.973   2.831  19.995  0.00  0.00    +0.000 A 
ATOM     15  C   UNL     1       1.234   2.654  21.377  0.00  0.00    +0.000 A 
ATOM     16  C   UNL     1       2.237   3.539  21.692  0.00  0.00    +0.000 A 
ATOM     17  O   UNL     1       2.624   4.228  20.591  0.00  0.00    +0.000 OA
ENDBRANCH  12  13
ENDBRANCH   3  12
BRANCH   3  18
ATOM     18  C   UNL     1       4.717   3.979  17.981  0.00  0.00    +0.000 C 
BRANCH  18  19
ATOM     19  C   UNL     1       5.373   4.219  16.641  0.00  0.00    +0.000 A 
ATOM     20  C   UNL     1       4.795   4.303  15.388  0.00  0.00    +0.000 A 
ATOM     21  C   UNL     1       5.739   4.629  14.368  0.00  0.00    +0.000 A 
ATOM     22  C   UNL     1       7.011   4.782  14.871  0.00  0.00    +0.000 A 
ATOM     23  S   UNL     1       7.063   4.535  16.562  0.00  0.00    +0.000 S 
ENDBRANCH  18  19
ENDBRANCH   3  18
TORSDOF 5
ENDMDL
MODEL 2
REMARK VINA RESULT:      -7.2      1.458      1.929
REMARK  Name = 
REMARK  6 active torsions:
REMARK  status: ('A' for Active; 'I' for Inactive)
REMARK    1  A    between atoms: C_1  and  N_2
REMARK    2  A    between atoms: C_4  and  C_5
REMARK    3  A    between atoms: N_7  and  C_8
REMARK    4  A    between atoms: N_7  and  C_14
REMARK    5  A    between atoms: C_8  and  C_9
REMARK    6  A    between atoms: C_14  and  C_15
REMARK                            x       y       z     vdW  Elec       q    Type
REMARK                         _______ _______ _______ _____ _____    ______ ____
ROOT
ATOM      1  C   UNL     1       3.224   7.080  17.871  0.00  0.00    +0.000 C 
ATOM      2  O   UNL     1       4.208   7.625  17.358  0.00  0.00    +0.000 OA
ATOM      3  N   UNL     1       3.065   5.697  17.797  0.00  0.00    +0.000 N 
ENDROOT
BRANCH   1   7
ATOM      4  C   UNL     1       0.705   8.766  21.829  0.00  0.00    +0.000 C 
ATOM      5  N   UNL     1       1.004   8.888  20.411  0.00  0.00    +0.000 N 
ATOM      6  C   UNL     1       1.960   8.060  19.849  0.00  0.00    +0.000 A 
ATOM      7  C   UNL     1       2.203   7.998  18.528  0.00  0.00    +0.000 A 
ATOM      8  C   UNL     1       1.528   9.000  17.703  0.00  0.00    +0.000 A 
ATOM      9  C   UNL     1       0.614   9.839  18.212  0.00  0.00    +0.000 A 
ATOM     10  C   UNL     1       0.247   9.767  19.647  0.00  0.00    +0.000 A 
ATOM     11  O   UNL     1      -0.659  10.469  20.083  0.00  0.00    +0.000 OA
ENDBRANCH   1   7
BRANCH   3  12
ATOM     12  C   UNL     1       1.918   4.911  18.258  0.00  0.00    +0.000 C 
BRANCH  12  13
ATOM     13  C   UNL     1       2.155   4.298  19.605  0.00  0.00    +0.000 A 
ATOM     14  C   UNL     1       1.718   4.547  20.894  0.00  0.00    +0.000 A 
ATOM     15  C   UNL     1       2.146   3.452  21.686  0.00  0.00    +0.000 A 
ATOM     16  C   UNL     1       2.852   2.625  20.846  0.00  0.00    +0.000 A 
ATOM     17  O   UNL     1       2.864   3.128  19.587  0.00  0.00    +0.000 OA
ENDBRANCH  12  13
ENDBRANCH   3  12
BRANCH   3  18
ATOM     18  C   UNL     1       4.126   4.923  17.135  0.00  0.00    +0.000 C 
BRANCH  18  19
ATOM     19  C   UNL     1       5.457   5.078  17.834  0.00  0.00    +0.000 A 
ATOM     20  C   UNL     1       5.722   5.239  19.181  0.00  0.00    +0.000 A 
ATOM     21  C   UNL     1       7.121   5.264  19.466  0.00  0.00    +0.000 A 
ATOM     22  C   UNL     1       7.883   5.124  18.329  0.00  0.00    +0.000 A 
ATOM     23  S   UNL     1       6.915   4.962  16.928  0.00  0.00    +0.000 S 
ENDBRANCH  18  19
ENDBRANCH   3  18
TORSDOF 5
ENDMDL
MODEL 3
REMARK VINA RESULT:      -7.2      1.986      2.415
REMARK  Name = 
REMARK  6 active torsions:
REMARK  status: ('A' for Active; 'I' for Inactive)
REMARK    1  A    between atoms: C_1  and  N_2
REMARK    2  A    between atoms: C_4  and  C_5
REMARK    3  A    between atoms: N_7  and  C_8
REMARK    4  A    between atoms: N_7  and  C_14
REMARK    5  A    between atoms: C_8  and  C_9
REMARK    6  A    between atoms: C_14  and  C_15
REMARK                            x       y       z     vdW  Elec       q    Type
REMARK                         _______ _______ _______ _____ _____    ______ ____
ROOT
ATOM      1  C   UNL     1       2.715   7.723  17.957  0.00  0.00    +0.000 C 
ATOM      2  O   UNL     1       3.051   8.183  16.860  0.00  0.00    +0.000 OA
ATOM      3  N   UNL     1       3.168   6.469  18.365  0.00  0.00    +0.000 N 
ENDROOT
BRANCH   1   7
ATOM      4  C   UNL     1       0.718   9.155  22.294  0.00  0.00    +0.000 C 
ATOM      5  N   UNL     1       0.807   9.339  20.854  0.00  0.00    +0.000 N 
ATOM      6  C   UNL     1       1.705   8.576  20.131  0.00  0.00    +0.000 A 
ATOM      7  C   UNL     1       1.761   8.571  18.788  0.00  0.00    +0.000 A 
ATOM      8  C   UNL     1       0.936   9.568  18.106  0.00  0.00    +0.000 A 
ATOM      9  C   UNL     1       0.071  10.347  18.772  0.00  0.00    +0.000 A 
ATOM     10  C   UNL     1      -0.086  10.209  20.241  0.00  0.00    +0.000 A 
ATOM     11  O   UNL     1      -0.948  10.854  20.828  0.00  0.00    +0.000 OA
ENDBRANCH   1   7
BRANCH   3  12
ATOM     12  C   UNL     1       2.786   5.740  19.577  0.00  0.00    +0.000 C 
BRANCH  12  13
ATOM     13  C   UNL     1       2.314   4.350  19.277  0.00  0.00    +0.000 A 
ATOM     14  C   UNL     1       1.298   3.793  18.520  0.00  0.00    +0.000 A 
ATOM     15  C   UNL     1       1.539   2.396  18.480  0.00  0.00    +0.000 A 
ATOM     16  C   UNL     1       2.658   2.180  19.249  0.00  0.00    +0.000 A 
ATOM     17  O   UNL     1       3.133   3.353  19.734  0.00  0.00    +0.000 OA
ENDBRANCH  12  13
ENDBRANCH   3  12
BRANCH   3  18
ATOM     18  C   UNL     1       4.087   5.752  17.469  0.00  0.00    +0.000 C 
BRANCH  18  19
ATOM     19  C   UNL     1       5.533   6.062  17.779  0.00  0.00    +0.000 A 
ATOM     20  C   UNL     1       6.359   7.021  17.221  0.00  0.00    +0.000 A 
ATOM     21  C   UNL     1       7.644   7.067  17.840  0.00  0.00    +0.000 A 
ATOM     22  C   UNL     1       7.764   6.141  18.851  0.00  0.00    +0.000 A 
ATOM     23  S   UNL     1       6.334   5.224  19.050  0.00  0.00    +0.000 S 
ENDBRANCH  18  19
ENDBRANCH   3  18
TORSDOF 5
ENDMDL
MODEL 4
REMARK VINA RESULT:      -7.0      2.089      2.782
REMARK  Name = 
REMARK  6 active torsions:
REMARK  status: ('A' for Active; 'I' for Inactive)
REMARK    1  A    between atoms: C_1  and  N_2
REMARK    2  A    between atoms: C_4  and  C_5
REMARK    3  A    between atoms: N_7  and  C_8
REMARK    4  A    between atoms: N_7  and  C_14
REMARK    5  A    between atoms: C_8  and  C_9
REMARK    6  A    between atoms: C_14  and  C_15
REMARK                            x       y       z     vdW  Elec       q    Type
REMARK                         _______ _______ _______ _____ _____    ______ ____
ROOT
ATOM      1  C   UNL     1       2.603   7.773  18.258  0.00  0.00    +0.000 C 
ATOM      2  O   UNL     1       2.839   8.324  17.176  0.00  0.00    +0.000 OA
ATOM      3  N   UNL     1       3.106   6.501  18.527  0.00  0.00    +0.000 N 
ENDROOT
BRANCH   1   7
ATOM      4  C   UNL     1      -0.571  11.449  19.381  0.00  0.00    +0.000 C 
ATOM      5  N   UNL     1       0.134  10.251  19.809  0.00  0.00    +0.000 N 
ATOM      6  C   UNL     1       0.912   9.563  18.896  0.00  0.00    +0.000 A 
ATOM      7  C   UNL     1       1.710   8.534  19.229  0.00  0.00    +0.000 A 
ATOM      8  C   UNL     1       1.581   8.037  20.598  0.00  0.00    +0.000 A 
ATOM      9  C   UNL     1       0.817   8.658  21.509  0.00  0.00    +0.000 A 
ATOM     10  C   UNL     1       0.078   9.893  21.151  0.00  0.00    +0.000 A 
ATOM     11  O   UNL     1      -0.539  10.510  22.014  0.00  0.00    +0.000 OA
ENDBRANCH   1   7
BRANCH   3  12
ATOM     12  C   UNL     1       2.838   5.672  19.705  0.00  0.00    +0.000 C 
BRANCH  12  13
ATOM     13  C   UNL     1       2.360   4.301  19.336  0.00  0.00    +0.000 A 
ATOM     14  C   UNL     1       1.295   3.785  18.620  0.00  0.00    +0.000 A 
ATOM     15  C   UNL     1       1.548   2.400  18.454  0.00  0.00    +0.000 A 
ATOM     16  C   UNL     1       2.727   2.146  19.113  0.00  0.00    +0.000 A 
ATOM     17  O   UNL     1       3.225   3.287  19.650  0.00  0.00    +0.000 OA
ENDBRANCH  12  13
ENDBRANCH   3  12
BRANCH   3  18
ATOM     18  C   UNL     1       3.958   5.875  17.505  0.00  0.00    +0.000 C 
BRANCH  18  19
ATOM     19  C   UNL     1       5.424   6.146  17.748  0.00  0.00    +0.000 A 
ATOM     20  C   UNL     1       6.242   7.102  17.176  0.00  0.00    +0.000 A 
ATOM     21  C   UNL     1       7.558   7.103  17.729  0.00  0.00    +0.000 A 
ATOM     22  C   UNL     1       7.708   6.146  18.707  0.00  0.00    +0.000 A 
ATOM     23  S   UNL     1       6.269   5.255  18.954  0.00  0.00    +0.000 S 
ENDBRANCH  18  19
ENDBRANCH   3  18
TORSDOF 5
ENDMDL
MODEL 5
REMARK VINA RESULT:      -7.0      1.711      2.434
REMARK  Name = 
REMARK  6 active torsions:
REMARK  status: ('A' for Active; 'I' for Inactive)
REMARK    1  A    between atoms: C_1  and  N_2
REMARK    2  A    between atoms: C_4  and  C_5
REMARK    3  A    between atoms: N_7  and  C_8
REMARK    4  A    between atoms: N_7  and  C_14
REMARK    5  A    between atoms: C_8  and  C_9
REMARK    6  A    between atoms: C_14  and  C_15
REMARK                            x       y       z     vdW  Elec       q    Type
REMARK                         _______ _______ _______ _____ _____    ______ ____
ROOT
ATOM      1  C   UNL     1       3.238   6.669  18.012  0.00  0.00    +0.000 C 
ATOM      2  O   UNL     1       4.382   7.021  17.704  0.00  0.00    +0.000 OA
ATOM      3  N   UNL     1       2.820   5.357  17.789  0.00  0.00    +0.000 N 
ENDROOT
BRANCH   1   7
ATOM      4  C   UNL     1       0.822   8.846  21.790  0.00  0.00    +0.000 C 
ATOM      5  N   UNL     1       1.189   8.865  20.382  0.00  0.00    +0.000 N 
ATOM      6  C   UNL     1       2.043   7.894  19.895  0.00  0.00    +0.000 A 
ATOM      7  C   UNL     1       2.327   7.743  18.589  0.00  0.00    +0.000 A 
ATOM      8  C   UNL     1       1.827   8.790  17.698  0.00  0.00    +0.000 A 
ATOM      9  C   UNL     1       1.016   9.765  18.135  0.00  0.00    +0.000 A 
ATOM     10  C   UNL     1       0.587   9.805  19.554  0.00  0.00    +0.000 A 
ATOM     11  O   UNL     1      -0.231  10.641  19.924  0.00  0.00    +0.000 OA
ENDBRANCH   1   7
BRANCH   3  12
ATOM     12  C   UNL     1       1.478   4.807  18.000  0.00  0.00    +0.000 C 
BRANCH  12  13
ATOM     13  C   UNL     1       1.341   4.142  19.335  0.00  0.00    +0.000 A 
ATOM     14  C   UNL     1       0.807   2.952  19.796  0.00  0.00    +0.000 A 
ATOM     15  C   UNL     1       1.205   2.825  21.151  0.00  0.00    +0.000 A 
ATOM     16  C   UNL     1       1.919   3.961  21.447  0.00  0.00    +0.000 A 
ATOM     17  O   UNL     1       2.007   4.763  20.358  0.00  0.00    +0.000 OA
ENDBRANCH  12  13
ENDBRANCH   3  12
BRANCH   3  18
ATOM     18  C   UNL     1       3.799   4.416  17.227  0.00  0.00    +0.000 C 
BRANCH  18  19
ATOM     19  C   UNL     1       4.130   3.302  18.193  0.00  0.00    +0.000 A 
ATOM     20  C   UNL     1       4.796   3.366  19.403  0.00  0.00    +0.000 A 
ATOM     21  C   UNL     1       4.840   2.106  20.073  0.00  0.00    +0.000 A 
ATOM     22  C   UNL     1       4.208   1.116  19.355  0.00  0.00    +0.000 A 
ATOM     23  S   UNL     1       3.567   1.706  17.883  0.00  0.00    +0.000 S 
ENDBRANCH  18  19
ENDBRANCH   3  18
TORSDOF 5
ENDMDL
MODEL 6
REMARK VINA RESULT:      -6.7      1.595      2.376
REMARK  Name = 
REMARK  6 active torsions:
REMARK  status: ('A' for Active; 'I' for Inactive)
REMARK    1  A    between atoms: C_1  and  N_2
REMARK    2  A    between atoms: C_4  and  C_5
REMARK    3  A    between atoms: N_7  and  C_8
REMARK    4  A    between atoms: N_7  and  C_14
REMARK    5  A    between atoms: C_8  and  C_9
REMARK    6  A    between atoms: C_14  and  C_15
REMARK                            x       y       z     vdW  Elec       q    Type
REMARK                         _______ _______ _______ _____ _____    ______ ____
ROOT
ATOM      1  C   UNL     1       3.109   7.210  18.026  0.00  0.00    +0.000 C 
ATOM      2  O   UNL     1       4.071   7.804  17.525  0.00  0.00    +0.000 OA
ATOM      3  N   UNL     1       2.976   5.830  17.874  0.00  0.00    +0.000 N 
ENDROOT
BRANCH   1   7
ATOM      4  C   UNL     1      -0.473  10.675  18.136  0.00  0.00    +0.000 C 
ATOM      5  N   UNL     1       0.314   9.688  18.858  0.00  0.00    +0.000 N 
ATOM      6  C   UNL     1       1.215   8.902  18.162  0.00  0.00    +0.000 A 
ATOM      7  C   UNL     1       2.085   8.067  18.756  0.00  0.00    +0.000 A 
ATOM      8  C   UNL     1       1.914   7.880  20.197  0.00  0.00    +0.000 A 
ATOM      9  C   UNL     1       1.034   8.602  20.906  0.00  0.00    +0.000 A 
ATOM     10  C   UNL     1       0.204   9.637  20.242  0.00  0.00    +0.000 A 
ATOM     11  O   UNL     1      -0.525  10.360  20.913  0.00  0.00    +0.000 OA
ENDBRANCH   1   7
BRANCH   3  12
ATOM     12  C   UNL     1       1.854   4.995  18.312  0.00  0.00    +0.000 C 
BRANCH  12  13
ATOM     13  C   UNL     1       2.142   4.292  19.603  0.00  0.00    +0.000 A 
ATOM     14  C   UNL     1       1.714   4.417  20.913  0.00  0.00    +0.000 A 
ATOM     15  C   UNL     1       2.206   3.286  21.612  0.00  0.00    +0.000 A 
ATOM     16  C   UNL     1       2.938   2.563  20.700  0.00  0.00    +0.000 A 
ATOM     17  O   UNL     1       2.906   3.162  19.485  0.00  0.00    +0.000 OA
ENDBRANCH  12  13
ENDBRANCH   3  12
BRANCH   3  18
ATOM     18  C   UNL     1       4.036   5.119  17.147  0.00  0.00    +0.000 C 
BRANCH  18  19
ATOM     19  C   UNL     1       5.375   5.244  17.836  0.00  0.00    +0.000 A 
ATOM     20  C   UNL     1       5.662   5.266  19.189  0.00  0.00    +0.000 A 
ATOM     21  C   UNL     1       7.065   5.310  19.452  0.00  0.00    +0.000 A 
ATOM     22  C   UNL     1       7.808   5.322  18.294  0.00  0.00    +0.000 A 
ATOM     23  S   UNL     1       6.818   5.280  16.900  0.00  0.00    +0.000 S 
ENDBRANCH  18  19
ENDBRANCH   3  18
TORSDOF 5
ENDMDL
MODEL 7
REMARK VINA RESULT:      -6.7      2.004      2.696
REMARK  Name = 
REMARK  6 active torsions:
REMARK  status: ('A' for Active; 'I' for Inactive)
REMARK    1  A    between atoms: C_1  and  N_2
REMARK    2  A    between atoms: C_4  and  C_5
REMARK    3  A    between atoms: N_7  and  C_8
REMARK    4  A    between atoms: N_7  and  C_14
REMARK    5  A    between atoms: C_8  and  C_9
REMARK    6  A    between atoms: C_14  and  C_15
REMARK                            x       y       z     vdW  Elec       q    Type
REMARK                         _______ _______ _______ _____ _____    ______ ____
ROOT
ATOM      1  C   UNL     1       2.236   7.717  18.561  0.00  0.00    +0.000 C 
ATOM      2  O   UNL     1       2.080   8.121  17.402  0.00  0.00    +0.000 OA
ATOM      3  N   UNL     1       2.901   6.516  18.805  0.00  0.00    +0.000 N 
ENDROOT
BRANCH   1   7
ATOM      4  C   UNL     1       0.388  11.997  20.325  0.00  0.00    +0.000 C 
ATOM      5  N   UNL     1       0.674  10.589  20.550  0.00  0.00    +0.000 N 
ATOM      6  C   UNL     1       1.198   9.834  19.516  0.00  0.00    +0.000 A 
ATOM      7  C   UNL     1       1.626   8.568  19.666  0.00  0.00    +0.000 A 
ATOM      8  C   UNL     1       1.340   7.941  20.956  0.00  0.00    +0.000 A 
ATOM      9  C   UNL     1       0.809   8.630  21.977  0.00  0.00    +0.000 A 
ATOM     10  C   UNL     1       0.501  10.074  21.828  0.00  0.00    +0.000 A 
ATOM     11  O   UNL     1       0.109  10.719  22.795  0.00  0.00    +0.000 OA
ENDBRANCH   1   7
BRANCH   3  12
ATOM     12  C   UNL     1       3.079   5.850  20.098  0.00  0.00    +0.000 C 
BRANCH  12  13
ATOM     13  C   UNL     1       2.301   4.572  20.188  0.00  0.00    +0.000 A 
ATOM     14  C   UNL     1       0.960   4.230  20.201  0.00  0.00    +0.000 A 
ATOM     15  C   UNL     1       0.899   2.819  20.079  0.00  0.00    +0.000 A 
ATOM     16  C   UNL     1       2.202   2.382  20.043  0.00  0.00    +0.000 A 
ATOM     17  O   UNL     1       3.056   3.433  20.109  0.00  0.00    +0.000 OA
ENDBRANCH  12  13
ENDBRANCH   3  12
BRANCH   3  18
ATOM     18  C   UNL     1       3.444   5.789  17.649  0.00  0.00    +0.000 C 
BRANCH  18  19
ATOM     19  C   UNL     1       4.948   5.663  17.717  0.00  0.00    +0.000 A 
ATOM     20  C   UNL     1       5.717   4.571  18.076  0.00  0.00    +0.000 A 
ATOM     21  C   UNL     1       7.116   4.814  17.933  0.00  0.00    +0.000 A 
ATOM     22  C   UNL     1       7.376   6.084  17.470  0.00  0.00    +0.000 A 
ATOM     23  S   UNL     1       5.939   6.975  17.211  0.00  0.00    +0.000 S 
ENDBRANCH  18  19
ENDBRANCH   3  18
TORSDOF 5
ENDMDL
MODEL 8
REMARK VINA RESULT:      -6.7      2.472      4.460
REMARK  Name = 
REMARK  6 active torsions:
REMARK  status: ('A' for Active; 'I' for Inactive)
REMARK    1  A    between atoms: C_1  and  N_2
REMARK    2  A    between atoms: C_4  and  C_5
REMARK    3  A    between atoms: N_7  and  C_8
REMARK    4  A    between atoms: N_7  and  C_14
REMARK    5  A    between atoms: C_8  and  C_9
REMARK    6  A    between atoms: C_14  and  C_15
REMARK                            x       y       z     vdW  Elec       q    Type
REMARK                         _______ _______ _______ _____ _____    ______ ____
ROOT
ATOM      1  C   UNL     1       4.241   4.285  17.359  0.00  0.00    +0.000 C 
ATOM      2  O   UNL     1       4.024   3.089  17.585  0.00  0.00    +0.000 OA
ATOM      3  N   UNL     1       5.180   4.662  16.400  0.00  0.00    +0.000 N 
ENDROOT
BRANCH   1   7
ATOM      4  C   UNL     1       2.111   8.732  18.092  0.00  0.00    +0.000 C 
ATOM      5  N   UNL     1       2.381   7.394  18.593  0.00  0.00    +0.000 N 
ATOM      6  C   UNL     1       3.054   6.494  17.786  0.00  0.00    +0.000 A 
ATOM      7  C   UNL     1       3.473   5.289  18.208  0.00  0.00    +0.000 A 
ATOM      8  C   UNL     1       3.019   4.879  19.537  0.00  0.00    +0.000 A 
ATOM      9  C   UNL     1       2.342   5.711  20.342  0.00  0.00    +0.000 A 
ATOM     10  C   UNL     1       2.040   7.097  19.906  0.00  0.00    +0.000 A 
ATOM     11  O   UNL     1       1.508   7.882  20.685  0.00  0.00    +0.000 OA
ENDBRANCH   1   7
BRANCH   3  12
ATOM     12  C   UNL     1       5.628   6.021  16.085  0.00  0.00    +0.000 C 
BRANCH  12  13
ATOM     13  C   UNL     1       6.573   6.560  17.115  0.00  0.00    +0.000 A 
ATOM     14  C   UNL     1       7.264   6.034  18.193  0.00  0.00    +0.000 A 
ATOM     15  C   UNL     1       8.169   7.037  18.624  0.00  0.00    +0.000 A 
ATOM     16  C   UNL     1       7.948   8.125  17.814  0.00  0.00    +0.000 A 
ATOM     17  O   UNL     1       6.986   7.847  16.900  0.00  0.00    +0.000 OA
ENDBRANCH  12  13
ENDBRANCH   3  12
BRANCH   3  18
ATOM     18  C   UNL     1       5.852   3.594  15.647  0.00  0.00    +0.000 C 
BRANCH  18  19
ATOM     19  C   UNL     1       6.441   4.101  14.351  0.00  0.00    +0.000 A 
ATOM     20  C   UNL     1       7.512   4.954  14.153  0.00  0.00    +0.000 A 
ATOM     21  C   UNL     1       7.825   5.132  12.772  0.00  0.00    +0.000 A 
ATOM     22  C   UNL     1       6.983   4.412  11.954  0.00  0.00    +0.000 A 
ATOM     23  S   UNL     1       5.825   3.528  12.850  0.00  0.00    +0.000 S 
ENDBRANCH  18  19
ENDBRANCH   3  18
TORSDOF 5
ENDMDL
MODEL 9
REMARK VINA RESULT:      -6.5      2.014      4.128
REMARK  Name = 
REMARK  6 active torsions:
REMARK  status: ('A' for Active; 'I' for Inactive)
REMARK    1  A    between atoms: C_1  and  N_2
REMARK    2  A    between atoms: C_4  and  C_5
REMARK    3  A    between atoms: N_7  and  C_8
REMARK    4  A    between atoms: N_7  and  C_14
REMARK    5  A    between atoms: C_8  and  C_9
REMARK    6  A    between atoms: C_14  and  C_15
REMARK                            x       y       z     vdW  Elec       q    Type
REMARK                         _______ _______ _______ _____ _____    ______ ____
ROOT
ATOM      1  C   UNL     1       3.050   6.396  19.423  0.00  0.00    +0.000 C 
ATOM      2  O   UNL     1       2.733   5.613  20.326  0.00  0.00    +0.000 OA
ATOM      3  N   UNL     1       4.170   6.143  18.632  0.00  0.00    +0.000 N 
ENDROOT
BRANCH   1   7
ATOM      4  C   UNL     1       0.088   9.966  21.247  0.00  0.00    +0.000 C 
ATOM      5  N   UNL     1       0.806   9.419  20.107  0.00  0.00    +0.000 N 
ATOM      6  C   UNL     1       1.604   8.304  20.284  0.00  0.00    +0.000 A 
ATOM      7  C   UNL     1       2.191   7.643  19.270  0.00  0.00    +0.000 A 
ATOM      8  C   UNL     1       2.099   8.274  17.954  0.00  0.00    +0.000 A 
ATOM      9  C   UNL     1       1.358   9.372  17.743  0.00  0.00    +0.000 A 
ATOM     10  C   UNL     1       0.586   9.980  18.855  0.00  0.00    +0.000 A 
ATOM     11  O   UNL     1      -0.166  10.923  18.634  0.00  0.00    +0.000 OA
ENDBRANCH   1   7
BRANCH   3  12
ATOM     12  C   UNL     1       4.738   7.012  17.598  0.00  0.00    +0.000 C 
BRANCH  12  13
ATOM     13  C   UNL     1       5.623   6.261  16.650  0.00  0.00    +0.000 A 
ATOM     14  C   UNL     1       6.941   5.838  16.654  0.00  0.00    +0.000 A 
ATOM     15  C   UNL     1       7.095   4.975  15.540  0.00  0.00    +0.000 A 
ATOM     16  C   UNL     1       5.878   4.956  14.901  0.00  0.00    +0.000 A 
ATOM     17  O   UNL     1       4.983   5.730  15.563  0.00  0.00    +0.000 OA
ENDBRANCH  12  13
ENDBRANCH   3  12
BRANCH   3  18
ATOM     18  C   UNL     1       4.915   4.901  18.881  0.00  0.00    +0.000 C 
BRANCH  18  19
ATOM     19  C   UNL     1       4.086   3.675  18.576  0.00  0.00    +0.000 A 
ATOM     20  C   UNL     1       3.285   3.413  17.480  0.00  0.00    +0.000 A 
ATOM     21  C   UNL     1       2.726   2.100  17.508  0.00  0.00    +0.000 A 
ATOM     22  C   UNL     1       3.115   1.397  18.626  0.00  0.00    +0.000 A 
ATOM     23  S   UNL     1       4.147   2.318  19.632  0.00  0.00    +0.000 S 
ENDBRANCH  18  19
ENDBRANCH   3  18
TORSDOF 5
ENDMDL
