MODEL 1
REMARK VINA RESULT:      -6.1      0.000      0.000
REMARK  Name = 
REMARK  9 active torsions:
REMARK  status: ('A' for Active; 'I' for Inactive)
REMARK    1  A    between atoms: C_2  and  C_3
REMARK    2  A    between atoms: C_3  and  C_4
REMARK    3  A    between atoms: C_6  and  O_7
REMARK    4  A    between atoms: C_8  and  C_9
REMARK    5  A    between atoms: C_10  and  C_11
REMARK    6  A    between atoms: C_21  and  C_22
REMARK    7  A    between atoms: C_23  and  O_24
REMARK    8  A    between atoms: O_24  and  C_25
REMARK    9  A    between atoms: C_25  and  C_27
REMARK                            x       y       z     vdW  Elec       q    Type
REMARK                         _______ _______ _______ _____ _____    ______ ____
ROOT
ATOM      1  C   UNL     1      -4.323  13.426  20.880  0.00  0.00    +0.000 C 
ATOM      2  C   UNL     1      -5.373  12.497  21.618  0.00  0.00    +0.000 C 
ATOM      3  C   UNL     1      -3.889  14.290  22.114  0.00  0.00    +0.000 C 
ATOM      4  C   UNL     1      -2.684  15.085  21.814  0.00  0.00    +0.000 C 
ATOM      5  C   UNL     1      -1.332  14.550  22.435  0.00  0.00    +0.000 C 
ATOM      6  C   UNL     1      -1.407  14.480  23.965  0.00  0.00    +0.000 C 
ATOM      7  C   UNL     1      -0.354  15.690  21.875  0.00  0.00    +0.000 C 
ATOM      8  C   UNL     1      -0.448  16.268  20.407  0.00  0.00    +0.000 C 
ATOM      9  C   UNL     1       1.040  15.198  21.986  0.00  0.00    +0.000 C 
ATOM     10  C   UNL     1       1.167  13.895  21.201  0.00  0.00    +0.000 C 
ATOM     11  C   UNL     1      -0.107  12.952  20.871  0.00  0.00    +0.000 C 
ATOM     12  C   UNL     1       0.659  11.580  20.801  0.00  0.00    +0.000 C 
ATOM     13  C   UNL     1      -0.072  10.661  21.680  0.00  0.00    +0.000 C 
ATOM     14  C   UNL     1       0.095   9.327  21.604  0.00  0.00    +0.000 C 
ATOM     15  C   UNL     1      -0.939  11.520  22.576  0.00  0.00    +0.000 C 
ATOM     16  O   UNL     1      -1.725  11.017  23.368  0.00  0.00    +0.000 OA
ATOM     17  C   UNL     1      -0.947  13.027  22.106  0.00  0.00    +0.000 C 
ATOM     18  C   UNL     1      -1.323  13.139  19.695  0.00  0.00    +0.000 C 
ATOM     19  C   UNL     1      -0.647  12.893  18.322  0.00  0.00    +0.000 C 
ATOM     20  C   UNL     1      -3.017  12.520  20.064  0.00  0.00    +0.000 C 
ENDROOT
BRANCH   1  22
ATOM     21  C   UNL     1      -6.428  14.151  19.492  0.00  0.00    +0.000 C 
ATOM     22  C   UNL     1      -5.245  14.363  20.071  0.00  0.00    +0.000 C 
ENDBRANCH   1  22
BRANCH   4  23
ATOM     23  O   UNL     1      -2.932  16.452  22.172  0.00  0.00    +0.000 OA
ATOM     24  H   UNL     1      -2.969  16.476  23.148  0.00  0.00    +0.000 HD
ENDBRANCH   4  23
BRANCH  20  25
ATOM     25  O   UNL     1      -3.524  11.411  19.300  0.00  0.00    +0.000 OA
BRANCH  25  26
ATOM     26  C   UNL     1      -3.713  11.402  17.969  0.00  0.00    +0.000 C 
ATOM     27  O   UNL     1      -4.456  12.165  17.378  0.00  0.00    +0.000 OA
BRANCH  26  28
ATOM     28  C   UNL     1      -2.800  10.336  17.336  0.00  0.00    +0.000 C 
ATOM     29  F   UNL     1      -3.470   9.211  16.944  0.00  0.00    +0.000 F 
ATOM     30  F   UNL     1      -2.155  10.789  16.223  0.00  0.00    +0.000 F 
ATOM     31  F   UNL     1      -1.835   9.918  18.200  0.00  0.00    +0.000 F 
ENDBRANCH  26  28
ENDBRANCH  25  26
ENDBRANCH  20  25
TORSDOF 5
ENDMDL
MODEL 2
REMARK VINA RESULT:      -6.1      1.333      1.731
REMARK  Name = 
REMARK  9 active torsions:
REMARK  status: ('A' for Active; 'I' for Inactive)
REMARK    1  A    between atoms: C_2  and  C_3
REMARK    2  A    between atoms: C_3  and  C_4
REMARK    3  A    between atoms: C_6  and  O_7
REMARK    4  A    between atoms: C_8  and  C_9
REMARK    5  A    between atoms: C_10  and  C_11
REMARK    6  A    between atoms: C_21  and  C_22
REMARK    7  A    between atoms: C_23  and  O_24
REMARK    8  A    between atoms: O_24  and  C_25
REMARK    9  A    between atoms: C_25  and  C_27
REMARK                            x       y       z     vdW  Elec       q    Type
REMARK                         _______ _______ _______ _____ _____    ______ ____
ROOT
ATOM      1  C   UNL     1      -5.511  13.447  20.481  0.00  0.00    +0.000 C 
ATOM      2  C   UNL     1      -6.585  12.385  20.958  0.00  0.00    +0.000 C 
ATOM      3  C   UNL     1      -5.664  14.461  21.667  0.00  0.00    +0.000 C 
ATOM      4  C   UNL     1      -4.572  15.452  21.669  0.00  0.00    +0.000 C 
ATOM      5  C   UNL     1      -3.443  15.234  22.753  0.00  0.00    +0.000 C 
ATOM      6  C   UNL     1      -4.019  15.255  24.175  0.00  0.00    +0.000 C 
ATOM      7  C   UNL     1      -2.529  16.501  22.394  0.00  0.00    +0.000 C 
ATOM      8  C   UNL     1      -2.212  16.947  20.911  0.00  0.00    +0.000 C 
ATOM      9  C   UNL     1      -1.195  16.297  23.008  0.00  0.00    +0.000 C 
ATOM     10  C   UNL     1      -0.603  14.993  22.480  0.00  0.00    +0.000 C 
ATOM     11  C   UNL     1      -1.523  13.800  21.884  0.00  0.00    +0.000 C 
ATOM     12  C   UNL     1      -0.568  12.601  22.240  0.00  0.00    +0.000 C 
ATOM     13  C   UNL     1      -1.397  11.620  22.950  0.00  0.00    +0.000 C 
ATOM     14  C   UNL     1      -1.002  10.342  23.105  0.00  0.00    +0.000 C 
ATOM     15  C   UNL     1      -2.642  12.354  23.402  0.00  0.00    +0.000 C 
ATOM     16  O   UNL     1      -3.557  11.764  23.959  0.00  0.00    +0.000 OA
ATOM     17  C   UNL     1      -2.731  13.795  22.764  0.00  0.00    +0.000 C 
ATOM     18  C   UNL     1      -2.281  13.667  20.366  0.00  0.00    +0.000 C 
ATOM     19  C   UNL     1      -1.151  13.463  19.325  0.00  0.00    +0.000 C 
ATOM     20  C   UNL     1      -3.878  12.758  20.251  0.00  0.00    +0.000 C 
ENDROOT
BRANCH   1  22
ATOM     21  C   UNL     1      -7.472  13.965  18.818  0.00  0.00    +0.000 C 
ATOM     22  C   UNL     1      -6.242  14.130  19.306  0.00  0.00    +0.000 C 
ENDBRANCH   1  22
BRANCH   4  23
ATOM     23  O   UNL     1      -5.143  16.767  21.749  0.00  0.00    +0.000 OA
ATOM     24  H   UNL     1      -6.097  16.660  21.576  0.00  0.00    +0.000 HD
ENDBRANCH   4  23
BRANCH  20  25
ATOM     25  O   UNL     1      -3.913  11.522  19.514  0.00  0.00    +0.000 OA
BRANCH  25  26
ATOM     26  C   UNL     1      -3.848  11.409  18.176  0.00  0.00    +0.000 C 
ATOM     27  O   UNL     1      -4.564  12.019  17.402  0.00  0.00    +0.000 OA
BRANCH  26  28
ATOM     28  C   UNL     1      -2.700  10.454  17.804  0.00  0.00    +0.000 C 
ATOM     29  F   UNL     1      -3.127   9.215  17.416  0.00  0.00    +0.000 F 
ATOM     30  F   UNL     1      -1.938  10.922  16.774  0.00  0.00    +0.000 F 
ATOM     31  F   UNL     1      -1.853  10.248  18.850  0.00  0.00    +0.000 F 
ENDBRANCH  26  28
ENDBRANCH  25  26
ENDBRANCH  20  25
TORSDOF 5
ENDMDL
MODEL 3
REMARK VINA RESULT:      -5.9      1.663      2.235
REMARK  Name = 
REMARK  9 active torsions:
REMARK  status: ('A' for Active; 'I' for Inactive)
REMARK    1  A    between atoms: C_2  and  C_3
REMARK    2  A    between atoms: C_3  and  C_4
REMARK    3  A    between atoms: C_6  and  O_7
REMARK    4  A    between atoms: C_8  and  C_9
REMARK    5  A    between atoms: C_10  and  C_11
REMARK    6  A    between atoms: C_21  and  C_22
REMARK    7  A    between atoms: C_23  and  O_24
REMARK    8  A    between atoms: O_24  and  C_25
REMARK    9  A    between atoms: C_25  and  C_27
REMARK                            x       y       z     vdW  Elec       q    Type
REMARK                         _______ _______ _______ _____ _____    ______ ____
ROOT
ATOM      1  C   UNL     1      -5.417  13.433  20.316  0.00  0.00    +0.000 C 
ATOM      2  C   UNL     1      -6.453  12.279  20.643  0.00  0.00    +0.000 C 
ATOM      3  C   UNL     1      -5.724  14.357  21.544  0.00  0.00    +0.000 C 
ATOM      4  C   UNL     1      -4.703  15.410  21.691  0.00  0.00    +0.000 C 
ATOM      5  C   UNL     1      -3.646  15.191  22.846  0.00  0.00    +0.000 C 
ATOM      6  C   UNL     1      -4.326  15.086  24.216  0.00  0.00    +0.000 C 
ATOM      7  C   UNL     1      -2.792  16.532  22.635  0.00  0.00    +0.000 C 
ATOM      8  C   UNL     1      -2.396  17.092  21.212  0.00  0.00    +0.000 C 
ATOM      9  C   UNL     1      -1.498  16.370  23.339  0.00  0.00    +0.000 C 
ATOM     10  C   UNL     1      -0.784  15.141  22.782  0.00  0.00    +0.000 C 
ATOM     11  C   UNL     1      -1.576  13.935  22.046  0.00  0.00    +0.000 C 
ATOM     12  C   UNL     1      -0.575  12.777  22.403  0.00  0.00    +0.000 C 
ATOM     13  C   UNL     1      -1.388  11.703  22.987  0.00  0.00    +0.000 C 
ATOM     14  C   UNL     1      -0.924  10.444  23.095  0.00  0.00    +0.000 C 
ATOM     15  C   UNL     1      -2.709  12.330  23.383  0.00  0.00    +0.000 C 
ATOM     16  O   UNL     1      -3.622  11.650  23.830  0.00  0.00    +0.000 OA
ATOM     17  C   UNL     1      -2.844  13.801  22.827  0.00  0.00    +0.000 C 
ATOM     18  C   UNL     1      -2.210  13.855  20.468  0.00  0.00    +0.000 C 
ATOM     19  C   UNL     1      -0.994  13.788  19.509  0.00  0.00    +0.000 C 
ATOM     20  C   UNL     1      -3.731  12.861  20.174  0.00  0.00    +0.000 C 
ENDROOT
BRANCH   1  22
ATOM     21  C   UNL     1      -7.319  14.005  18.601  0.00  0.00    +0.000 C 
ATOM     22  C   UNL     1      -6.102  14.144  19.130  0.00  0.00    +0.000 C 
ENDBRANCH   1  22
BRANCH   4  23
ATOM     23  O   UNL     1      -5.362  16.680  21.805  0.00  0.00    +0.000 OA
ATOM     24  H   UNL     1      -5.868  16.799  20.978  0.00  0.00    +0.000 HD
ENDBRANCH   4  23
BRANCH  20  25
ATOM     25  O   UNL     1      -3.629  11.674  19.365  0.00  0.00    +0.000 OA
BRANCH  25  26
ATOM     26  C   UNL     1      -3.317  11.647  18.057  0.00  0.00    +0.000 C 
ATOM     27  O   UNL     1      -2.192  11.809  17.618  0.00  0.00    +0.000 OA
BRANCH  26  28
ATOM     28  C   UNL     1      -4.580  11.314  17.242  0.00  0.00    +0.000 C 
ATOM     29  F   UNL     1      -4.342  10.476  16.190  0.00  0.00    +0.000 F 
ATOM     30  F   UNL     1      -5.544  10.705  17.991  0.00  0.00    +0.000 F 
ATOM     31  F   UNL     1      -5.150  12.431  16.712  0.00  0.00    +0.000 F 
ENDBRANCH  26  28
ENDBRANCH  25  26
ENDBRANCH  20  25
TORSDOF 5
ENDMDL
MODEL 4
REMARK VINA RESULT:      -5.8      9.174     11.847
REMARK  Name = 
REMARK  9 active torsions:
REMARK  status: ('A' for Active; 'I' for Inactive)
REMARK    1  A    between atoms: C_2  and  C_3
REMARK    2  A    between atoms: C_3  and  C_4
REMARK    3  A    between atoms: C_6  and  O_7
REMARK    4  A    between atoms: C_8  and  C_9
REMARK    5  A    between atoms: C_10  and  C_11
REMARK    6  A    between atoms: C_21  and  C_22
REMARK    7  A    between atoms: C_23  and  O_24
REMARK    8  A    between atoms: O_24  and  C_25
REMARK    9  A    between atoms: C_25  and  C_27
REMARK                            x       y       z     vdW  Elec       q    Type
REMARK                         _______ _______ _______ _____ _____    ______ ____
ROOT
ATOM      1  C   UNL     1       9.447  12.392  20.831  0.00  0.00    +0.000 C 
ATOM      2  C   UNL     1      11.011  12.145  20.872  0.00  0.00    +0.000 C 
ATOM      3  C   UNL     1       9.173  12.315  22.373  0.00  0.00    +0.000 C 
ATOM      4  C   UNL     1       7.818  12.796  22.701  0.00  0.00    +0.000 C 
ATOM      5  C   UNL     1       7.733  14.241  23.335  0.00  0.00    +0.000 C 
ATOM      6  C   UNL     1       8.526  14.326  24.645  0.00  0.00    +0.000 C 
ATOM      7  C   UNL     1       6.143  14.318  23.523  0.00  0.00    +0.000 C 
ATOM      8  C   UNL     1       5.117  13.803  22.437  0.00  0.00    +0.000 C 
ATOM      9  C   UNL     1       5.771  15.738  23.733  0.00  0.00    +0.000 C 
ATOM     10  C   UNL     1       6.249  16.556  22.536  0.00  0.00    +0.000 C 
ATOM     11  C   UNL     1       7.456  16.064  21.574  0.00  0.00    +0.000 C 
ATOM     12  C   UNL     1       7.959  17.485  21.125  0.00  0.00    +0.000 C 
ATOM     13  C   UNL     1       9.406  17.498  21.366  0.00  0.00    +0.000 C 
ATOM     14  C   UNL     1      10.209  18.414  20.794  0.00  0.00    +0.000 C 
ATOM     15  C   UNL     1       9.695  16.354  22.315  0.00  0.00    +0.000 C 
ATOM     16  O   UNL     1      10.842  16.072  22.636  0.00  0.00    +0.000 OA
ATOM     17  C   UNL     1       8.432  15.427  22.510  0.00  0.00    +0.000 C 
ATOM     18  C   UNL     1       7.452  14.896  20.337  0.00  0.00    +0.000 C 
ATOM     19  C   UNL     1       6.622  15.491  19.172  0.00  0.00    +0.000 C 
ATOM     20  C   UNL     1       8.985  13.922  20.033  0.00  0.00    +0.000 C 
ENDROOT
BRANCH   1  22
ATOM     21  C   UNL     1       9.418  10.218  19.363  0.00  0.00    +0.000 C 
ATOM     22  C   UNL     1       8.929  11.043  20.290  0.00  0.00    +0.000 C 
ENDBRANCH   1  22
BRANCH   4  23
ATOM     23  O   UNL     1       7.165  11.814  23.519  0.00  0.00    +0.000 OA
ATOM     24  H   UNL     1       6.270  11.702  23.147  0.00  0.00    +0.000 HD
ENDBRANCH   4  23
BRANCH  20  25
ATOM     25  O   UNL     1       9.687  14.117  18.791  0.00  0.00    +0.000 OA
BRANCH  25  26
ATOM     26  C   UNL     1       9.604  13.316  17.714  0.00  0.00    +0.000 C 
ATOM     27  O   UNL     1       8.556  12.964  17.202  0.00  0.00    +0.000 OA
BRANCH  26  28
ATOM     28  C   UNL     1      11.023  12.988  17.217  0.00  0.00    +0.000 C 
ATOM     29  F   UNL     1      11.304  11.650  17.221  0.00  0.00    +0.000 F 
ATOM     30  F   UNL     1      11.243  13.408  15.938  0.00  0.00    +0.000 F 
ATOM     31  F   UNL     1      11.979  13.576  17.988  0.00  0.00    +0.000 F 
ENDBRANCH  26  28
ENDBRANCH  25  26
ENDBRANCH  20  25
TORSDOF 5
ENDMDL
MODEL 5
REMARK VINA RESULT:      -5.8      9.838     12.570
REMARK  Name = 
REMARK  9 active torsions:
REMARK  status: ('A' for Active; 'I' for Inactive)
REMARK    1  A    between atoms: C_2  and  C_3
REMARK    2  A    between atoms: C_3  and  C_4
REMARK    3  A    between atoms: C_6  and  O_7
REMARK    4  A    between atoms: C_8  and  C_9
REMARK    5  A    between atoms: C_10  and  C_11
REMARK    6  A    between atoms: C_21  and  C_22
REMARK    7  A    between atoms: C_23  and  O_24
REMARK    8  A    between atoms: O_24  and  C_25
REMARK    9  A    between atoms: C_25  and  C_27
REMARK                            x       y       z     vdW  Elec       q    Type
REMARK                         _______ _______ _______ _____ _____    ______ ____
ROOT
ATOM      1  C   UNL     1       8.380  13.113  22.350  0.00  0.00    +0.000 C 
ATOM      2  C   UNL     1       6.834  13.300  22.638  0.00  0.00    +0.000 C 
ATOM      3  C   UNL     1       8.269  11.949  21.306  0.00  0.00    +0.000 C 
ATOM      4  C   UNL     1       9.551  11.725  20.614  0.00  0.00    +0.000 C 
ATOM      5  C   UNL     1       9.643  12.277  19.135  0.00  0.00    +0.000 C 
ATOM      6  C   UNL     1       8.574  11.646  18.234  0.00  0.00    +0.000 C 
ATOM      7  C   UNL     1      11.141  11.811  18.807  0.00  0.00    +0.000 C 
ATOM      8  C   UNL     1      12.332  11.934  19.838  0.00  0.00    +0.000 C 
ATOM      9  C   UNL     1      11.608  12.561  17.616  0.00  0.00    +0.000 C 
ATOM     10  C   UNL     1      11.523  14.057  17.912  0.00  0.00    +0.000 C 
ATOM     11  C   UNL     1      10.533  14.664  19.040  0.00  0.00    +0.000 C 
ATOM     12  C   UNL     1      10.313  16.078  18.387  0.00  0.00    +0.000 C 
ATOM     13  C   UNL     1       8.860  16.282  18.340  0.00  0.00    +0.000 C 
ATOM     14  C   UNL     1       8.324  17.503  18.159  0.00  0.00    +0.000 C 
ATOM     15  C   UNL     1       8.228  14.918  18.519  0.00  0.00    +0.000 C 
ATOM     16  O   UNL     1       7.014  14.789  18.600  0.00  0.00    +0.000 OA
ATOM     17  C   UNL     1       9.297  13.831  18.929  0.00  0.00    +0.000 C 
ATOM     18  C   UNL     1      10.701  14.691  20.733  0.00  0.00    +0.000 C 
ATOM     19  C   UNL     1      11.847  15.687  21.046  0.00  0.00    +0.000 C 
ATOM     20  C   UNL     1       9.186  14.600  21.776  0.00  0.00    +0.000 C 
ENDROOT
BRANCH   1  22
ATOM     21  C   UNL     1       8.493  12.568  24.914  0.00  0.00    +0.000 C 
ATOM     22  C   UNL     1       8.859  12.415  23.641  0.00  0.00    +0.000 C 
ENDBRANCH   1  22
BRANCH   4  23
ATOM     23  O   UNL     1       9.877  10.329  20.684  0.00  0.00    +0.000 OA
ATOM     24  H   UNL     1      10.740  10.229  20.240  0.00  0.00    +0.000 HD
ENDBRANCH   4  23
BRANCH  20  25
ATOM     25  O   UNL     1       8.827  15.749  22.566  0.00  0.00    +0.000 OA
BRANCH  25  26
ATOM     26  C   UNL     1       8.446  16.943  22.078  0.00  0.00    +0.000 C 
ATOM     27  O   UNL     1       9.217  17.808  21.704  0.00  0.00    +0.000 OA
BRANCH  26  28
ATOM     28  C   UNL     1       6.908  16.994  22.013  0.00  0.00    +0.000 C 
ATOM     29  F   UNL     1       6.422  18.215  21.638  0.00  0.00    +0.000 F 
ATOM     30  F   UNL     1       6.389  16.100  21.124  0.00  0.00    +0.000 F 
ATOM     31  F   UNL     1       6.341  16.717  23.218  0.00  0.00    +0.000 F 
ENDBRANCH  26  28
ENDBRANCH  25  26
ENDBRANCH  20  25
TORSDOF 5
ENDMDL
MODEL 6
REMARK VINA RESULT:      -5.8      9.205     12.166
REMARK  Name = 
REMARK  9 active torsions:
REMARK  status: ('A' for Active; 'I' for Inactive)
REMARK    1  A    between atoms: C_2  and  C_3
REMARK    2  A    between atoms: C_3  and  C_4
REMARK    3  A    between atoms: C_6  and  O_7
REMARK    4  A    between atoms: C_8  and  C_9
REMARK    5  A    between atoms: C_10  and  C_11
REMARK    6  A    between atoms: C_21  and  C_22
REMARK    7  A    between atoms: C_23  and  O_24
REMARK    8  A    between atoms: O_24  and  C_25
REMARK    9  A    between atoms: C_25  and  C_27
REMARK                            x       y       z     vdW  Elec       q    Type
REMARK                         _______ _______ _______ _____ _____    ______ ____
ROOT
ATOM      1  C   UNL     1       9.812  12.680  20.350  0.00  0.00    +0.000 C 
ATOM      2  C   UNL     1       8.922  11.384  20.538  0.00  0.00    +0.000 C 
ATOM      3  C   UNL     1       9.349  13.056  18.900  0.00  0.00    +0.000 C 
ATOM      4  C   UNL     1       9.795  14.411  18.529  0.00  0.00    +0.000 C 
ATOM      5  C   UNL     1       8.686  15.536  18.560  0.00  0.00    +0.000 C 
ATOM      6  C   UNL     1       7.529  15.210  17.608  0.00  0.00    +0.000 C 
ATOM      7  C   UNL     1       9.595  16.771  18.094  0.00  0.00    +0.000 C 
ATOM      8  C   UNL     1      11.066  17.010  18.619  0.00  0.00    +0.000 C 
ATOM      9  C   UNL     1       8.879  18.025  18.429  0.00  0.00    +0.000 C 
ATOM     10  C   UNL     1       8.603  18.050  19.930  0.00  0.00    +0.000 C 
ATOM     11  C   UNL     1       8.543  16.700  20.824  0.00  0.00    +0.000 C 
ATOM     12  C   UNL     1       7.548  17.222  21.925  0.00  0.00    +0.000 C 
ATOM     13  C   UNL     1       6.486  16.215  22.022  0.00  0.00    +0.000 C 
ATOM     14  C   UNL     1       5.657  16.162  23.082  0.00  0.00    +0.000 C 
ATOM     15  C   UNL     1       6.570  15.377  20.763  0.00  0.00    +0.000 C 
ATOM     16  O   UNL     1       5.848  14.402  20.603  0.00  0.00    +0.000 OA
ATOM     17  C   UNL     1       7.874  15.702  19.935  0.00  0.00    +0.000 C 
ATOM     18  C   UNL     1       9.811  15.737  21.423  0.00  0.00    +0.000 C 
ATOM     19  C   UNL     1      10.512  16.568  22.527  0.00  0.00    +0.000 C 
ATOM     20  C   UNL     1       9.538  13.925  21.603  0.00  0.00    +0.000 C 
ENDROOT
BRANCH   1  22
ATOM     21  C   UNL     1      11.838  11.630  19.056  0.00  0.00    +0.000 C 
ATOM     22  C   UNL     1      11.216  12.072  20.150  0.00  0.00    +0.000 C 
ENDBRANCH   1  22
BRANCH   4  23
ATOM     23  O   UNL     1      10.456  14.347  17.256  0.00  0.00    +0.000 OA
ATOM     24  H   UNL     1      10.112  13.550  16.811  0.00  0.00    +0.000 HD
ENDBRANCH   4  23
BRANCH  20  25
ATOM     25  O   UNL     1       9.516  13.362  22.927  0.00  0.00    +0.000 OA
BRANCH  25  26
ATOM     26  C   UNL     1       8.559  13.572  23.848  0.00  0.00    +0.000 C 
ATOM     27  O   UNL     1       8.472  14.580  24.527  0.00  0.00    +0.000 OA
BRANCH  26  28
ATOM     28  C   UNL     1       7.583  12.382  23.844  0.00  0.00    +0.000 C 
ATOM     29  F   UNL     1       6.722  12.389  22.782  0.00  0.00    +0.000 F 
ATOM     30  F   UNL     1       8.221  11.177  23.795  0.00  0.00    +0.000 F 
ATOM     31  F   UNL     1       6.803  12.362  24.960  0.00  0.00    +0.000 F 
ENDBRANCH  26  28
ENDBRANCH  25  26
ENDBRANCH  20  25
TORSDOF 5
ENDMDL
MODEL 7
REMARK VINA RESULT:      -5.7      2.309      5.470
REMARK  Name = 
REMARK  9 active torsions:
REMARK  status: ('A' for Active; 'I' for Inactive)
REMARK    1  A    between atoms: C_2  and  C_3
REMARK    2  A    between atoms: C_3  and  C_4
REMARK    3  A    between atoms: C_6  and  O_7
REMARK    4  A    between atoms: C_8  and  C_9
REMARK    5  A    between atoms: C_10  and  C_11
REMARK    6  A    between atoms: C_21  and  C_22
REMARK    7  A    between atoms: C_23  and  O_24
REMARK    8  A    between atoms: O_24  and  C_25
REMARK    9  A    between atoms: C_25  and  C_27
REMARK                            x       y       z     vdW  Elec       q    Type
REMARK                         _______ _______ _______ _____ _____    ______ ____
ROOT
ATOM      1  C   UNL     1      -2.133  13.092  22.599  0.00  0.00    +0.000 C 
ATOM      2  C   UNL     1      -0.663  13.665  22.740  0.00  0.00    +0.000 C 
ATOM      3  C   UNL     1      -2.726  13.683  23.924  0.00  0.00    +0.000 C 
ATOM      4  C   UNL     1      -4.195  13.563  23.955  0.00  0.00    +0.000 C 
ATOM      5  C   UNL     1      -5.003  14.892  23.672  0.00  0.00    +0.000 C 
ATOM      6  C   UNL     1      -4.660  15.985  24.693  0.00  0.00    +0.000 C 
ATOM      7  C   UNL     1      -6.485  14.298  23.817  0.00  0.00    +0.000 C 
ATOM      8  C   UNL     1      -6.917  12.896  23.228  0.00  0.00    +0.000 C 
ATOM      9  C   UNL     1      -7.430  15.260  23.203  0.00  0.00    +0.000 C 
ATOM     10  C   UNL     1      -7.037  15.476  21.744  0.00  0.00    +0.000 C 
ATOM     11  C   UNL     1      -5.537  15.200  21.198  0.00  0.00    +0.000 C 
ATOM     12  C   UNL     1      -5.548  16.241  20.020  0.00  0.00    +0.000 C 
ATOM     13  C   UNL     1      -4.334  17.050  20.183  0.00  0.00    +0.000 C 
ATOM     14  C   UNL     1      -3.848  17.804  19.178  0.00  0.00    +0.000 C 
ATOM     15  C   UNL     1      -3.858  16.832  21.603  0.00  0.00    +0.000 C 
ATOM     16  O   UNL     1      -2.812  17.326  22.003  0.00  0.00    +0.000 OA
ATOM     17  C   UNL     1      -4.653  15.666  22.310  0.00  0.00    +0.000 C 
ATOM     18  C   UNL     1      -4.769  13.727  20.828  0.00  0.00    +0.000 C 
ATOM     19  C   UNL     1      -5.452  13.185  19.547  0.00  0.00    +0.000 C 
ATOM     20  C   UNL     1      -2.953  13.585  21.090  0.00  0.00    +0.000 C 
ENDROOT
BRANCH   1  22
ATOM     21  C   UNL     1      -0.863  10.801  22.748  0.00  0.00    +0.000 C 
ATOM     22  C   UNL     1      -1.920  11.597  22.918  0.00  0.00    +0.000 C 
ENDBRANCH   1  22
BRANCH   4  23
ATOM     23  O   UNL     1      -4.583  12.956  25.196  0.00  0.00    +0.000 OA
ATOM     24  H   UNL     1      -4.619  11.995  25.029  0.00  0.00    +0.000 HD
ENDBRANCH   4  23
BRANCH  20  25
ATOM     25  O   UNL     1      -2.103  13.430  19.939  0.00  0.00    +0.000 OA
BRANCH  25  26
ATOM     26  C   UNL     1      -1.815  12.265  19.333  0.00  0.00    +0.000 C 
ATOM     27  O   UNL     1      -2.639  11.406  19.075  0.00  0.00    +0.000 OA
BRANCH  26  28
ATOM     28  C   UNL     1      -0.318  12.238  18.973  0.00  0.00    +0.000 C 
ATOM     29  F   UNL     1       0.052  11.125  18.272  0.00  0.00    +0.000 F 
ATOM     30  F   UNL     1       0.058  13.302  18.206  0.00  0.00    +0.000 F 
ATOM     31  F   UNL     1       0.470  12.263  20.083  0.00  0.00    +0.000 F 
ENDBRANCH  26  28
ENDBRANCH  25  26
ENDBRANCH  20  25
TORSDOF 5
ENDMDL
MODEL 8
REMARK VINA RESULT:      -5.7      2.623      5.431
REMARK  Name = 
REMARK  9 active torsions:
REMARK  status: ('A' for Active; 'I' for Inactive)
REMARK    1  A    between atoms: C_2  and  C_3
REMARK    2  A    between atoms: C_3  and  C_4
REMARK    3  A    between atoms: C_6  and  O_7
REMARK    4  A    between atoms: C_8  and  C_9
REMARK    5  A    between atoms: C_10  and  C_11
REMARK    6  A    between atoms: C_21  and  C_22
REMARK    7  A    between atoms: C_23  and  O_24
REMARK    8  A    between atoms: O_24  and  C_25
REMARK    9  A    between atoms: C_25  and  C_27
REMARK                            x       y       z     vdW  Elec       q    Type
REMARK                         _______ _______ _______ _____ _____    ______ ____
ROOT
ATOM      1  C   UNL     1      -2.496  12.815  21.364  0.00  0.00    +0.000 C 
ATOM      2  C   UNL     1      -2.358  12.691  19.791  0.00  0.00    +0.000 C 
ATOM      3  C   UNL     1      -1.637  14.112  21.558  0.00  0.00    +0.000 C 
ATOM      4  C   UNL     1      -1.804  14.668  22.913  0.00  0.00    +0.000 C 
ATOM      5  C   UNL     1      -2.725  15.948  23.027  0.00  0.00    +0.000 C 
ATOM      6  C   UNL     1      -2.187  17.103  22.173  0.00  0.00    +0.000 C 
ATOM      7  C   UNL     1      -2.601  16.184  24.607  0.00  0.00    +0.000 C 
ATOM      8  C   UNL     1      -2.640  15.009  25.664  0.00  0.00    +0.000 C 
ATOM      9  C   UNL     1      -3.695  17.091  25.027  0.00  0.00    +0.000 C 
ATOM     10  C   UNL     1      -5.032  16.460  24.643  0.00  0.00    +0.000 C 
ATOM     11  C   UNL     1      -5.166  15.356  23.466  0.00  0.00    +0.000 C 
ATOM     12  C   UNL     1      -6.647  15.676  23.045  0.00  0.00    +0.000 C 
ATOM     13  C   UNL     1      -6.625  15.858  21.589  0.00  0.00    +0.000 C 
ATOM     14  C   UNL     1      -7.752  15.810  20.854  0.00  0.00    +0.000 C 
ATOM     15  C   UNL     1      -5.179  16.092  21.206  0.00  0.00    +0.000 C 
ATOM     16  O   UNL     1      -4.844  16.201  20.035  0.00  0.00    +0.000 OA
ATOM     17  C   UNL     1      -4.205  15.820  22.419  0.00  0.00    +0.000 C 
ATOM     18  C   UNL     1      -4.782  13.698  23.483  0.00  0.00    +0.000 C 
ATOM     19  C   UNL     1      -5.831  13.013  24.394  0.00  0.00    +0.000 C 
ATOM     20  C   UNL     1      -4.189  12.910  21.928  0.00  0.00    +0.000 C 
ENDROOT
BRANCH   1  22
ATOM     21  C   UNL     1      -1.356  11.182  23.072  0.00  0.00    +0.000 C 
ATOM     22  C   UNL     1      -1.575  11.678  21.853  0.00  0.00    +0.000 C 
ENDBRANCH   1  22
BRANCH   4  23
ATOM     23  O   UNL     1      -0.506  14.892  23.484  0.00  0.00    +0.000 OA
ATOM     24  H   UNL     1       0.133  14.790  22.753  0.00  0.00    +0.000 HD
ENDBRANCH   4  23
BRANCH  20  25
ATOM     25  O   UNL     1      -5.024  11.922  21.298  0.00  0.00    +0.000 OA
BRANCH  25  26
ATOM     26  C   UNL     1      -6.237  12.151  20.763  0.00  0.00    +0.000 C 
ATOM     27  O   UNL     1      -7.255  12.304  21.414  0.00  0.00    +0.000 OA
BRANCH  26  28
ATOM     28  C   UNL     1      -6.103  12.253  19.233  0.00  0.00    +0.000 C 
ATOM     29  F   UNL     1      -5.174  11.398  18.711  0.00  0.00    +0.000 F 
ATOM     30  F   UNL     1      -7.269  11.974  18.582  0.00  0.00    +0.000 F 
ATOM     31  F   UNL     1      -5.729  13.501  18.839  0.00  0.00    +0.000 F 
ENDBRANCH  26  28
ENDBRANCH  25  26
ENDBRANCH  20  25
TORSDOF 5
ENDMDL
MODEL 9
REMARK VINA RESULT:      -5.7      9.607     12.613
REMARK  Name = 
REMARK  9 active torsions:
REMARK  status: ('A' for Active; 'I' for Inactive)
REMARK    1  A    between atoms: C_2  and  C_3
REMARK    2  A    between atoms: C_3  and  C_4
REMARK    3  A    between atoms: C_6  and  O_7
REMARK    4  A    between atoms: C_8  and  C_9
REMARK    5  A    between atoms: C_10  and  C_11
REMARK    6  A    between atoms: C_21  and  C_22
REMARK    7  A    between atoms: C_23  and  O_24
REMARK    8  A    between atoms: O_24  and  C_25
REMARK    9  A    between atoms: C_25  and  C_27
REMARK                            x       y       z     vdW  Elec       q    Type
REMARK                         _______ _______ _______ _____ _____    ______ ____
ROOT
ATOM      1  C   UNL     1      10.150  12.727  20.264  0.00  0.00    +0.000 C 
ATOM      2  C   UNL     1       9.175  11.533  19.897  0.00  0.00    +0.000 C 
ATOM      3  C   UNL     1      10.119  13.466  18.882  0.00  0.00    +0.000 C 
ATOM      4  C   UNL     1      10.719  14.809  18.979  0.00  0.00    +0.000 C 
ATOM      5  C   UNL     1       9.704  16.020  19.005  0.00  0.00    +0.000 C 
ATOM      6  C   UNL     1       8.834  16.051  17.742  0.00  0.00    +0.000 C 
ATOM      7  C   UNL     1      10.769  17.214  19.100  0.00  0.00    +0.000 C 
ATOM      8  C   UNL     1      12.053  17.159  20.020  0.00  0.00    +0.000 C 
ATOM      9  C   UNL     1      10.056  18.436  19.541  0.00  0.00    +0.000 C 
ATOM     10  C   UNL     1       9.383  18.158  20.883  0.00  0.00    +0.000 C 
ATOM     11  C   UNL     1       9.012  16.660  21.375  0.00  0.00    +0.000 C 
ATOM     12  C   UNL     1       7.784  17.035  22.283  0.00  0.00    +0.000 C 
ATOM     13  C   UNL     1       6.684  16.161  21.859  0.00  0.00    +0.000 C 
ATOM     14  C   UNL     1       5.597  15.970  22.630  0.00  0.00    +0.000 C 
ATOM     15  C   UNL     1       7.063  15.621  20.496  0.00  0.00    +0.000 C 
ATOM     16  O   UNL     1       6.362  14.797  19.926  0.00  0.00    +0.000 OA
ATOM     17  C   UNL     1       8.558  15.969  20.129  0.00  0.00    +0.000 C 
ATOM     18  C   UNL     1      10.018  15.447  22.017  0.00  0.00    +0.000 C 
ATOM     19  C   UNL     1      10.435  15.924  23.432  0.00  0.00    +0.000 C 
ATOM     20  C   UNL     1       9.611  13.684  21.672  0.00  0.00    +0.000 C 
ENDROOT
BRANCH   1  22
ATOM     21  C   UNL     1      12.333  11.647  19.289  0.00  0.00    +0.000 C 
ATOM     22  C   UNL     1      11.522  12.020  20.280  0.00  0.00    +0.000 C 
ENDBRANCH   1  22
BRANCH   4  23
ATOM     23  O   UNL     1      11.697  14.955  17.937  0.00  0.00    +0.000 OA
ATOM     24  H   UNL     1      11.829  14.063  17.563  0.00  0.00    +0.000 HD
ENDBRANCH   4  23
BRANCH  20  25
ATOM     25  O   UNL     1       9.200  12.847  22.769  0.00  0.00    +0.000 OA
BRANCH  25  26
ATOM     26  C   UNL     1       7.949  12.755  23.253  0.00  0.00    +0.000 C 
ATOM     27  O   UNL     1       6.978  12.445  22.587  0.00  0.00    +0.000 OA
BRANCH  26  28
ATOM     28  C   UNL     1       7.972  13.033  24.767  0.00  0.00    +0.000 C 
ATOM     29  F   UNL     1       6.849  12.601  25.416  0.00  0.00    +0.000 F 
ATOM     30  F   UNL     1       9.019  12.429  25.398  0.00  0.00    +0.000 F 
ATOM     31  F   UNL     1       8.072  14.364  25.036  0.00  0.00    +0.000 F 
ENDBRANCH  26  28
ENDBRANCH  25  26
ENDBRANCH  20  25
TORSDOF 5
ENDMDL
