MODEL 1
REMARK VINA RESULT:      -6.3      0.000      0.000
REMARK  Name = 
REMARK  5 active torsions:
REMARK  status: ('A' for Active; 'I' for Inactive)
REMARK    1  A    between atoms: C_1  and  C_2
REMARK    2  A    between atoms: C_5  and  N_6
REMARK    3  A    between atoms: C_7  and  C_8
REMARK    4  A    between atoms: C_14  and  C_15
REMARK    5  A    between atoms: C_26  and  C_27
REMARK                            x       y       z     vdW  Elec       q    Type
REMARK                         _______ _______ _______ _____ _____    ______ ____
ROOT
ATOM      1  N   UNL     1      -2.241  13.933  21.786  0.00  0.00    +0.000 N 
ATOM      2  C   UNL     1      -3.609  13.765  21.436  0.00  0.00    +0.000 A 
ATOM      3  C   UNL     1      -3.659  12.788  20.404  0.00  0.00    +0.000 A 
ATOM      4  C   UNL     1      -2.318  12.385  20.164  0.00  0.00    +0.000 A 
ATOM      5  C   UNL     1      -1.473  13.111  20.977  0.00  0.00    +0.000 A 
ATOM      6  N   UNL     1      -0.103  13.014  21.083  0.00  0.00    +0.000 NA
ATOM      7  C   UNL     1       0.488  12.177  20.278  0.00  0.00    +0.000 A 
ATOM      8  N   UNL     1      -0.227  11.377  19.399  0.00  0.00    +0.000 N 
ATOM      9  C   UNL     1       0.204  10.428  18.506  0.00  0.00    +0.000 A 
ATOM     10  C   UNL     1       1.619  10.056  18.288  0.00  0.00    +0.000 C 
ATOM     11  N   UNL     1      -0.861   9.926  17.900  0.00  0.00    +0.000 NA
ATOM     12  N   UNL     1      -1.993  10.564  18.387  0.00  0.00    +0.000 NA
ATOM     13  C   UNL     1      -1.595  11.429  19.288  0.00  0.00    +0.000 A 
ENDROOT
BRANCH   1  18
ATOM     14  C   UNL     1      -0.176  17.507  25.775  0.00  0.00    +0.000 C 
ATOM     15  C   UNL     1      -0.696  16.561  24.740  0.00  0.00    +0.000 A 
ATOM     16  C   UNL     1      -1.166  15.296  25.101  0.00  0.00    +0.000 A 
ATOM     17  C   UNL     1      -1.618  14.402  24.122  0.00  0.00    +0.000 A 
ATOM     18  C   UNL     1      -1.669  14.791  22.776  0.00  0.00    +0.000 A 
ATOM     19  C   UNL     1      -1.186  16.058  22.422  0.00  0.00    +0.000 A 
ATOM     20  C   UNL     1      -0.684  16.933  23.393  0.00  0.00    +0.000 A 
ENDBRANCH   1  18
BRANCH   2  21
ATOM     21  C   UNL     1      -4.707  14.589  22.044  0.00  0.00    +0.000 A 
ATOM     22  C   UNL     1      -5.323  14.212  23.254  0.00  0.00    +0.000 A 
ATOM     23  C   UNL     1      -6.400  14.929  23.788  0.00  0.00    +0.000 A 
ATOM     24  C   UNL     1      -6.790  16.127  23.203  0.00  0.00    +0.000 A 
ATOM     25  C   UNL     1      -6.148  16.565  22.050  0.00  0.00    +0.000 A 
ATOM     26  C   UNL     1      -5.165  15.772  21.444  0.00  0.00    +0.000 A 
ENDBRANCH   2  21
BRANCH   3  27
ATOM     27  C   UNL     1      -4.889  12.318  19.728  0.00  0.00    +0.000 A 
ATOM     28  C   UNL     1      -6.008  11.877  20.453  0.00  0.00    +0.000 A 
ATOM     29  C   UNL     1      -7.112  11.284  19.830  0.00  0.00    +0.000 A 
ATOM     30  C   UNL     1      -7.167  11.222  18.445  0.00  0.00    +0.000 A 
ATOM     31  C   UNL     1      -6.108  11.737  17.709  0.00  0.00    +0.000 A 
ATOM     32  C   UNL     1      -4.974  12.256  18.329  0.00  0.00    +0.000 A 
ENDBRANCH   3  27
TORSDOF 3
ENDMDL
MODEL 2
REMARK VINA RESULT:      -6.3      3.347      6.757
REMARK  Name = 
REMARK  5 active torsions:
REMARK  status: ('A' for Active; 'I' for Inactive)
REMARK    1  A    between atoms: C_1  and  C_2
REMARK    2  A    between atoms: C_5  and  N_6
REMARK    3  A    between atoms: C_7  and  C_8
REMARK    4  A    between atoms: C_14  and  C_15
REMARK    5  A    between atoms: C_26  and  C_27
REMARK                            x       y       z     vdW  Elec       q    Type
REMARK                         _______ _______ _______ _____ _____    ______ ____
ROOT
ATOM      1  N   UNL     1       0.754  12.693  20.229  0.00  0.00    +0.000 N 
ATOM      2  C   UNL     1      -0.328  13.454  19.708  0.00  0.00    +0.000 A 
ATOM      3  C   UNL     1       0.055  14.822  19.772  0.00  0.00    +0.000 A 
ATOM      4  C   UNL     1       1.364  14.849  20.323  0.00  0.00    +0.000 A 
ATOM      5  C   UNL     1       1.755  13.562  20.629  0.00  0.00    +0.000 A 
ATOM      6  N   UNL     1       2.958  13.140  21.152  0.00  0.00    +0.000 NA
ATOM      7  C   UNL     1       3.820  14.067  21.456  0.00  0.00    +0.000 A 
ATOM      8  N   UNL     1       3.571  15.409  21.212  0.00  0.00    +0.000 N 
ATOM      9  C   UNL     1       4.353  16.516  21.431  0.00  0.00    +0.000 A 
ATOM     10  C   UNL     1       5.709  16.487  22.022  0.00  0.00    +0.000 C 
ATOM     11  N   UNL     1       3.679  17.579  21.020  0.00  0.00    +0.000 NA
ATOM     12  N   UNL     1       2.441  17.166  20.547  0.00  0.00    +0.000 NA
ATOM     13  C   UNL     1       2.394  15.862  20.666  0.00  0.00    +0.000 A 
ENDROOT
BRANCH   1  18
ATOM     14  C   UNL     1       1.458   7.026  20.825  0.00  0.00    +0.000 C 
ATOM     15  C   UNL     1       1.252   8.500  20.673  0.00  0.00    +0.000 A 
ATOM     16  C   UNL     1       0.823   9.276  21.754  0.00  0.00    +0.000 A 
ATOM     17  C   UNL     1       0.597  10.649  21.595  0.00  0.00    +0.000 A 
ATOM     18  C   UNL     1       0.864  11.274  20.368  0.00  0.00    +0.000 A 
ATOM     19  C   UNL     1       1.284  10.486  19.288  0.00  0.00    +0.000 A 
ATOM     20  C   UNL     1       1.459   9.105  19.431  0.00  0.00    +0.000 A 
ENDBRANCH   1  18
BRANCH   2  21
ATOM     21  C   UNL     1      -1.626  12.831  19.282  0.00  0.00    +0.000 A 
ATOM     22  C   UNL     1      -1.734  12.111  18.075  0.00  0.00    +0.000 A 
ATOM     23  C   UNL     1      -2.957  11.595  17.632  0.00  0.00    +0.000 A 
ATOM     24  C   UNL     1      -4.072  11.654  18.457  0.00  0.00    +0.000 A 
ATOM     25  C   UNL     1      -3.977  12.291  19.690  0.00  0.00    +0.000 A 
ATOM     26  C   UNL     1      -2.786  12.928  20.066  0.00  0.00    +0.000 A 
ENDBRANCH   2  21
BRANCH   3  27
ATOM     27  C   UNL     1      -0.781  15.967  19.347  0.00  0.00    +0.000 A 
ATOM     28  C   UNL     1      -0.478  16.718  18.200  0.00  0.00    +0.000 A 
ATOM     29  C   UNL     1      -1.166  17.894  17.877  0.00  0.00    +0.000 A 
ATOM     30  C   UNL     1      -2.255  18.283  18.643  0.00  0.00    +0.000 A 
ATOM     31  C   UNL     1      -2.625  17.501  19.728  0.00  0.00    +0.000 A 
ATOM     32  C   UNL     1      -1.895  16.375  20.097  0.00  0.00    +0.000 A 
ENDBRANCH   3  27
TORSDOF 3
ENDMDL
MODEL 3
REMARK VINA RESULT:      -6.3      2.315      5.433
REMARK  Name = 
REMARK  5 active torsions:
REMARK  status: ('A' for Active; 'I' for Inactive)
REMARK    1  A    between atoms: C_1  and  C_2
REMARK    2  A    between atoms: C_5  and  N_6
REMARK    3  A    between atoms: C_7  and  C_8
REMARK    4  A    between atoms: C_14  and  C_15
REMARK    5  A    between atoms: C_26  and  C_27
REMARK                            x       y       z     vdW  Elec       q    Type
REMARK                         _______ _______ _______ _____ _____    ______ ____
ROOT
ATOM      1  N   UNL     1      -1.950  14.463  21.394  0.00  0.00    +0.000 N 
ATOM      2  C   UNL     1      -1.527  13.686  20.282  0.00  0.00    +0.000 A 
ATOM      3  C   UNL     1      -2.581  12.780  19.980  0.00  0.00    +0.000 A 
ATOM      4  C   UNL     1      -3.618  13.042  20.915  0.00  0.00    +0.000 A 
ATOM      5  C   UNL     1      -3.207  14.031  21.784  0.00  0.00    +0.000 A 
ATOM      6  N   UNL     1      -3.914  14.602  22.819  0.00  0.00    +0.000 NA
ATOM      7  C   UNL     1      -5.099  14.115  23.056  0.00  0.00    +0.000 A 
ATOM      8  N   UNL     1      -5.650  13.114  22.271  0.00  0.00    +0.000 N 
ATOM      9  C   UNL     1      -6.876  12.499  22.340  0.00  0.00    +0.000 A 
ATOM     10  C   UNL     1      -7.916  12.803  23.347  0.00  0.00    +0.000 C 
ATOM     11  N   UNL     1      -6.942  11.611  21.360  0.00  0.00    +0.000 NA
ATOM     12  N   UNL     1      -5.746  11.633  20.657  0.00  0.00    +0.000 NA
ATOM     13  C   UNL     1      -4.984  12.542  21.214  0.00  0.00    +0.000 A 
ENDROOT
BRANCH   1  18
ATOM     14  C   UNL     1       1.060  18.627  23.956  0.00  0.00    +0.000 C 
ATOM     15  C   UNL     1       0.256  17.552  23.295  0.00  0.00    +0.000 A 
ATOM     16  C   UNL     1      -0.588  17.848  22.221  0.00  0.00    +0.000 A 
ATOM     17  C   UNL     1      -1.364  16.844  21.632  0.00  0.00    +0.000 A 
ATOM     18  C   UNL     1      -1.254  15.515  22.068  0.00  0.00    +0.000 A 
ATOM     19  C   UNL     1      -0.414  15.229  23.151  0.00  0.00    +0.000 A 
ATOM     20  C   UNL     1       0.323  16.242  23.777  0.00  0.00    +0.000 A 
ENDBRANCH   1  18
BRANCH   2  21
ATOM     21  C   UNL     1      -0.160  13.817  19.674  0.00  0.00    +0.000 A 
ATOM     22  C   UNL     1       0.835  12.842  19.887  0.00  0.00    +0.000 A 
ATOM     23  C   UNL     1       2.134  12.994  19.391  0.00  0.00    +0.000 A 
ATOM     24  C   UNL     1       2.430  14.053  18.543  0.00  0.00    +0.000 A 
ATOM     25  C   UNL     1       1.447  14.992  18.252  0.00  0.00    +0.000 A 
ATOM     26  C   UNL     1       0.188  14.908  18.863  0.00  0.00    +0.000 A 
ENDBRANCH   2  21
BRANCH   3  27
ATOM     27  C   UNL     1      -2.559  11.769  18.899  0.00  0.00    +0.000 A 
ATOM     28  C   UNL     1      -1.561  10.784  18.828  0.00  0.00    +0.000 A 
ATOM     29  C   UNL     1      -1.440   9.926  17.729  0.00  0.00    +0.000 A 
ATOM     30  C   UNL     1      -2.393   9.961  16.722  0.00  0.00    +0.000 A 
ATOM     31  C   UNL     1      -3.440  10.868  16.823  0.00  0.00    +0.000 A 
ATOM     32  C   UNL     1      -3.519  11.776  17.875  0.00  0.00    +0.000 A 
ENDBRANCH   3  27
TORSDOF 3
ENDMDL
MODEL 4
REMARK VINA RESULT:      -6.3      2.574      5.676
REMARK  Name = 
REMARK  5 active torsions:
REMARK  status: ('A' for Active; 'I' for Inactive)
REMARK    1  A    between atoms: C_1  and  C_2
REMARK    2  A    between atoms: C_5  and  N_6
REMARK    3  A    between atoms: C_7  and  C_8
REMARK    4  A    between atoms: C_14  and  C_15
REMARK    5  A    between atoms: C_26  and  C_27
REMARK                            x       y       z     vdW  Elec       q    Type
REMARK                         _______ _______ _______ _____ _____    ______ ____
ROOT
ATOM      1  N   UNL     1      -1.159  13.199  20.973  0.00  0.00    +0.000 N 
ATOM      2  C   UNL     1      -0.433  14.403  20.759  0.00  0.00    +0.000 A 
ATOM      3  C   UNL     1       0.666  14.083  19.916  0.00  0.00    +0.000 A 
ATOM      4  C   UNL     1       0.569  12.693  19.636  0.00  0.00    +0.000 A 
ATOM      5  C   UNL     1      -0.514  12.168  20.311  0.00  0.00    +0.000 A 
ATOM      6  N   UNL     1      -0.980  10.872  20.293  0.00  0.00    +0.000 NA
ATOM      7  C   UNL     1      -0.288  10.011  19.604  0.00  0.00    +0.000 A 
ATOM      8  N   UNL     1       0.829  10.386  18.872  0.00  0.00    +0.000 N 
ATOM      9  C   UNL     1       1.661   9.644  18.071  0.00  0.00    +0.000 A 
ATOM     10  C   UNL     1       1.520   8.192  17.825  0.00  0.00    +0.000 C 
ATOM     11  N   UNL     1       2.583  10.456  17.578  0.00  0.00    +0.000 NA
ATOM     12  N   UNL     1       2.363  11.733  18.074  0.00  0.00    +0.000 NA
ATOM     13  C   UNL     1       1.305  11.674  18.846  0.00  0.00    +0.000 A 
ENDROOT
BRANCH   1  18
ATOM     14  C   UNL     1      -5.912  12.631  24.142  0.00  0.00    +0.000 C 
ATOM     15  C   UNL     1      -4.680  12.761  23.304  0.00  0.00    +0.000 A 
ATOM     16  C   UNL     1      -4.770  13.091  21.949  0.00  0.00    +0.000 A 
ATOM     17  C   UNL     1      -3.615  13.176  21.162  0.00  0.00    +0.000 A 
ATOM     18  C   UNL     1      -2.350  12.997  21.739  0.00  0.00    +0.000 A 
ATOM     19  C   UNL     1      -2.270  12.655  23.095  0.00  0.00    +0.000 A 
ATOM     20  C   UNL     1      -3.427  12.517  23.872  0.00  0.00    +0.000 A 
ENDBRANCH   1  18
BRANCH   2  21
ATOM     21  C   UNL     1      -0.797  15.698  21.426  0.00  0.00    +0.000 A 
ATOM     22  C   UNL     1      -0.285  16.039  22.694  0.00  0.00    +0.000 A 
ATOM     23  C   UNL     1      -0.679  17.206  23.358  0.00  0.00    +0.000 A 
ATOM     24  C   UNL     1      -1.479  18.135  22.706  0.00  0.00    +0.000 A 
ATOM     25  C   UNL     1      -1.938  17.861  21.423  0.00  0.00    +0.000 A 
ATOM     26  C   UNL     1      -1.653  16.629  20.818  0.00  0.00    +0.000 A 
ENDBRANCH   2  21
BRANCH   3  27
ATOM     27  C   UNL     1       1.697  15.038  19.451  0.00  0.00    +0.000 A 
ATOM     28  C   UNL     1       1.389  16.086  18.569  0.00  0.00    +0.000 A 
ATOM     29  C   UNL     1       2.379  16.896  18.001  0.00  0.00    +0.000 A 
ATOM     30  C   UNL     1       3.700  16.743  18.396  0.00  0.00    +0.000 A 
ATOM     31  C   UNL     1       4.010  15.771  19.338  0.00  0.00    +0.000 A 
ATOM     32  C   UNL     1       3.038  14.912  19.845  0.00  0.00    +0.000 A 
ENDBRANCH   3  27
TORSDOF 3
ENDMDL
MODEL 5
REMARK VINA RESULT:      -6.3      2.670      5.154
REMARK  Name = 
REMARK  5 active torsions:
REMARK  status: ('A' for Active; 'I' for Inactive)
REMARK    1  A    between atoms: C_1  and  C_2
REMARK    2  A    between atoms: C_5  and  N_6
REMARK    3  A    between atoms: C_7  and  C_8
REMARK    4  A    between atoms: C_14  and  C_15
REMARK    5  A    between atoms: C_26  and  C_27
REMARK                            x       y       z     vdW  Elec       q    Type
REMARK                         _______ _______ _______ _____ _____    ______ ____
ROOT
ATOM      1  N   UNL     1      -2.223  13.716  20.923  0.00  0.00    +0.000 N 
ATOM      2  C   UNL     1      -1.814  15.012  20.504  0.00  0.00    +0.000 A 
ATOM      3  C   UNL     1      -0.649  14.844  19.705  0.00  0.00    +0.000 A 
ATOM      4  C   UNL     1      -0.392  13.448  19.656  0.00  0.00    +0.000 A 
ATOM      5  C   UNL     1      -1.325  12.786  20.426  0.00  0.00    +0.000 A 
ATOM      6  N   UNL     1      -1.454  11.429  20.627  0.00  0.00    +0.000 NA
ATOM      7  C   UNL     1      -0.553  10.668  20.074  0.00  0.00    +0.000 A 
ATOM      8  N   UNL     1       0.453  11.186  19.273  0.00  0.00    +0.000 N 
ATOM      9  C   UNL     1       1.462  10.555  18.589  0.00  0.00    +0.000 A 
ATOM     10  C   UNL     1       1.692   9.094  18.584  0.00  0.00    +0.000 C 
ATOM     11  N   UNL     1       2.165  11.481  17.955  0.00  0.00    +0.000 NA
ATOM     12  N   UNL     1       1.622  12.726  18.240  0.00  0.00    +0.000 NA
ATOM     13  C   UNL     1       0.594  12.531  19.029  0.00  0.00    +0.000 A 
ENDROOT
BRANCH   1  18
ATOM     14  C   UNL     1      -6.760  12.500  24.224  0.00  0.00    +0.000 C 
ATOM     15  C   UNL     1      -5.579  12.796  23.354  0.00  0.00    +0.000 A 
ATOM     16  C   UNL     1      -5.716  12.873  21.965  0.00  0.00    +0.000 A 
ATOM     17  C   UNL     1      -4.600  13.115  21.156  0.00  0.00    +0.000 A 
ATOM     18  C   UNL     1      -3.344  13.349  21.732  0.00  0.00    +0.000 A 
ATOM     19  C   UNL     1      -3.213  13.260  23.124  0.00  0.00    +0.000 A 
ATOM     20  C   UNL     1      -4.318  12.965  23.932  0.00  0.00    +0.000 A 
ENDBRANCH   1  18
BRANCH   2  21
ATOM     21  C   UNL     1      -2.504  16.265  20.958  0.00  0.00    +0.000 A 
ATOM     22  C   UNL     1      -2.058  16.981  22.087  0.00  0.00    +0.000 A 
ATOM     23  C   UNL     1      -2.740  18.105  22.565  0.00  0.00    +0.000 A 
ATOM     24  C   UNL     1      -3.800  18.631  21.837  0.00  0.00    +0.000 A 
ATOM     25  C   UNL     1      -4.215  17.990  20.675  0.00  0.00    +0.000 A 
ATOM     26  C   UNL     1      -3.616  16.786  20.279  0.00  0.00    +0.000 A 
ENDBRANCH   2  21
BRANCH   3  27
ATOM     27  C   UNL     1       0.122  15.938  19.074  0.00  0.00    +0.000 A 
ATOM     28  C   UNL     1      -0.475  16.847  18.186  0.00  0.00    +0.000 A 
ATOM     29  C   UNL     1       0.274  17.784  17.464  0.00  0.00    +0.000 A 
ATOM     30  C   UNL     1       1.635  17.905  17.704  0.00  0.00    +0.000 A 
ATOM     31  C   UNL     1       2.225  17.075  18.647  0.00  0.00    +0.000 A 
ATOM     32  C   UNL     1       1.498  16.090  19.309  0.00  0.00    +0.000 A 
ENDBRANCH   3  27
TORSDOF 3
ENDMDL
MODEL 6
REMARK VINA RESULT:      -6.2      0.133      1.210
REMARK  Name = 
REMARK  5 active torsions:
REMARK  status: ('A' for Active; 'I' for Inactive)
REMARK    1  A    between atoms: C_1  and  C_2
REMARK    2  A    between atoms: C_5  and  N_6
REMARK    3  A    between atoms: C_7  and  C_8
REMARK    4  A    between atoms: C_14  and  C_15
REMARK    5  A    between atoms: C_26  and  C_27
REMARK                            x       y       z     vdW  Elec       q    Type
REMARK                         _______ _______ _______ _____ _____    ______ ____
ROOT
ATOM      1  N   UNL     1      -2.334  14.018  21.844  0.00  0.00    +0.000 N 
ATOM      2  C   UNL     1      -3.695  13.815  21.485  0.00  0.00    +0.000 A 
ATOM      3  C   UNL     1      -3.713  12.832  20.458  0.00  0.00    +0.000 A 
ATOM      4  C   UNL     1      -2.361  12.460  20.231  0.00  0.00    +0.000 A 
ATOM      5  C   UNL     1      -1.540  13.211  21.046  0.00  0.00    +0.000 A 
ATOM      6  N   UNL     1      -0.169  13.147  21.162  0.00  0.00    +0.000 NA
ATOM      7  C   UNL     1       0.448  12.321  20.367  0.00  0.00    +0.000 A 
ATOM      8  N   UNL     1      -0.240  11.499  19.487  0.00  0.00    +0.000 N 
ATOM      9  C   UNL     1       0.220  10.555  18.603  0.00  0.00    +0.000 A 
ATOM     10  C   UNL     1       1.646  10.217  18.397  0.00  0.00    +0.000 C 
ATOM     11  N   UNL     1      -0.828  10.024  17.991  0.00  0.00    +0.000 NA
ATOM     12  N   UNL     1      -1.978  10.637  18.467  0.00  0.00    +0.000 NA
ATOM     13  C   UNL     1      -1.608  11.517  19.365  0.00  0.00    +0.000 A 
ENDROOT
BRANCH   1  18
ATOM     14  C   UNL     1       0.073  17.404  25.806  0.00  0.00    +0.000 C 
ATOM     15  C   UNL     1      -0.570  16.538  24.770  0.00  0.00    +0.000 A 
ATOM     16  C   UNL     1      -0.613  16.936  23.431  0.00  0.00    +0.000 A 
ATOM     17  C   UNL     1      -1.248  16.137  22.474  0.00  0.00    +0.000 A 
ATOM     18  C   UNL     1      -1.790  14.896  22.834  0.00  0.00    +0.000 A 
ATOM     19  C   UNL     1      -1.753  14.509  24.180  0.00  0.00    +0.000 A 
ATOM     20  C   UNL     1      -1.165  15.331  25.148  0.00  0.00    +0.000 A 
ENDBRANCH   1  18
BRANCH   2  21
ATOM     21  C   UNL     1      -4.817  14.615  22.080  0.00  0.00    +0.000 A 
ATOM     22  C   UNL     1      -5.319  15.766  21.439  0.00  0.00    +0.000 A 
ATOM     23  C   UNL     1      -6.310  16.562  22.023  0.00  0.00    +0.000 A 
ATOM     24  C   UNL     1      -6.931  16.145  23.193  0.00  0.00    +0.000 A 
ATOM     25  C   UNL     1      -6.510  14.972  23.809  0.00  0.00    +0.000 A 
ATOM     26  C   UNL     1      -5.423  14.253  23.293  0.00  0.00    +0.000 A 
ENDBRANCH   2  21
BRANCH   3  27
ATOM     27  C   UNL     1      -4.927  12.328  19.776  0.00  0.00    +0.000 A 
ATOM     28  C   UNL     1      -6.040  11.865  20.495  0.00  0.00    +0.000 A 
ATOM     29  C   UNL     1      -7.125  11.242  19.867  0.00  0.00    +0.000 A 
ATOM     30  C   UNL     1      -7.167  11.171  18.482  0.00  0.00    +0.000 A 
ATOM     31  C   UNL     1      -6.115  11.706  17.751  0.00  0.00    +0.000 A 
ATOM     32  C   UNL     1      -4.999  12.255  18.376  0.00  0.00    +0.000 A 
ENDBRANCH   3  27
TORSDOF 3
ENDMDL
MODEL 7
REMARK VINA RESULT:      -6.2      0.715      1.109
REMARK  Name = 
REMARK  5 active torsions:
REMARK  status: ('A' for Active; 'I' for Inactive)
REMARK    1  A    between atoms: C_1  and  C_2
REMARK    2  A    between atoms: C_5  and  N_6
REMARK    3  A    between atoms: C_7  and  C_8
REMARK    4  A    between atoms: C_14  and  C_15
REMARK    5  A    between atoms: C_26  and  C_27
REMARK                            x       y       z     vdW  Elec       q    Type
REMARK                         _______ _______ _______ _____ _____    ______ ____
ROOT
ATOM      1  N   UNL     1      -2.785  14.144  22.128  0.00  0.00    +0.000 N 
ATOM      2  C   UNL     1      -4.103  13.804  21.718  0.00  0.00    +0.000 A 
ATOM      3  C   UNL     1      -3.981  12.875  20.648  0.00  0.00    +0.000 A 
ATOM      4  C   UNL     1      -2.589  12.672  20.447  0.00  0.00    +0.000 A 
ATOM      5  C   UNL     1      -1.882  13.472  21.320  0.00  0.00    +0.000 A 
ATOM      6  N   UNL     1      -0.516  13.561  21.476  0.00  0.00    +0.000 NA
ATOM      7  C   UNL     1       0.213  12.850  20.664  0.00  0.00    +0.000 A 
ATOM      8  N   UNL     1      -0.352  11.998  19.728  0.00  0.00    +0.000 N 
ATOM      9  C   UNL     1       0.238  11.157  18.817  0.00  0.00    +0.000 A 
ATOM     10  C   UNL     1       1.698  10.995  18.641  0.00  0.00    +0.000 C 
ATOM     11  N   UNL     1      -0.725  10.539  18.149  0.00  0.00    +0.000 NA
ATOM     12  N   UNL     1      -1.951  10.992  18.615  0.00  0.00    +0.000 NA
ATOM     13  C   UNL     1      -1.709  11.864  19.564  0.00  0.00    +0.000 A 
ENDROOT
BRANCH   1  18
ATOM     14  C   UNL     1      -0.882  17.618  26.284  0.00  0.00    +0.000 C 
ATOM     15  C   UNL     1      -1.398  16.725  25.200  0.00  0.00    +0.000 A 
ATOM     16  C   UNL     1      -1.630  17.222  23.915  0.00  0.00    +0.000 A 
ATOM     17  C   UNL     1      -2.147  16.389  22.915  0.00  0.00    +0.000 A 
ATOM     18  C   UNL     1      -2.373  15.029  23.173  0.00  0.00    +0.000 A 
ATOM     19  C   UNL     1      -2.147  14.542  24.467  0.00  0.00    +0.000 A 
ATOM     20  C   UNL     1      -1.681  15.386  25.482  0.00  0.00    +0.000 A 
ENDBRANCH   1  18
BRANCH   2  21
ATOM     21  C   UNL     1      -5.325  14.440  22.312  0.00  0.00    +0.000 A 
ATOM     22  C   UNL     1      -5.952  13.900  23.454  0.00  0.00    +0.000 A 
ATOM     23  C   UNL     1      -7.137  14.439  23.969  0.00  0.00    +0.000 A 
ATOM     24  C   UNL     1      -7.642  15.622  23.445  0.00  0.00    +0.000 A 
ATOM     25  C   UNL     1      -7.001  16.221  22.366  0.00  0.00    +0.000 A 
ATOM     26  C   UNL     1      -5.895  15.601  21.768  0.00  0.00    +0.000 A 
ENDBRANCH   2  21
BRANCH   3  27
ATOM     27  C   UNL     1      -5.109  12.268  19.906  0.00  0.00    +0.000 A 
ATOM     28  C   UNL     1      -6.183  11.653  20.569  0.00  0.00    +0.000 A 
ATOM     29  C   UNL     1      -7.171  10.940  19.880  0.00  0.00    +0.000 A 
ATOM     30  C   UNL     1      -7.166  10.925  18.493  0.00  0.00    +0.000 A 
ATOM     31  C   UNL     1      -6.161  11.607  17.820  0.00  0.00    +0.000 A 
ATOM     32  C   UNL     1      -5.133  12.250  18.503  0.00  0.00    +0.000 A 
ENDBRANCH   3  27
TORSDOF 3
ENDMDL
MODEL 8
REMARK VINA RESULT:      -6.2      2.235      5.357
REMARK  Name = 
REMARK  5 active torsions:
REMARK  status: ('A' for Active; 'I' for Inactive)
REMARK    1  A    between atoms: C_1  and  C_2
REMARK    2  A    between atoms: C_5  and  N_6
REMARK    3  A    between atoms: C_7  and  C_8
REMARK    4  A    between atoms: C_14  and  C_15
REMARK    5  A    between atoms: C_26  and  C_27
REMARK                            x       y       z     vdW  Elec       q    Type
REMARK                         _______ _______ _______ _____ _____    ______ ____
ROOT
ATOM      1  N   UNL     1      -1.813  14.399  21.572  0.00  0.00    +0.000 N 
ATOM      2  C   UNL     1      -1.338  13.652  20.460  0.00  0.00    +0.000 A 
ATOM      3  C   UNL     1      -2.389  12.779  20.064  0.00  0.00    +0.000 A 
ATOM      4  C   UNL     1      -3.475  13.031  20.945  0.00  0.00    +0.000 A 
ATOM      5  C   UNL     1      -3.099  13.981  21.871  0.00  0.00    +0.000 A 
ATOM      6  N   UNL     1      -3.856  14.531  22.881  0.00  0.00    +0.000 NA
ATOM      7  C   UNL     1      -5.062  14.061  23.030  0.00  0.00    +0.000 A 
ATOM      8  N   UNL     1      -5.584  13.099  22.179  0.00  0.00    +0.000 N 
ATOM      9  C   UNL     1      -6.823  12.508  22.153  0.00  0.00    +0.000 A 
ATOM     10  C   UNL     1      -7.916  12.799  23.107  0.00  0.00    +0.000 C 
ATOM     11  N   UNL     1      -6.847  11.655  21.141  0.00  0.00    +0.000 NA
ATOM     12  N   UNL     1      -5.610  11.676  20.511  0.00  0.00    +0.000 NA
ATOM     13  C   UNL     1      -4.866  12.550  21.144  0.00  0.00    +0.000 A 
ENDROOT
BRANCH   1  18
ATOM     14  C   UNL     1       0.660  18.593  24.614  0.00  0.00    +0.000 C 
ATOM     15  C   UNL     1       0.034  17.487  23.825  0.00  0.00    +0.000 A 
ATOM     16  C   UNL     1      -0.300  16.275  24.435  0.00  0.00    +0.000 A 
ATOM     17  C   UNL     1      -0.852  15.231  23.682  0.00  0.00    +0.000 A 
ATOM     18  C   UNL     1      -1.139  15.414  22.322  0.00  0.00    +0.000 A 
ATOM     19  C   UNL     1      -0.791  16.628  21.716  0.00  0.00    +0.000 A 
ATOM     20  C   UNL     1      -0.189  17.654  22.456  0.00  0.00    +0.000 A 
ENDBRANCH   1  18
BRANCH   2  21
ATOM     21  C   UNL     1       0.065  13.775  19.940  0.00  0.00    +0.000 A 
ATOM     22  C   UNL     1       1.161  13.249  20.652  0.00  0.00    +0.000 A 
ATOM     23  C   UNL     1       2.478  13.427  20.216  0.00  0.00    +0.000 A 
ATOM     24  C   UNL     1       2.723  14.007  18.978  0.00  0.00    +0.000 A 
ATOM     25  C   UNL     1       1.656  14.468  18.216  0.00  0.00    +0.000 A 
ATOM     26  C   UNL     1       0.350  14.411  18.721  0.00  0.00    +0.000 A 
ENDBRANCH   2  21
BRANCH   3  27
ATOM     27  C   UNL     1      -2.321  11.805  18.952  0.00  0.00    +0.000 A 
ATOM     28  C   UNL     1      -3.330  11.722  17.979  0.00  0.00    +0.000 A 
ATOM     29  C   UNL     1      -3.356  10.705  17.018  0.00  0.00    +0.000 A 
ATOM     30  C   UNL     1      -2.302   9.807  16.942  0.00  0.00    +0.000 A 
ATOM     31  C   UNL     1      -1.250   9.931  17.839  0.00  0.00    +0.000 A 
ATOM     32  C   UNL     1      -1.260  10.893  18.845  0.00  0.00    +0.000 A 
ENDBRANCH   3  27
TORSDOF 3
ENDMDL
MODEL 9
REMARK VINA RESULT:      -6.2      2.217      3.397
REMARK  Name = 
REMARK  5 active torsions:
REMARK  status: ('A' for Active; 'I' for Inactive)
REMARK    1  A    between atoms: C_1  and  C_2
REMARK    2  A    between atoms: C_5  and  N_6
REMARK    3  A    between atoms: C_7  and  C_8
REMARK    4  A    between atoms: C_14  and  C_15
REMARK    5  A    between atoms: C_26  and  C_27
REMARK                            x       y       z     vdW  Elec       q    Type
REMARK                         _______ _______ _______ _____ _____    ______ ____
ROOT
ATOM      1  N   UNL     1      -2.849  14.273  21.332  0.00  0.00    +0.000 N 
ATOM      2  C   UNL     1      -3.499  13.341  20.477  0.00  0.00    +0.000 A 
ATOM      3  C   UNL     1      -2.491  12.736  19.676  0.00  0.00    +0.000 A 
ATOM      4  C   UNL     1      -1.257  13.315  20.076  0.00  0.00    +0.000 A 
ATOM      5  C   UNL     1      -1.494  14.266  21.046  0.00  0.00    +0.000 A 
ATOM      6  N   UNL     1      -0.575  15.039  21.722  0.00  0.00    +0.000 NA
ATOM      7  C   UNL     1       0.672  14.908  21.369  0.00  0.00    +0.000 A 
ATOM      8  N   UNL     1       1.068  13.994  20.404  0.00  0.00    +0.000 N 
ATOM      9  C   UNL     1       2.318  13.691  19.923  0.00  0.00    +0.000 A 
ATOM     10  C   UNL     1       3.572  14.337  20.367  0.00  0.00    +0.000 C 
ATOM     11  N   UNL     1       2.184  12.737  19.013  0.00  0.00    +0.000 NA
ATOM     12  N   UNL     1       0.837  12.428  18.888  0.00  0.00    +0.000 NA
ATOM     13  C   UNL     1       0.182  13.188  19.731  0.00  0.00    +0.000 A 
ENDROOT
BRANCH   1  18
ATOM     14  C   UNL     1      -4.903  17.758  25.405  0.00  0.00    +0.000 C 
ATOM     15  C   UNL     1      -4.389  16.850  24.334  0.00  0.00    +0.000 A 
ATOM     16  C   UNL     1      -4.325  17.277  23.005  0.00  0.00    +0.000 A 
ATOM     17  C   UNL     1      -3.877  16.409  22.002  0.00  0.00    +0.000 A 
ATOM     18  C   UNL     1      -3.422  15.124  22.329  0.00  0.00    +0.000 A 
ATOM     19  C   UNL     1      -3.499  14.700  23.662  0.00  0.00    +0.000 A 
ATOM     20  C   UNL     1      -3.998  15.548  24.658  0.00  0.00    +0.000 A 
ENDBRANCH   1  18
BRANCH   2  21
ATOM     21  C   UNL     1      -4.990  13.174  20.446  0.00  0.00    +0.000 A 
ATOM     22  C   UNL     1      -5.634  12.177  21.207  0.00  0.00    +0.000 A 
ATOM     23  C   UNL     1      -7.014  11.962  21.124  0.00  0.00    +0.000 A 
ATOM     24  C   UNL     1      -7.806  12.837  20.393  0.00  0.00    +0.000 A 
ATOM     25  C   UNL     1      -7.208  13.878  19.692  0.00  0.00    +0.000 A 
ATOM     26  C   UNL     1      -5.812  14.003  19.667  0.00  0.00    +0.000 A 
ENDBRANCH   2  21
BRANCH   3  27
ATOM     27  C   UNL     1      -2.725  11.714  18.632  0.00  0.00    +0.000 A 
ATOM     28  C   UNL     1      -1.854  10.627  18.453  0.00  0.00    +0.000 A 
ATOM     29  C   UNL     1      -1.977   9.745  17.373  0.00  0.00    +0.000 A 
ATOM     30  C   UNL     1      -3.052   9.869  16.505  0.00  0.00    +0.000 A 
ATOM     31  C   UNL     1      -3.975  10.883  16.722  0.00  0.00    +0.000 A 
ATOM     32  C   UNL     1      -3.812  11.809  17.749  0.00  0.00    +0.000 A 
ENDBRANCH   3  27
TORSDOF 3
ENDMDL
