MODEL 1
REMARK VINA RESULT:      -6.8      0.000      0.000
REMARK  Name = 
REMARK  10 active torsions:
REMARK  status: ('A' for Active; 'I' for Inactive)
REMARK    1  A    between atoms: C_1  and  N_2
REMARK    2  A    between atoms: N_2  and  C_3
REMARK    3  A    between atoms: N_2  and  C_4
REMARK    4  A    between atoms: N_2  and  C_16
REMARK    5  A    between atoms: C_4  and  C_5
REMARK    6  A    between atoms: C_5  and  C_6
REMARK    7  A    between atoms: C_6  and  C_7
REMARK    8  A    between atoms: C_7  and  O_8
REMARK    9  A    between atoms: O_8  and  C_9
REMARK   10  A    between atoms: C_16  and  C_17
REMARK                            x       y       z     vdW  Elec       q    Type
REMARK                         _______ _______ _______ _____ _____    ______ ____
ROOT
ATOM      1  C   UNL     1       6.075   6.711  17.257  0.00  0.00    +0.000 C 
ENDROOT
BRANCH   1   3
ATOM      2  C   UNL     1       4.931   4.503  16.899  0.00  0.00    +0.000 C 
ATOM      3  N   UNL     1       6.057   5.230  17.643  0.00  0.00    +0.000 N 
ATOM      4  C   UNL     1       7.364   4.530  17.328  0.00  0.00    +0.000 C 
BRANCH   3   5
ATOM      5  C   UNL     1       5.729   5.104  19.151  0.00  0.00    +0.000 C 
BRANCH   5   6
ATOM      6  C   UNL     1       4.278   5.078  19.501  0.00  0.00    +0.000 A 
ATOM      7  C   UNL     1       3.260   6.005  19.428  0.00  0.00    +0.000 A 
ATOM      8  C   UNL     1       2.104   5.377  19.961  0.00  0.00    +0.000 A 
ATOM      9  C   UNL     1       2.490   4.108  20.324  0.00  0.00    +0.000 A 
ATOM     10 BR   UNL     1       1.382   2.832  21.112  0.00  0.00    +0.000 Br
ATOM     11  O   UNL     1       3.804   3.912  20.034  0.00  0.00    +0.000 OA
ENDBRANCH   5   6
ENDBRANCH   3   5
ENDBRANCH   1   3
BRANCH   1  12
ATOM     12  C   UNL     1       7.476   7.287  17.023  0.00  0.00    +0.000 C 
BRANCH  12  13
ATOM     13  C   UNL     1       8.072   7.894  18.301  0.00  0.00    +0.000 C 
BRANCH  13  14
ATOM     14  C   UNL     1       8.424   9.368  18.113  0.00  0.00    +0.000 C 
BRANCH  14  15
ATOM     15  O   UNL     1       9.119   9.863  19.253  0.00  0.00    +0.000 OA
BRANCH  15  16
ATOM     16  C   UNL     1       9.683  11.106  19.115  0.00  0.00    +0.000 A 
ATOM     17  C   UNL     1      10.284  11.313  17.862  0.00  0.00    +0.000 A 
ATOM     18  C   UNL     1      10.970  12.494  17.572  0.00  0.00    +0.000 A 
ATOM     19  C   UNL     1      11.076  13.491  18.535  0.00  0.00    +0.000 A 
ATOM     20  C   UNL     1      10.487  13.304  19.787  0.00  0.00    +0.000 A 
ATOM     21  C   UNL     1       9.801  12.120  20.085  0.00  0.00    +0.000 A 
ATOM     22 CL   UNL     1       9.218  12.018  21.712  0.00  0.00    +0.000 Cl
ENDBRANCH  15  16
ENDBRANCH  14  15
ENDBRANCH  13  14
ENDBRANCH  12  13
ENDBRANCH   1  12
TORSDOF 8
ENDMDL
MODEL 2
REMARK VINA RESULT:      -6.8      1.310      1.813
REMARK  Name = 
REMARK  10 active torsions:
REMARK  status: ('A' for Active; 'I' for Inactive)
REMARK    1  A    between atoms: C_1  and  N_2
REMARK    2  A    between atoms: N_2  and  C_3
REMARK    3  A    between atoms: N_2  and  C_4
REMARK    4  A    between atoms: N_2  and  C_16
REMARK    5  A    between atoms: C_4  and  C_5
REMARK    6  A    between atoms: C_5  and  C_6
REMARK    7  A    between atoms: C_6  and  C_7
REMARK    8  A    between atoms: C_7  and  O_8
REMARK    9  A    between atoms: O_8  and  C_9
REMARK   10  A    between atoms: C_16  and  C_17
REMARK                            x       y       z     vdW  Elec       q    Type
REMARK                         _______ _______ _______ _____ _____    ______ ____
ROOT
ATOM      1  C   UNL     1       5.936   6.473  17.040  0.00  0.00    +0.000 C 
ENDROOT
BRANCH   1   3
ATOM      2  C   UNL     1       5.635   5.519  19.346  0.00  0.00    +0.000 C 
ATOM      3  N   UNL     1       4.945   5.825  18.010  0.00  0.00    +0.000 N 
ATOM      4  C   UNL     1       3.741   6.702  18.287  0.00  0.00    +0.000 C 
BRANCH   3   5
ATOM      5  C   UNL     1       4.495   4.459  17.436  0.00  0.00    +0.000 C 
BRANCH   5   6
ATOM      6  C   UNL     1       3.251   3.883  18.025  0.00  0.00    +0.000 A 
ATOM      7  C   UNL     1       2.009   3.568  17.515  0.00  0.00    +0.000 A 
ATOM      8  C   UNL     1       1.236   3.088  18.604  0.00  0.00    +0.000 A 
ATOM      9  C   UNL     1       2.055   3.141  19.708  0.00  0.00    +0.000 A 
ATOM     10 BR   UNL     1       1.559   2.655  21.439  0.00  0.00    +0.000 Br
ATOM     11  O   UNL     1       3.285   3.607  19.363  0.00  0.00    +0.000 OA
ENDBRANCH   5   6
ENDBRANCH   3   5
ENDBRANCH   1   3
BRANCH   1  12
ATOM     12  C   UNL     1       7.295   6.813  17.659  0.00  0.00    +0.000 C 
BRANCH  12  13
ATOM     13  C   UNL     1       7.753   8.234  17.301  0.00  0.00    +0.000 C 
BRANCH  13  14
ATOM     14  C   UNL     1       8.464   8.909  18.473  0.00  0.00    +0.000 C 
BRANCH  14  15
ATOM     15  O   UNL     1       8.463  10.323  18.307  0.00  0.00    +0.000 OA
BRANCH  15  16
ATOM     16  C   UNL     1       9.573  10.979  18.775  0.00  0.00    +0.000 A 
ATOM     17  C   UNL     1      10.544  11.213  17.787  0.00  0.00    +0.000 A 
ATOM     18  C   UNL     1      11.770  11.804  18.099  0.00  0.00    +0.000 A 
ATOM     19  C   UNL     1      12.054  12.167  19.410  0.00  0.00    +0.000 A 
ATOM     20  C   UNL     1      11.103  11.943  20.407  0.00  0.00    +0.000 A 
ATOM     21  C   UNL     1       9.873  11.346  20.101  0.00  0.00    +0.000 A 
ATOM     22 CL   UNL     1       8.855  11.056  21.472  0.00  0.00    +0.000 Cl
ENDBRANCH  15  16
ENDBRANCH  14  15
ENDBRANCH  13  14
ENDBRANCH  12  13
ENDBRANCH   1  12
TORSDOF 8
ENDMDL
MODEL 3
REMARK VINA RESULT:      -6.6      1.640      2.305
REMARK  Name = 
REMARK  10 active torsions:
REMARK  status: ('A' for Active; 'I' for Inactive)
REMARK    1  A    between atoms: C_1  and  N_2
REMARK    2  A    between atoms: N_2  and  C_3
REMARK    3  A    between atoms: N_2  and  C_4
REMARK    4  A    between atoms: N_2  and  C_16
REMARK    5  A    between atoms: C_4  and  C_5
REMARK    6  A    between atoms: C_5  and  C_6
REMARK    7  A    between atoms: C_6  and  C_7
REMARK    8  A    between atoms: C_7  and  O_8
REMARK    9  A    between atoms: O_8  and  C_9
REMARK   10  A    between atoms: C_16  and  C_17
REMARK                            x       y       z     vdW  Elec       q    Type
REMARK                         _______ _______ _______ _____ _____    ______ ____
ROOT
ATOM      1  C   UNL     1       7.301   6.918  17.054  0.00  0.00    +0.000 C 
ENDROOT
BRANCH   1   3
ATOM      2  C   UNL     1       6.847   4.477  16.666  0.00  0.00    +0.000 C 
ATOM      3  N   UNL     1       6.446   5.719  17.471  0.00  0.00    +0.000 N 
ATOM      4  C   UNL     1       6.579   5.393  18.945  0.00  0.00    +0.000 C 
BRANCH   3   5
ATOM      5  C   UNL     1       4.967   6.004  17.114  0.00  0.00    +0.000 C 
BRANCH   5   6
ATOM      6  C   UNL     1       3.979   4.979  17.562  0.00  0.00    +0.000 A 
ATOM      7  C   UNL     1       3.572   3.760  17.061  0.00  0.00    +0.000 A 
ATOM      8  C   UNL     1       2.558   3.285  17.933  0.00  0.00    +0.000 A 
ATOM      9  C   UNL     1       2.412   4.242  18.909  0.00  0.00    +0.000 A 
ATOM     10 BR   UNL     1       1.192   4.163  20.317  0.00  0.00    +0.000 Br
ATOM     11  O   UNL     1       3.281   5.266  18.702  0.00  0.00    +0.000 OA
ENDBRANCH   5   6
ENDBRANCH   3   5
ENDBRANCH   1   3
BRANCH   1  12
ATOM     12  C   UNL     1       8.025   7.611  18.212  0.00  0.00    +0.000 C 
BRANCH  12  13
ATOM     13  C   UNL     1       8.209   9.115  17.960  0.00  0.00    +0.000 C 
BRANCH  13  14
ATOM     14  C   UNL     1       9.062   9.768  19.047  0.00  0.00    +0.000 C 
BRANCH  14  15
ATOM     15  O   UNL     1       9.883  10.788  18.489  0.00  0.00    +0.000 OA
BRANCH  15  16
ATOM     16  C   UNL     1      10.071  11.898  19.274  0.00  0.00    +0.000 A 
ATOM     17  C   UNL     1       9.761  11.686  20.627  0.00  0.00    +0.000 A 
ATOM     18  C   UNL     1       9.824  12.727  21.557  0.00  0.00    +0.000 A 
ATOM     19  C   UNL     1      10.191  14.004  21.149  0.00  0.00    +0.000 A 
ATOM     20  C   UNL     1      10.501  14.235  19.808  0.00  0.00    +0.000 A 
ATOM     21  C   UNL     1      10.436  13.197  18.869  0.00  0.00    +0.000 A 
ATOM     22 CL   UNL     1      10.759  13.682  17.239  0.00  0.00    +0.000 Cl
ENDBRANCH  15  16
ENDBRANCH  14  15
ENDBRANCH  13  14
ENDBRANCH  12  13
ENDBRANCH   1  12
TORSDOF 8
ENDMDL
MODEL 4
REMARK VINA RESULT:      -6.6      5.254      8.834
REMARK  Name = 
REMARK  10 active torsions:
REMARK  status: ('A' for Active; 'I' for Inactive)
REMARK    1  A    between atoms: C_1  and  N_2
REMARK    2  A    between atoms: N_2  and  C_3
REMARK    3  A    between atoms: N_2  and  C_4
REMARK    4  A    between atoms: N_2  and  C_16
REMARK    5  A    between atoms: C_4  and  C_5
REMARK    6  A    between atoms: C_5  and  C_6
REMARK    7  A    between atoms: C_6  and  C_7
REMARK    8  A    between atoms: C_7  and  O_8
REMARK    9  A    between atoms: O_8  and  C_9
REMARK   10  A    between atoms: C_16  and  C_17
REMARK                            x       y       z     vdW  Elec       q    Type
REMARK                         _______ _______ _______ _____ _____    ______ ____
ROOT
ATOM      1  C   UNL     1       4.738   5.826  17.086  0.00  0.00    +0.000 C 
ENDROOT
BRANCH   1   3
ATOM      2  C   UNL     1       6.867   7.033  17.658  0.00  0.00    +0.000 C 
ATOM      3  N   UNL     1       6.078   5.727  17.817  0.00  0.00    +0.000 N 
ATOM      4  C   UNL     1       5.916   5.447  19.297  0.00  0.00    +0.000 C 
BRANCH   3   5
ATOM      5  C   UNL     1       6.936   4.623  17.151  0.00  0.00    +0.000 C 
BRANCH   5   6
ATOM      6  C   UNL     1       6.749   4.450  15.680  0.00  0.00    +0.000 A 
ATOM      7  C   UNL     1       5.982   3.605  14.907  0.00  0.00    +0.000 A 
ATOM      8  C   UNL     1       6.282   3.912  13.555  0.00  0.00    +0.000 A 
ATOM      9  C   UNL     1       7.213   4.924  13.589  0.00  0.00    +0.000 A 
ATOM     10 BR   UNL     1       7.997   5.714  12.093  0.00  0.00    +0.000 Br
ATOM     11  O   UNL     1       7.490   5.268  14.875  0.00  0.00    +0.000 OA
ENDBRANCH   5   6
ENDBRANCH   3   5
ENDBRANCH   1   3
BRANCH   1  12
ATOM     12  C   UNL     1       3.686   6.674  17.808  0.00  0.00    +0.000 C 
BRANCH  12  13
ATOM     13  C   UNL     1       2.574   5.812  18.426  0.00  0.00    +0.000 C 
BRANCH  13  14
ATOM     14  C   UNL     1       1.873   4.958  17.371  0.00  0.00    +0.000 C 
BRANCH  14  15
ATOM     15  O   UNL     1       1.117   3.924  17.991  0.00  0.00    +0.000 OA
BRANCH  15  16
ATOM     16  C   UNL     1       1.681   3.361  19.108  0.00  0.00    +0.000 A 
ATOM     17  C   UNL     1       0.943   3.587  20.282  0.00  0.00    +0.000 A 
ATOM     18  C   UNL     1       1.406   3.150  21.526  0.00  0.00    +0.000 A 
ATOM     19  C   UNL     1       2.622   2.483  21.621  0.00  0.00    +0.000 A 
ATOM     20  C   UNL     1       3.370   2.250  20.466  0.00  0.00    +0.000 A 
ATOM     21  C   UNL     1       2.914   2.690  19.216  0.00  0.00    +0.000 A 
ATOM     22 CL   UNL     1       4.012   2.402  17.909  0.00  0.00    +0.000 Cl
ENDBRANCH  15  16
ENDBRANCH  14  15
ENDBRANCH  13  14
ENDBRANCH  12  13
ENDBRANCH   1  12
TORSDOF 8
ENDMDL
MODEL 5
REMARK VINA RESULT:      -6.5      3.454      4.441
REMARK  Name = 
REMARK  10 active torsions:
REMARK  status: ('A' for Active; 'I' for Inactive)
REMARK    1  A    between atoms: C_1  and  N_2
REMARK    2  A    between atoms: N_2  and  C_3
REMARK    3  A    between atoms: N_2  and  C_4
REMARK    4  A    between atoms: N_2  and  C_16
REMARK    5  A    between atoms: C_4  and  C_5
REMARK    6  A    between atoms: C_5  and  C_6
REMARK    7  A    between atoms: C_6  and  C_7
REMARK    8  A    between atoms: C_7  and  O_8
REMARK    9  A    between atoms: O_8  and  C_9
REMARK   10  A    between atoms: C_16  and  C_17
REMARK                            x       y       z     vdW  Elec       q    Type
REMARK                         _______ _______ _______ _____ _____    ______ ____
ROOT
ATOM      1  C   UNL     1       7.858   6.933  18.510  0.00  0.00    +0.000 C 
ENDROOT
BRANCH   1   3
ATOM      2  C   UNL     1       6.130   5.341  19.400  0.00  0.00    +0.000 C 
ATOM      3  N   UNL     1       6.771   5.924  18.135  0.00  0.00    +0.000 N 
ATOM      4  C   UNL     1       5.675   6.535  17.286  0.00  0.00    +0.000 C 
BRANCH   3   5
ATOM      5  C   UNL     1       7.423   4.731  17.394  0.00  0.00    +0.000 C 
BRANCH   5   6
ATOM      6  C   UNL     1       6.959   4.501  15.994  0.00  0.00    +0.000 A 
ATOM      7  C   UNL     1       5.977   3.714  15.430  0.00  0.00    +0.000 A 
ATOM      8  C   UNL     1       6.065   3.905  14.027  0.00  0.00    +0.000 A 
ATOM      9  C   UNL     1       7.094   4.795  13.825  0.00  0.00    +0.000 A 
ATOM     10 BR   UNL     1       7.683   5.397  12.161  0.00  0.00    +0.000 Br
ATOM     11  O   UNL     1       7.632   5.174  15.014  0.00  0.00    +0.000 OA
ENDBRANCH   5   6
ENDBRANCH   3   5
ENDBRANCH   1   3
BRANCH   1  12
ATOM     12  C   UNL     1       8.084   8.035  17.469  0.00  0.00    +0.000 C 
BRANCH  12  13
ATOM     13  C   UNL     1       7.860   9.437  18.054  0.00  0.00    +0.000 C 
BRANCH  13  14
ATOM     14  C   UNL     1       9.137   9.996  18.680  0.00  0.00    +0.000 C 
BRANCH  14  15
ATOM     15  O   UNL     1       9.616  11.104  17.925  0.00  0.00    +0.000 OA
BRANCH  15  16
ATOM     16  C   UNL     1      10.187  12.118  18.652  0.00  0.00    +0.000 A 
ATOM     17  C   UNL     1       9.818  12.114  20.007  0.00  0.00    +0.000 A 
ATOM     18  C   UNL     1      10.247  13.117  20.879  0.00  0.00    +0.000 A 
ATOM     19  C   UNL     1      11.049  14.150  20.411  0.00  0.00    +0.000 A 
ATOM     20  C   UNL     1      11.427  14.173  19.067  0.00  0.00    +0.000 A 
ATOM     21  C   UNL     1      10.996  13.173  18.186  0.00  0.00    +0.000 A 
ATOM     22 CL   UNL     1      11.478  13.410  16.540  0.00  0.00    +0.000 Cl
ENDBRANCH  15  16
ENDBRANCH  14  15
ENDBRANCH  13  14
ENDBRANCH  12  13
ENDBRANCH   1  12
TORSDOF 8
ENDMDL
MODEL 6
REMARK VINA RESULT:      -6.5      5.581      7.393
REMARK  Name = 
REMARK  10 active torsions:
REMARK  status: ('A' for Active; 'I' for Inactive)
REMARK    1  A    between atoms: C_1  and  N_2
REMARK    2  A    between atoms: N_2  and  C_3
REMARK    3  A    between atoms: N_2  and  C_4
REMARK    4  A    between atoms: N_2  and  C_16
REMARK    5  A    between atoms: C_4  and  C_5
REMARK    6  A    between atoms: C_5  and  C_6
REMARK    7  A    between atoms: C_6  and  C_7
REMARK    8  A    between atoms: C_7  and  O_8
REMARK    9  A    between atoms: O_8  and  C_9
REMARK   10  A    between atoms: C_16  and  C_17
REMARK                            x       y       z     vdW  Elec       q    Type
REMARK                         _______ _______ _______ _____ _____    ______ ____
ROOT
ATOM      1  C   UNL     1       3.453   3.034  19.870  0.00  0.00    +0.000 C 
ENDROOT
BRANCH   1   3
ATOM      2  C   UNL     1       3.667   1.375  17.995  0.00  0.00    +0.000 C 
ATOM      3  N   UNL     1       2.896   2.595  18.514  0.00  0.00    +0.000 N 
ATOM      4  C   UNL     1       1.426   2.237  18.576  0.00  0.00    +0.000 C 
BRANCH   3   5
ATOM      5  C   UNL     1       3.133   3.725  17.482  0.00  0.00    +0.000 C 
BRANCH   5   6
ATOM      6  C   UNL     1       4.557   4.106  17.248  0.00  0.00    +0.000 A 
ATOM      7  C   UNL     1       5.444   3.897  16.213  0.00  0.00    +0.000 A 
ATOM      8  C   UNL     1       6.675   4.477  16.616  0.00  0.00    +0.000 A 
ATOM      9  C   UNL     1       6.460   5.002  17.868  0.00  0.00    +0.000 A 
ATOM     10 BR   UNL     1       7.745   5.868  18.906  0.00  0.00    +0.000 Br
ATOM     11  O   UNL     1       5.173   4.796  18.254  0.00  0.00    +0.000 OA
ENDBRANCH   5   6
ENDBRANCH   3   5
ENDBRANCH   1   3
BRANCH   1  12
ATOM     12  C   UNL     1       2.410   3.100  20.991  0.00  0.00    +0.000 C 
BRANCH  12  13
ATOM     13  C   UNL     1       2.215   4.530  21.514  0.00  0.00    +0.000 C 
BRANCH  13  14
ATOM     14  C   UNL     1       1.549   5.426  20.471  0.00  0.00    +0.000 C 
BRANCH  14  15
ATOM     15  O   UNL     1       2.391   6.530  20.154  0.00  0.00    +0.000 OA
BRANCH  15  16
ATOM     16  C   UNL     1       1.779   7.758  20.128  0.00  0.00    +0.000 A 
ATOM     17  C   UNL     1       1.052   8.047  21.295  0.00  0.00    +0.000 A 
ATOM     18  C   UNL     1       0.305   9.221  21.412  0.00  0.00    +0.000 A 
ATOM     19  C   UNL     1       0.265  10.129  20.360  0.00  0.00    +0.000 A 
ATOM     20  C   UNL     1       0.979   9.859  19.191  0.00  0.00    +0.000 A 
ATOM     21  C   UNL     1       1.726   8.681  19.065  0.00  0.00    +0.000 A 
ATOM     22 CL   UNL     1       2.469   8.464  17.516  0.00  0.00    +0.000 Cl
ENDBRANCH  15  16
ENDBRANCH  14  15
ENDBRANCH  13  14
ENDBRANCH  12  13
ENDBRANCH   1  12
TORSDOF 8
ENDMDL
MODEL 7
REMARK VINA RESULT:      -6.4      6.089      7.934
REMARK  Name = 
REMARK  10 active torsions:
REMARK  status: ('A' for Active; 'I' for Inactive)
REMARK    1  A    between atoms: C_1  and  N_2
REMARK    2  A    between atoms: N_2  and  C_3
REMARK    3  A    between atoms: N_2  and  C_4
REMARK    4  A    between atoms: N_2  and  C_16
REMARK    5  A    between atoms: C_4  and  C_5
REMARK    6  A    between atoms: C_5  and  C_6
REMARK    7  A    between atoms: C_6  and  C_7
REMARK    8  A    between atoms: C_7  and  O_8
REMARK    9  A    between atoms: O_8  and  C_9
REMARK   10  A    between atoms: C_16  and  C_17
REMARK                            x       y       z     vdW  Elec       q    Type
REMARK                         _______ _______ _______ _____ _____    ______ ____
ROOT
ATOM      1  C   UNL     1       3.442   6.076  19.185  0.00  0.00    +0.000 C 
ENDROOT
BRANCH   1   3
ATOM      2  C   UNL     1       2.196   4.361  20.533  0.00  0.00    +0.000 C 
ATOM      3  N   UNL     1       2.862   4.660  19.184  0.00  0.00    +0.000 N 
ATOM      4  C   UNL     1       1.834   4.451  18.091  0.00  0.00    +0.000 C 
BRANCH   3   5
ATOM      5  C   UNL     1       4.018   3.640  19.039  0.00  0.00    +0.000 C 
BRANCH   5   6
ATOM      6  C   UNL     1       5.108   4.022  18.094  0.00  0.00    +0.000 A 
ATOM      7  C   UNL     1       6.323   4.658  18.244  0.00  0.00    +0.000 A 
ATOM      8  C   UNL     1       6.884   4.764  16.945  0.00  0.00    +0.000 A 
ATOM      9  C   UNL     1       5.977   4.186  16.087  0.00  0.00    +0.000 A 
ATOM     10 BR   UNL     1       6.175   4.064  14.237  0.00  0.00    +0.000 Br
ATOM     11  O   UNL     1       4.903   3.720  16.778  0.00  0.00    +0.000 OA
ENDBRANCH   5   6
ENDBRANCH   3   5
ENDBRANCH   1   3
BRANCH   1  12
ATOM     12  C   UNL     1       2.410   7.182  18.936  0.00  0.00    +0.000 C 
BRANCH  12  13
ATOM     13  C   UNL     1       2.867   8.162  17.845  0.00  0.00    +0.000 C 
BRANCH  13  14
ATOM     14  C   UNL     1       2.044   9.449  17.865  0.00  0.00    +0.000 C 
BRANCH  14  15
ATOM     15  O   UNL     1       0.653   9.151  17.825  0.00  0.00    +0.000 OA
BRANCH  15  16
ATOM     16  C   UNL     1      -0.175  10.085  18.395  0.00  0.00    +0.000 A 
ATOM     17  C   UNL     1       0.316  10.605  19.604  0.00  0.00    +0.000 A 
ATOM     18  C   UNL     1      -0.429  11.513  20.360  0.00  0.00    +0.000 A 
ATOM     19  C   UNL     1      -1.687  11.913  19.924  0.00  0.00    +0.000 A 
ATOM     20  C   UNL     1      -2.193  11.407  18.726  0.00  0.00    +0.000 A 
ATOM     21  C   UNL     1      -1.452  10.493  17.966  0.00  0.00    +0.000 A 
ATOM     22 CL   UNL     1      -2.272   9.897  16.562  0.00  0.00    +0.000 Cl
ENDBRANCH  15  16
ENDBRANCH  14  15
ENDBRANCH  13  14
ENDBRANCH  12  13
ENDBRANCH   1  12
TORSDOF 8
ENDMDL
MODEL 8
REMARK VINA RESULT:      -6.4      5.512      7.861
REMARK  Name = 
REMARK  10 active torsions:
REMARK  status: ('A' for Active; 'I' for Inactive)
REMARK    1  A    between atoms: C_1  and  N_2
REMARK    2  A    between atoms: N_2  and  C_3
REMARK    3  A    between atoms: N_2  and  C_4
REMARK    4  A    between atoms: N_2  and  C_16
REMARK    5  A    between atoms: C_4  and  C_5
REMARK    6  A    between atoms: C_5  and  C_6
REMARK    7  A    between atoms: C_6  and  C_7
REMARK    8  A    between atoms: C_7  and  O_8
REMARK    9  A    between atoms: O_8  and  C_9
REMARK   10  A    between atoms: C_16  and  C_17
REMARK                            x       y       z     vdW  Elec       q    Type
REMARK                         _______ _______ _______ _____ _____    ______ ____
ROOT
ATOM      1  C   UNL     1       2.581   6.539  19.298  0.00  0.00    +0.000 C 
ENDROOT
BRANCH   1   3
ATOM      2  C   UNL     1       1.339   4.695  20.469  0.00  0.00    +0.000 C 
ATOM      3  N   UNL     1       2.353   5.027  19.368  0.00  0.00    +0.000 N 
ATOM      4  C   UNL     1       1.842   4.453  18.062  0.00  0.00    +0.000 C 
BRANCH   3   5
ATOM      5  C   UNL     1       3.676   4.335  19.778  0.00  0.00    +0.000 C 
BRANCH   5   6
ATOM      6  C   UNL     1       4.879   4.701  18.974  0.00  0.00    +0.000 A 
ATOM      7  C   UNL     1       6.034   5.403  19.247  0.00  0.00    +0.000 A 
ATOM      8  C   UNL     1       6.777   5.443  18.038  0.00  0.00    +0.000 A 
ATOM      9  C   UNL     1       6.028   4.763  17.106  0.00  0.00    +0.000 A 
ATOM     10 BR   UNL     1       6.501   4.518  15.319  0.00  0.00    +0.000 Br
ATOM     11  O   UNL     1       4.882   4.295  17.669  0.00  0.00    +0.000 OA
ENDBRANCH   5   6
ENDBRANCH   3   5
ENDBRANCH   1   3
BRANCH   1  12
ATOM     12  C   UNL     1       2.398   7.141  17.901  0.00  0.00    +0.000 C 
BRANCH  12  13
ATOM     13  C   UNL     1       1.901   8.593  17.959  0.00  0.00    +0.000 C 
BRANCH  13  14
ATOM     14  C   UNL     1       1.516   9.000  19.381  0.00  0.00    +0.000 C 
BRANCH  14  15
ATOM     15  O   UNL     1       0.226   9.601  19.394  0.00  0.00    +0.000 OA
BRANCH  15  16
ATOM     16  C   UNL     1      -0.184  10.106  20.601  0.00  0.00    +0.000 A 
ATOM     17  C   UNL     1      -0.009   9.213  21.671  0.00  0.00    +0.000 A 
ATOM     18  C   UNL     1      -0.439   9.532  22.961  0.00  0.00    +0.000 A 
ATOM     19  C   UNL     1      -1.061  10.751  23.206  0.00  0.00    +0.000 A 
ATOM     20  C   UNL     1      -1.245  11.652  22.156  0.00  0.00    +0.000 A 
ATOM     21  C   UNL     1      -0.821  11.336  20.859  0.00  0.00    +0.000 A 
ATOM     22 CL   UNL     1      -1.215  12.526  19.664  0.00  0.00    +0.000 Cl
ENDBRANCH  15  16
ENDBRANCH  14  15
ENDBRANCH  13  14
ENDBRANCH  12  13
ENDBRANCH   1  12
TORSDOF 8
ENDMDL
MODEL 9
REMARK VINA RESULT:      -6.3      5.652      7.452
REMARK  Name = 
REMARK  10 active torsions:
REMARK  status: ('A' for Active; 'I' for Inactive)
REMARK    1  A    between atoms: C_1  and  N_2
REMARK    2  A    between atoms: N_2  and  C_3
REMARK    3  A    between atoms: N_2  and  C_4
REMARK    4  A    between atoms: N_2  and  C_16
REMARK    5  A    between atoms: C_4  and  C_5
REMARK    6  A    between atoms: C_5  and  C_6
REMARK    7  A    between atoms: C_6  and  C_7
REMARK    8  A    between atoms: C_7  and  O_8
REMARK    9  A    between atoms: O_8  and  C_9
REMARK   10  A    between atoms: C_16  and  C_17
REMARK                            x       y       z     vdW  Elec       q    Type
REMARK                         _______ _______ _______ _____ _____    ______ ____
ROOT
ATOM      1  C   UNL     1       3.471   5.874  17.630  0.00  0.00    +0.000 C 
ENDROOT
BRANCH   1   3
ATOM      2  C   UNL     1       5.347   5.673  15.970  0.00  0.00    +0.000 C 
ATOM      3  N   UNL     1       4.850   5.268  17.364  0.00  0.00    +0.000 N 
ATOM      4  C   UNL     1       5.885   5.702  18.382  0.00  0.00    +0.000 C 
BRANCH   3   5
ATOM      5  C   UNL     1       4.729   3.724  17.344  0.00  0.00    +0.000 C 
BRANCH   5   6
ATOM      6  C   UNL     1       3.534   3.156  18.035  0.00  0.00    +0.000 A 
ATOM      7  C   UNL     1       2.396   2.509  17.600  0.00  0.00    +0.000 A 
ATOM      8  C   UNL     1       1.611   2.256  18.754  0.00  0.00    +0.000 A 
ATOM      9  C   UNL     1       2.318   2.764  19.818  0.00  0.00    +0.000 A 
ATOM     10 BR   UNL     1       1.752   2.740  21.595  0.00  0.00    +0.000 Br
ATOM     11  O   UNL     1       3.493   3.299  19.394  0.00  0.00    +0.000 OA
ENDBRANCH   5   6
ENDBRANCH   3   5
ENDBRANCH   1   3
BRANCH   1  12
ATOM     12  C   UNL     1       3.461   7.404  17.724  0.00  0.00    +0.000 C 
BRANCH  12  13
ATOM     13  C   UNL     1       2.291   7.921  18.574  0.00  0.00    +0.000 C 
BRANCH  13  14
ATOM     14  C   UNL     1       1.898   9.345  18.183  0.00  0.00    +0.000 C 
BRANCH  14  15
ATOM     15  O   UNL     1       0.578   9.368  17.652  0.00  0.00    +0.000 OA
BRANCH  15  16
ATOM     16  C   UNL     1      -0.291  10.244  18.252  0.00  0.00    +0.000 A 
ATOM     17  C   UNL     1       0.213  10.814  19.433  0.00  0.00    +0.000 A 
ATOM     18  C   UNL     1      -0.565  11.672  20.214  0.00  0.00    +0.000 A 
ATOM     19  C   UNL     1      -1.867  11.971  19.833  0.00  0.00    +0.000 A 
ATOM     20  C   UNL     1      -2.387  11.415  18.663  0.00  0.00    +0.000 A 
ATOM     21  C   UNL     1      -1.614  10.549  17.877  0.00  0.00    +0.000 A 
ATOM     22 CL   UNL     1      -2.449   9.877  16.517  0.00  0.00    +0.000 Cl
ENDBRANCH  15  16
ENDBRANCH  14  15
ENDBRANCH  13  14
ENDBRANCH  12  13
ENDBRANCH   1  12
TORSDOF 8
ENDMDL
