MODEL 1
REMARK VINA RESULT:      -7.6      0.000      0.000
REMARK  Name = 
REMARK  3 active torsions:
REMARK  status: ('A' for Active; 'I' for Inactive)
REMARK    1  A    between atoms: C_4  and  O_5
REMARK    2  A    between atoms: O_5  and  C_6
REMARK    3  A    between atoms: C_11  and  C_12
REMARK                            x       y       z     vdW  Elec       q    Type
REMARK                         _______ _______ _______ _____ _____    ______ ____
ROOT
ATOM      1  C   UNL     1       3.053   5.302  18.680  0.00  0.00    +0.000 A 
ATOM      2  N   UNL     1       2.079   4.474  19.146  0.00  0.00    +0.000 NA
ATOM      3  C   UNL     1       1.863   3.325  18.484  0.00  0.00    +0.000 A 
ATOM      4  C   UNL     1       2.596   2.941  17.386  0.00  0.00    +0.000 A 
ATOM      5  C   UNL     1       3.620   3.778  16.949  0.00  0.00    +0.000 A 
ATOM      6  C   UNL     1       3.883   5.005  17.587  0.00  0.00    +0.000 A 
ENDROOT
BRANCH   6   7
ATOM      7  C   UNL     1       5.049   5.904  17.169  0.00  0.00    +0.000 C 
ATOM      8  C   UNL     1       5.529   5.704  15.717  0.00  0.00    +0.000 C 
ATOM      9  C   UNL     1       6.427   4.479  15.557  0.00  0.00    +0.000 C 
ATOM     10  N   UNL     1       7.597   4.534  16.432  0.00  0.00    +0.000 NA
ATOM     11  C   UNL     1       7.204   4.660  17.833  0.00  0.00    +0.000 C 
ATOM     12  C   UNL     1       6.302   5.875  18.081  0.00  0.00    +0.000 C 
ATOM     13  H   UNL     1       8.176   5.333  16.171  0.00  0.00    +0.000 HD
ENDBRANCH   6   7
BRANCH   1  14
ATOM     14  O   UNL     1       3.276   6.476  19.391  0.00  0.00    +0.000 OA
BRANCH  14  18
ATOM     15  C   UNL     1       0.693   9.746  19.022  0.00  0.00    +0.000 A 
ATOM     16  C   UNL     1       0.865   9.096  20.243  0.00  0.00    +0.000 A 
ATOM     17  C   UNL     1       1.724   7.993  20.334  0.00  0.00    +0.000 A 
ATOM     18  C   UNL     1       2.403   7.534  19.203  0.00  0.00    +0.000 A 
ATOM     19  C   UNL     1       2.238   8.204  17.985  0.00  0.00    +0.000 A 
ATOM     20  C   UNL     1       1.377   9.299  17.893  0.00  0.00    +0.000 A 
ENDBRANCH  14  18
ENDBRANCH   1  14
TORSDOF 3
ENDMDL
MODEL 2
REMARK VINA RESULT:      -7.4      0.278      1.139
REMARK  Name = 
REMARK  3 active torsions:
REMARK  status: ('A' for Active; 'I' for Inactive)
REMARK    1  A    between atoms: C_4  and  O_5
REMARK    2  A    between atoms: O_5  and  C_6
REMARK    3  A    between atoms: C_11  and  C_12
REMARK                            x       y       z     vdW  Elec       q    Type
REMARK                         _______ _______ _______ _____ _____    ______ ____
ROOT
ATOM      1  C   UNL     1       2.932   5.457  18.779  0.00  0.00    +0.000 A 
ATOM      2  N   UNL     1       1.910   4.638  19.147  0.00  0.00    +0.000 NA
ATOM      3  C   UNL     1       1.689   3.539  18.407  0.00  0.00    +0.000 A 
ATOM      4  C   UNL     1       2.462   3.195  17.322  0.00  0.00    +0.000 A 
ATOM      5  C   UNL     1       3.533   4.019  16.987  0.00  0.00    +0.000 A 
ATOM      6  C   UNL     1       3.805   5.196  17.710  0.00  0.00    +0.000 A 
ENDROOT
BRANCH   6   7
ATOM      7  C   UNL     1       5.019   6.076  17.403  0.00  0.00    +0.000 C 
ATOM      8  C   UNL     1       5.416   6.131  15.914  0.00  0.00    +0.000 C 
ATOM      9  C   UNL     1       6.205   4.902  15.469  0.00  0.00    +0.000 C 
ATOM     10  N   UNL     1       7.414   4.702  16.267  0.00  0.00    +0.000 NA
ATOM     11  C   UNL     1       7.096   4.579  17.687  0.00  0.00    +0.000 C 
ATOM     12  C   UNL     1       6.306   5.782  18.216  0.00  0.00    +0.000 C 
ATOM     13  H   UNL     1       8.043   5.495  16.130  0.00  0.00    +0.000 HD
ENDBRANCH   6   7
BRANCH   1  14
ATOM     14  O   UNL     1       3.159   6.578  19.570  0.00  0.00    +0.000 OA
BRANCH  14  18
ATOM     15  C   UNL     1       0.543   9.783  18.950  0.00  0.00    +0.000 A 
ATOM     16  C   UNL     1       1.324   9.278  17.912  0.00  0.00    +0.000 A 
ATOM     17  C   UNL     1       2.204   8.214  18.152  0.00  0.00    +0.000 A 
ATOM     18  C   UNL     1       2.310   7.662  19.431  0.00  0.00    +0.000 A 
ATOM     19  C   UNL     1       1.510   8.165  20.463  0.00  0.00    +0.000 A 
ATOM     20  C   UNL     1       0.638   9.230  20.225  0.00  0.00    +0.000 A 
ENDBRANCH  14  18
ENDBRANCH   1  14
TORSDOF 3
ENDMDL
MODEL 3
REMARK VINA RESULT:      -7.0      1.858      4.258
REMARK  Name = 
REMARK  3 active torsions:
REMARK  status: ('A' for Active; 'I' for Inactive)
REMARK    1  A    between atoms: C_4  and  O_5
REMARK    2  A    between atoms: O_5  and  C_6
REMARK    3  A    between atoms: C_11  and  C_12
REMARK                            x       y       z     vdW  Elec       q    Type
REMARK                         _______ _______ _______ _____ _____    ______ ____
ROOT
ATOM      1  C   UNL     1       2.859   5.300  17.815  0.00  0.00    +0.000 A 
ATOM      2  N   UNL     1       1.952   6.274  18.099  0.00  0.00    +0.000 NA
ATOM      3  C   UNL     1       2.347   7.552  17.979  0.00  0.00    +0.000 A 
ATOM      4  C   UNL     1       3.605   7.915  17.557  0.00  0.00    +0.000 A 
ATOM      5  C   UNL     1       4.506   6.906  17.226  0.00  0.00    +0.000 A 
ATOM      6  C   UNL     1       4.160   5.547  17.350  0.00  0.00    +0.000 A 
ENDROOT
BRANCH   6   7
ATOM      7  C   UNL     1       5.110   4.425  16.922  0.00  0.00    +0.000 C 
ATOM      8  C   UNL     1       6.533   4.527  17.506  0.00  0.00    +0.000 C 
ATOM      9  C   UNL     1       7.404   5.537  16.762  0.00  0.00    +0.000 C 
ATOM     10  N   UNL     1       7.505   5.233  15.335  0.00  0.00    +0.000 NA
ATOM     11  C   UNL     1       6.187   5.185  14.709  0.00  0.00    +0.000 C 
ATOM     12  C   UNL     1       5.249   4.185  15.397  0.00  0.00    +0.000 C 
ATOM     13  H   UNL     1       7.969   4.331  15.214  0.00  0.00    +0.000 HD
ENDBRANCH   6   7
BRANCH   1  14
ATOM     14  O   UNL     1       2.425   3.983  17.925  0.00  0.00    +0.000 OA
BRANCH  14  18
ATOM     15  C   UNL     1       2.189   2.427  21.801  0.00  0.00    +0.000 A 
ATOM     16  C   UNL     1       3.395   2.445  21.102  0.00  0.00    +0.000 A 
ATOM     17  C   UNL     1       3.442   2.957  19.799  0.00  0.00    +0.000 A 
ATOM     18  C   UNL     1       2.282   3.442  19.191  0.00  0.00    +0.000 A 
ATOM     19  C   UNL     1       1.079   3.436  19.906  0.00  0.00    +0.000 A 
ATOM     20  C   UNL     1       1.031   2.919  21.203  0.00  0.00    +0.000 A 
ENDBRANCH  14  18
ENDBRANCH   1  14
TORSDOF 3
ENDMDL
MODEL 4
REMARK VINA RESULT:      -7.0      2.231      5.137
REMARK  Name = 
REMARK  3 active torsions:
REMARK  status: ('A' for Active; 'I' for Inactive)
REMARK    1  A    between atoms: C_4  and  O_5
REMARK    2  A    between atoms: O_5  and  C_6
REMARK    3  A    between atoms: C_11  and  C_12
REMARK                            x       y       z     vdW  Elec       q    Type
REMARK                         _______ _______ _______ _____ _____    ______ ____
ROOT
ATOM      1  C   UNL     1       3.282   6.051  18.790  0.00  0.00    +0.000 A 
ATOM      2  N   UNL     1       2.917   7.361  18.751  0.00  0.00    +0.000 NA
ATOM      3  C   UNL     1       1.988   7.780  19.625  0.00  0.00    +0.000 A 
ATOM      4  C   UNL     1       1.418   6.957  20.568  0.00  0.00    +0.000 A 
ATOM      5  C   UNL     1       1.836   5.630  20.627  0.00  0.00    +0.000 A 
ATOM      6  C   UNL     1       2.792   5.125  19.724  0.00  0.00    +0.000 A 
ENDROOT
BRANCH   6   7
ATOM      7  C   UNL     1       3.318   3.691  19.818  0.00  0.00    +0.000 C 
ATOM      8  C   UNL     1       3.530   2.991  18.461  0.00  0.00    +0.000 C 
ATOM      9  C   UNL     1       2.228   2.464  17.860  0.00  0.00    +0.000 C 
ATOM     10  N   UNL     1       1.539   1.541  18.760  0.00  0.00    +0.000 NA
ATOM     11  C   UNL     1       1.253   2.169  20.047  0.00  0.00    +0.000 C 
ATOM     12  C   UNL     1       2.515   2.720  20.722  0.00  0.00    +0.000 C 
ATOM     13  H   UNL     1       2.123   0.716  18.910  0.00  0.00    +0.000 HD
ENDBRANCH   6   7
BRANCH   1  14
ATOM     14  O   UNL     1       4.261   5.642  17.891  0.00  0.00    +0.000 OA
BRANCH  14  18
ATOM     15  C   UNL     1       8.229   6.823  18.489  0.00  0.00    +0.000 A 
ATOM     16  C   UNL     1       7.642   5.838  19.281  0.00  0.00    +0.000 A 
ATOM     17  C   UNL     1       6.305   5.474  19.069  0.00  0.00    +0.000 A 
ATOM     18  C   UNL     1       5.553   6.100  18.073  0.00  0.00    +0.000 A 
ATOM     19  C   UNL     1       6.157   7.076  17.271  0.00  0.00    +0.000 A 
ATOM     20  C   UNL     1       7.487   7.443  17.486  0.00  0.00    +0.000 A 
ENDBRANCH  14  18
ENDBRANCH   1  14
TORSDOF 3
ENDMDL
MODEL 5
REMARK VINA RESULT:      -6.9      2.076      5.754
REMARK  Name = 
REMARK  3 active torsions:
REMARK  status: ('A' for Active; 'I' for Inactive)
REMARK    1  A    between atoms: C_4  and  O_5
REMARK    2  A    between atoms: O_5  and  C_6
REMARK    3  A    between atoms: C_11  and  C_12
REMARK                            x       y       z     vdW  Elec       q    Type
REMARK                         _______ _______ _______ _____ _____    ______ ____
ROOT
ATOM      1  C   UNL     1       2.914   5.367  17.929  0.00  0.00    +0.000 A 
ATOM      2  N   UNL     1       3.233   6.679  17.766  0.00  0.00    +0.000 NA
ATOM      3  C   UNL     1       2.807   7.549  18.697  0.00  0.00    +0.000 A 
ATOM      4  C   UNL     1       2.095   7.169  19.810  0.00  0.00    +0.000 A 
ATOM      5  C   UNL     1       1.816   5.816  19.986  0.00  0.00    +0.000 A 
ATOM      6  C   UNL     1       2.218   4.857  19.036  0.00  0.00    +0.000 A 
ENDROOT
BRANCH   6   7
ATOM      7  C   UNL     1       1.985   3.359  19.247  0.00  0.00    +0.000 C 
ATOM      8  C   UNL     1       1.066   3.009  20.435  0.00  0.00    +0.000 C 
ATOM      9  C   UNL     1       1.790   3.076  21.778  0.00  0.00    +0.000 C 
ATOM     10  N   UNL     1       2.961   2.202  21.819  0.00  0.00    +0.000 NA
ATOM     11  C   UNL     1       3.903   2.527  20.752  0.00  0.00    +0.000 C 
ATOM     12  C   UNL     1       3.253   2.475  19.363  0.00  0.00    +0.000 C 
ATOM     13  H   UNL     1       2.660   1.231  21.720  0.00  0.00    +0.000 HD
ENDBRANCH   6   7
BRANCH   1  14
ATOM     14  O   UNL     1       3.382   4.480  16.966  0.00  0.00    +0.000 OA
BRANCH  14  18
ATOM     15  C   UNL     1       7.431   4.598  15.920  0.00  0.00    +0.000 A 
ATOM     16  C   UNL     1       6.435   4.538  14.947  0.00  0.00    +0.000 A 
ATOM     17  C   UNL     1       5.088   4.482  15.326  0.00  0.00    +0.000 A 
ATOM     18  C   UNL     1       4.736   4.477  16.678  0.00  0.00    +0.000 A 
ATOM     19  C   UNL     1       5.741   4.556  17.648  0.00  0.00    +0.000 A 
ATOM     20  C   UNL     1       7.085   4.605  17.270  0.00  0.00    +0.000 A 
ENDBRANCH  14  18
ENDBRANCH   1  14
TORSDOF 3
ENDMDL
MODEL 6
REMARK VINA RESULT:      -6.9      2.421      6.214
REMARK  Name = 
REMARK  3 active torsions:
REMARK  status: ('A' for Active; 'I' for Inactive)
REMARK    1  A    between atoms: C_4  and  O_5
REMARK    2  A    between atoms: O_5  and  C_6
REMARK    3  A    between atoms: C_11  and  C_12
REMARK                            x       y       z     vdW  Elec       q    Type
REMARK                         _______ _______ _______ _____ _____    ______ ____
ROOT
ATOM      1  C   UNL     1       4.989   5.006  16.837  0.00  0.00    +0.000 A 
ATOM      2  N   UNL     1       5.172   6.337  16.624  0.00  0.00    +0.000 NA
ATOM      3  C   UNL     1       4.269   7.185  17.142  0.00  0.00    +0.000 A 
ATOM      4  C   UNL     1       3.195   6.772  17.895  0.00  0.00    +0.000 A 
ATOM      5  C   UNL     1       3.048   5.410  18.144  0.00  0.00    +0.000 A 
ATOM      6  C   UNL     1       3.949   4.468  17.611  0.00  0.00    +0.000 A 
ENDROOT
BRANCH   6   7
ATOM      7  C   UNL     1       3.847   2.975  17.932  0.00  0.00    +0.000 C 
ATOM      8  C   UNL     1       2.494   2.329  17.571  0.00  0.00    +0.000 C 
ATOM      9  C   UNL     1       1.408   2.617  18.606  0.00  0.00    +0.000 C 
ATOM     10  N   UNL     1       1.793   2.177  19.946  0.00  0.00    +0.000 NA
ATOM     11  C   UNL     1       3.040   2.807  20.372  0.00  0.00    +0.000 C 
ATOM     12  C   UNL     1       4.187   2.558  19.386  0.00  0.00    +0.000 C 
ATOM     13  H   UNL     1       1.909   1.163  19.948  0.00  0.00    +0.000 HD
ENDBRANCH   6   7
BRANCH   1  14
ATOM     14  O   UNL     1       5.946   4.146  16.310  0.00  0.00    +0.000 OA
BRANCH  14  18
ATOM     15  C   UNL     1       6.933   4.306  12.248  0.00  0.00    +0.000 A 
ATOM     16  C   UNL     1       7.691   4.982  13.203  0.00  0.00    +0.000 A 
ATOM     17  C   UNL     1       7.328   4.924  14.555  0.00  0.00    +0.000 A 
ATOM     18  C   UNL     1       6.202   4.200  14.951  0.00  0.00    +0.000 A 
ATOM     19  C   UNL     1       5.457   3.509  13.988  0.00  0.00    +0.000 A 
ATOM     20  C   UNL     1       5.815   3.573  12.640  0.00  0.00    +0.000 A 
ENDBRANCH  14  18
ENDBRANCH   1  14
TORSDOF 3
ENDMDL
MODEL 7
REMARK VINA RESULT:      -6.9      2.087      5.672
REMARK  Name = 
REMARK  3 active torsions:
REMARK  status: ('A' for Active; 'I' for Inactive)
REMARK    1  A    between atoms: C_4  and  O_5
REMARK    2  A    between atoms: O_5  and  C_6
REMARK    3  A    between atoms: C_11  and  C_12
REMARK                            x       y       z     vdW  Elec       q    Type
REMARK                         _______ _______ _______ _____ _____    ______ ____
ROOT
ATOM      1  C   UNL     1       2.988   5.302  17.896  0.00  0.00    +0.000 A 
ATOM      2  N   UNL     1       3.309   6.613  17.721  0.00  0.00    +0.000 NA
ATOM      3  C   UNL     1       2.873   7.493  18.637  0.00  0.00    +0.000 A 
ATOM      4  C   UNL     1       2.147   7.127  19.746  0.00  0.00    +0.000 A 
ATOM      5  C   UNL     1       1.867   5.776  19.935  0.00  0.00    +0.000 A 
ATOM      6  C   UNL     1       2.279   4.805  19.001  0.00  0.00    +0.000 A 
ENDROOT
BRANCH   6   7
ATOM      7  C   UNL     1       2.045   3.310  19.227  0.00  0.00    +0.000 C 
ATOM      8  C   UNL     1       1.103   2.974  20.401  0.00  0.00    +0.000 C 
ATOM      9  C   UNL     1       1.801   3.061  21.758  0.00  0.00    +0.000 C 
ATOM     10  N   UNL     1       2.972   2.188  21.833  0.00  0.00    +0.000 NA
ATOM     11  C   UNL     1       3.934   2.501  20.779  0.00  0.00    +0.000 C 
ATOM     12  C   UNL     1       3.311   2.429  19.379  0.00  0.00    +0.000 C 
ATOM     13  H   UNL     1       2.674   1.216  21.740  0.00  0.00    +0.000 HD
ENDBRANCH   6   7
BRANCH   1  14
ATOM     14  O   UNL     1       3.468   4.404  16.949  0.00  0.00    +0.000 OA
BRANCH  14  18
ATOM     15  C   UNL     1       7.503   4.630  15.868  0.00  0.00    +0.000 A 
ATOM     16  C   UNL     1       7.116   4.569  17.206  0.00  0.00    +0.000 A 
ATOM     17  C   UNL     1       5.756   4.511  17.540  0.00  0.00    +0.000 A 
ATOM     18  C   UNL     1       4.784   4.523  16.538  0.00  0.00    +0.000 A 
ATOM     19  C   UNL     1       5.182   4.566  15.196  0.00  0.00    +0.000 A 
ATOM     20  C   UNL     1       6.537   4.631  14.864  0.00  0.00    +0.000 A 
ENDBRANCH  14  18
ENDBRANCH   1  14
TORSDOF 3
ENDMDL
MODEL 8
REMARK VINA RESULT:      -6.9      2.049      5.708
REMARK  Name = 
REMARK  3 active torsions:
REMARK  status: ('A' for Active; 'I' for Inactive)
REMARK    1  A    between atoms: C_4  and  O_5
REMARK    2  A    between atoms: O_5  and  C_6
REMARK    3  A    between atoms: C_11  and  C_12
REMARK                            x       y       z     vdW  Elec       q    Type
REMARK                         _______ _______ _______ _____ _____    ______ ____
ROOT
ATOM      1  C   UNL     1       4.317   5.640  18.139  0.00  0.00    +0.000 A 
ATOM      2  N   UNL     1       4.360   6.869  17.558  0.00  0.00    +0.000 NA
ATOM      3  C   UNL     1       3.333   7.705  17.782  0.00  0.00    +0.000 A 
ATOM      4  C   UNL     1       2.265   7.386  18.588  0.00  0.00    +0.000 A 
ATOM      5  C   UNL     1       2.259   6.142  19.213  0.00  0.00    +0.000 A 
ATOM      6  C   UNL     1       3.296   5.212  19.003  0.00  0.00    +0.000 A 
ENDROOT
BRANCH   6   7
ATOM      7  C   UNL     1       3.345   3.870  19.736  0.00  0.00    +0.000 C 
ATOM      8  C   UNL     1       3.715   2.663  18.850  0.00  0.00    +0.000 C 
ATOM      9  C   UNL     1       2.535   2.158  18.021  0.00  0.00    +0.000 C 
ATOM     10  N   UNL     1       1.391   1.792  18.855  0.00  0.00    +0.000 NA
ATOM     11  C   UNL     1       0.952   2.918  19.675  0.00  0.00    +0.000 C 
ATOM     12  C   UNL     1       2.082   3.482  20.546  0.00  0.00    +0.000 C 
ATOM     13  H   UNL     1       1.651   1.014  19.462  0.00  0.00    +0.000 HD
ENDBRANCH   6   7
BRANCH   1  14
ATOM     14  O   UNL     1       5.400   4.797  17.912  0.00  0.00    +0.000 OA
BRANCH  14  18
ATOM     15  C   UNL     1       6.620   4.438  13.927  0.00  0.00    +0.000 A 
ATOM     16  C   UNL     1       5.380   3.960  14.348  0.00  0.00    +0.000 A 
ATOM     17  C   UNL     1       5.004   4.079  15.693  0.00  0.00    +0.000 A 
ATOM     18  C   UNL     1       5.870   4.666  16.618  0.00  0.00    +0.000 A 
ATOM     19  C   UNL     1       7.106   5.159  16.182  0.00  0.00    +0.000 A 
ATOM     20  C   UNL     1       7.483   5.034  14.843  0.00  0.00    +0.000 A 
ENDBRANCH  14  18
ENDBRANCH   1  14
TORSDOF 3
ENDMDL
MODEL 9
REMARK VINA RESULT:      -6.9      1.860      4.225
REMARK  Name = 
REMARK  3 active torsions:
REMARK  status: ('A' for Active; 'I' for Inactive)
REMARK    1  A    between atoms: C_4  and  O_5
REMARK    2  A    between atoms: O_5  and  C_6
REMARK    3  A    between atoms: C_11  and  C_12
REMARK                            x       y       z     vdW  Elec       q    Type
REMARK                         _______ _______ _______ _____ _____    ______ ____
ROOT
ATOM      1  C   UNL     1       2.808   5.433  17.862  0.00  0.00    +0.000 A 
ATOM      2  N   UNL     1       1.921   6.427  18.135  0.00  0.00    +0.000 NA
ATOM      3  C   UNL     1       2.332   7.696  17.974  0.00  0.00    +0.000 A 
ATOM      4  C   UNL     1       3.587   8.028  17.522  0.00  0.00    +0.000 A 
ATOM      5  C   UNL     1       4.468   6.998  17.202  0.00  0.00    +0.000 A 
ATOM      6  C   UNL     1       4.105   5.647  17.369  0.00  0.00    +0.000 A 
ENDROOT
BRANCH   6   7
ATOM      7  C   UNL     1       5.031   4.501  16.955  0.00  0.00    +0.000 C 
ATOM      8  C   UNL     1       6.438   4.549  17.584  0.00  0.00    +0.000 C 
ATOM      9  C   UNL     1       7.364   5.539  16.879  0.00  0.00    +0.000 C 
ATOM     10  N   UNL     1       7.499   5.250  15.453  0.00  0.00    +0.000 NA
ATOM     11  C   UNL     1       6.199   5.253  14.786  0.00  0.00    +0.000 C 
ATOM     12  C   UNL     1       5.209   4.275  15.432  0.00  0.00    +0.000 C 
ATOM     13  H   UNL     1       7.937   4.335  15.334  0.00  0.00    +0.000 HD
ENDBRANCH   6   7
BRANCH   1  14
ATOM     14  O   UNL     1       2.357   4.126  18.015  0.00  0.00    +0.000 OA
BRANCH  14  18
ATOM     15  C   UNL     1       2.126   2.392  21.814  0.00  0.00    +0.000 A 
ATOM     16  C   UNL     1       1.005   2.958  21.210  0.00  0.00    +0.000 A 
ATOM     17  C   UNL     1       1.115   3.547  19.943  0.00  0.00    +0.000 A 
ATOM     18  C   UNL     1       2.347   3.579  19.285  0.00  0.00    +0.000 A 
ATOM     19  C   UNL     1       3.463   2.992  19.893  0.00  0.00    +0.000 A 
ATOM     20  C   UNL     1       3.355   2.412  21.158  0.00  0.00    +0.000 A 
ENDBRANCH  14  18
ENDBRANCH   1  14
TORSDOF 3
ENDMDL
