MODEL 1
REMARK VINA RESULT:      -7.8      0.000      0.000
REMARK  Name = 
REMARK  4 active torsions:
REMARK  status: ('A' for Active; 'I' for Inactive)
REMARK    1  A    between atoms: C_1  and  C_2
REMARK    2  A    between atoms: C_9  and  C_10
REMARK    3  A    between atoms: N_15  and  C_16
REMARK    4  A    between atoms: N_15  and  C_17
REMARK                            x       y       z     vdW  Elec       q    Type
REMARK                         _______ _______ _______ _____ _____    ______ ____
ROOT
ATOM      1  C   UNL     1       2.912   6.408  19.143  0.00  0.00    +0.000 C 
ATOM      2  C   UNL     1       2.493   5.002  19.492  0.00  0.00    +0.000 A 
ATOM      3  C   UNL     1       1.537   4.868  20.433  0.00  0.00    +0.000 A 
ATOM      4  C   UNL     1       1.064   3.516  20.778  0.00  0.00    +0.000 A 
ATOM      5  N   UNL     1       1.461   2.411  20.247  0.00  0.00    +0.000 NA
ATOM      6  N   UNL     1       2.416   2.597  19.313  0.00  0.00    +0.000 N 
ATOM      7  N   UNL     1       2.889   1.520  18.666  0.00  0.00    +0.000 NA
ATOM      8  C   UNL     1       3.819   2.018  17.854  0.00  0.00    +0.000 A 
ATOM      9  C   UNL     1       3.954   3.422  17.959  0.00  0.00    +0.000 A 
ATOM     10  C   UNL     1       2.997   3.789  18.900  0.00  0.00    +0.000 A 
ENDROOT
BRANCH   9  11
ATOM     11  C   UNL     1       4.856   4.290  17.215  0.00  0.00    +0.000 A 
ATOM     12  C   UNL     1       4.757   4.422  15.848  0.00  0.00    +0.000 A 
ATOM     13  C   UNL     1       5.619   5.327  15.285  0.00  0.00    +0.000 A 
ATOM     14  N   UNL     1       6.486   6.076  15.994  0.00  0.00    +0.000 NA
ATOM     15  C   UNL     1       6.537   5.868  17.317  0.00  0.00    +0.000 A 
ATOM     16  N   UNL     1       7.282   6.707  18.125  0.00  0.00    +0.000 N 
ATOM     17  C   UNL     1       7.805   7.931  17.557  0.00  0.00    +0.000 C 
ATOM     18  C   UNL     1       8.058   6.068  19.172  0.00  0.00    +0.000 C 
ATOM     19  N   UNL     1       5.776   4.952  17.931  0.00  0.00    +0.000 NA
ENDBRANCH   9  11
TORSDOF 1
ENDMDL
MODEL 2
REMARK VINA RESULT:      -6.8      1.312      2.534
REMARK  Name = 
REMARK  4 active torsions:
REMARK  status: ('A' for Active; 'I' for Inactive)
REMARK    1  A    between atoms: C_1  and  C_2
REMARK    2  A    between atoms: C_9  and  C_10
REMARK    3  A    between atoms: N_15  and  C_16
REMARK    4  A    between atoms: N_15  and  C_17
REMARK                            x       y       z     vdW  Elec       q    Type
REMARK                         _______ _______ _______ _____ _____    ______ ____
ROOT
ATOM      1  C   UNL     1       2.704   6.560  19.038  0.00  0.00    +0.000 C 
ATOM      2  C   UNL     1       2.417   5.136  19.444  0.00  0.00    +0.000 A 
ATOM      3  C   UNL     1       1.505   4.955  20.421  0.00  0.00    +0.000 A 
ATOM      4  C   UNL     1       1.158   3.581  20.824  0.00  0.00    +0.000 A 
ATOM      5  N   UNL     1       1.630   2.496  20.314  0.00  0.00    +0.000 NA
ATOM      6  N   UNL     1       2.536   2.728  19.342  0.00  0.00    +0.000 N 
ATOM      7  N   UNL     1       3.077   1.673  18.713  0.00  0.00    +0.000 NA
ATOM      8  C   UNL     1       3.936   2.218  17.854  0.00  0.00    +0.000 A 
ATOM      9  C   UNL     1       3.955   3.632  17.911  0.00  0.00    +0.000 A 
ATOM     10  C   UNL     1       3.001   3.950  18.872  0.00  0.00    +0.000 A 
ENDROOT
BRANCH   9  11
ATOM     11  C   UNL     1       4.758   4.546  17.110  0.00  0.00    +0.000 A 
ATOM     12  C   UNL     1       5.205   5.742  17.624  0.00  0.00    +0.000 A 
ATOM     13  C   UNL     1       6.013   6.471  16.789  0.00  0.00    +0.000 A 
ATOM     14  N   UNL     1       6.389   6.057  15.564  0.00  0.00    +0.000 NA
ATOM     15  C   UNL     1       5.888   4.892  15.128  0.00  0.00    +0.000 A 
ATOM     16  N   UNL     1       6.354   4.330  13.954  0.00  0.00    +0.000 N 
ATOM     17  C   UNL     1       7.536   4.893  13.338  0.00  0.00    +0.000 C 
ATOM     18  C   UNL     1       5.352   3.750  13.078  0.00  0.00    +0.000 C 
ATOM     19  N   UNL     1       5.038   4.157  15.859  0.00  0.00    +0.000 NA
ENDBRANCH   9  11
TORSDOF 1
ENDMDL
MODEL 3
REMARK VINA RESULT:      -6.7      1.410      2.577
REMARK  Name = 
REMARK  4 active torsions:
REMARK  status: ('A' for Active; 'I' for Inactive)
REMARK    1  A    between atoms: C_1  and  C_2
REMARK    2  A    between atoms: C_9  and  C_10
REMARK    3  A    between atoms: N_15  and  C_16
REMARK    4  A    between atoms: N_15  and  C_17
REMARK                            x       y       z     vdW  Elec       q    Type
REMARK                         _______ _______ _______ _____ _____    ______ ____
ROOT
ATOM      1  C   UNL     1       2.918   6.826  18.637  0.00  0.00    +0.000 C 
ATOM      2  C   UNL     1       2.757   5.569  19.454  0.00  0.00    +0.000 A 
ATOM      3  C   UNL     1       1.673   5.498  20.254  0.00  0.00    +0.000 A 
ATOM      4  C   UNL     1       1.449   4.273  21.040  0.00  0.00    +0.000 A 
ATOM      5  N   UNL     1       2.188   3.217  21.033  0.00  0.00    +0.000 NA
ATOM      6  N   UNL     1       3.258   3.336  20.221  0.00  0.00    +0.000 N 
ATOM      7  N   UNL     1       4.087   2.287  20.105  0.00  0.00    +0.000 NA
ATOM      8  C   UNL     1       5.038   2.720  19.279  0.00  0.00    +0.000 A 
ATOM      9  C   UNL     1       4.830   4.050  18.843  0.00  0.00    +0.000 A 
ATOM     10  C   UNL     1       3.634   4.426  19.446  0.00  0.00    +0.000 A 
ENDROOT
BRANCH   9  11
ATOM     11  C   UNL     1       5.657   4.829  17.932  0.00  0.00    +0.000 A 
ATOM     12  C   UNL     1       6.457   5.852  18.389  0.00  0.00    +0.000 A 
ATOM     13  C   UNL     1       7.239   6.452  17.436  0.00  0.00    +0.000 A 
ATOM     14  N   UNL     1       7.272   6.069  16.145  0.00  0.00    +0.000 NA
ATOM     15  C   UNL     1       6.443   5.082  15.776  0.00  0.00    +0.000 A 
ATOM     16  N   UNL     1       6.537   4.530  14.512  0.00  0.00    +0.000 N 
ATOM     17  C   UNL     1       7.680   4.869  13.692  0.00  0.00    +0.000 C 
ATOM     18  C   UNL     1       5.282   4.258  13.835  0.00  0.00    +0.000 C 
ATOM     19  N   UNL     1       5.600   4.493  16.635  0.00  0.00    +0.000 NA
ENDBRANCH   9  11
TORSDOF 1
ENDMDL
MODEL 4
REMARK VINA RESULT:      -6.6      1.537      5.889
REMARK  Name = 
REMARK  4 active torsions:
REMARK  status: ('A' for Active; 'I' for Inactive)
REMARK    1  A    between atoms: C_1  and  C_2
REMARK    2  A    between atoms: C_9  and  C_10
REMARK    3  A    between atoms: N_15  and  C_16
REMARK    4  A    between atoms: N_15  and  C_17
REMARK                            x       y       z     vdW  Elec       q    Type
REMARK                         _______ _______ _______ _____ _____    ______ ____
ROOT
ATOM      1  C   UNL     1       3.841   3.607  15.937  0.00  0.00    +0.000 C 
ATOM      2  C   UNL     1       5.168   4.271  15.674  0.00  0.00    +0.000 A 
ATOM      3  C   UNL     1       5.824   3.899  14.555  0.00  0.00    +0.000 A 
ATOM      4  C   UNL     1       7.105   4.549  14.232  0.00  0.00    +0.000 A 
ATOM      5  N   UNL     1       7.678   5.482  14.912  0.00  0.00    +0.000 NA
ATOM      6  N   UNL     1       6.987   5.820  16.019  0.00  0.00    +0.000 N 
ATOM      7  N   UNL     1       7.470   6.803  16.794  0.00  0.00    +0.000 NA
ATOM      8  C   UNL     1       6.601   6.874  17.800  0.00  0.00    +0.000 A 
ATOM      9  C   UNL     1       5.541   5.945  17.684  0.00  0.00    +0.000 A 
ATOM     10  C   UNL     1       5.794   5.283  16.487  0.00  0.00    +0.000 A 
ENDROOT
BRANCH   9  11
ATOM     11  C   UNL     1       4.416   5.757  18.589  0.00  0.00    +0.000 A 
ATOM     12  C   UNL     1       3.523   6.774  18.841  0.00  0.00    +0.000 A 
ATOM     13  C   UNL     1       2.469   6.440  19.652  0.00  0.00    +0.000 A 
ATOM     14  N   UNL     1       2.274   5.204  20.153  0.00  0.00    +0.000 NA
ATOM     15  C   UNL     1       3.204   4.277  19.882  0.00  0.00    +0.000 A 
ATOM     16  N   UNL     1       2.991   2.956  20.225  0.00  0.00    +0.000 N 
ATOM     17  C   UNL     1       1.669   2.559  20.662  0.00  0.00    +0.000 C 
ATOM     18  C   UNL     1       4.125   2.247  20.790  0.00  0.00    +0.000 C 
ATOM     19  N   UNL     1       4.297   4.547  19.154  0.00  0.00    +0.000 NA
ENDBRANCH   9  11
TORSDOF 1
ENDMDL
MODEL 5
REMARK VINA RESULT:      -6.6      1.316      1.432
REMARK  Name = 
REMARK  4 active torsions:
REMARK  status: ('A' for Active; 'I' for Inactive)
REMARK    1  A    between atoms: C_1  and  C_2
REMARK    2  A    between atoms: C_9  and  C_10
REMARK    3  A    between atoms: N_15  and  C_16
REMARK    4  A    between atoms: N_15  and  C_17
REMARK                            x       y       z     vdW  Elec       q    Type
REMARK                         _______ _______ _______ _____ _____    ______ ____
ROOT
ATOM      1  C   UNL     1       1.910   5.098  18.404  0.00  0.00    +0.000 C 
ATOM      2  C   UNL     1       2.029   4.150  19.570  0.00  0.00    +0.000 A 
ATOM      3  C   UNL     1       0.938   4.003  20.349  0.00  0.00    +0.000 A 
ATOM      4  C   UNL     1       0.991   3.057  21.477  0.00  0.00    +0.000 A 
ATOM      5  N   UNL     1       1.992   2.312  21.799  0.00  0.00    +0.000 NA
ATOM      6  N   UNL     1       3.058   2.494  20.993  0.00  0.00    +0.000 N 
ATOM      7  N   UNL     1       4.153   1.751  21.211  0.00  0.00    +0.000 NA
ATOM      8  C   UNL     1       5.019   2.179  20.294  0.00  0.00    +0.000 A 
ATOM      9  C   UNL     1       4.491   3.197  19.466  0.00  0.00    +0.000 A 
ATOM     10  C   UNL     1       3.187   3.367  19.920  0.00  0.00    +0.000 A 
ENDROOT
BRANCH   9  11
ATOM     11  C   UNL     1       5.150   3.879  18.361  0.00  0.00    +0.000 A 
ATOM     12  C   UNL     1       4.848   3.575  17.052  0.00  0.00    +0.000 A 
ATOM     13  C   UNL     1       5.485   4.344  16.112  0.00  0.00    +0.000 A 
ATOM     14  N   UNL     1       6.324   5.354  16.416  0.00  0.00    +0.000 NA
ATOM     15  C   UNL     1       6.584   5.567  17.714  0.00  0.00    +0.000 A 
ATOM     16  N   UNL     1       7.303   6.681  18.105  0.00  0.00    +0.000 N 
ATOM     17  C   UNL     1       7.562   7.717  17.128  0.00  0.00    +0.000 C 
ATOM     18  C   UNL     1       8.299   6.471  19.141  0.00  0.00    +0.000 C 
ATOM     19  N   UNL     1       6.053   4.813  18.686  0.00  0.00    +0.000 NA
ENDBRANCH   9  11
TORSDOF 1
ENDMDL
MODEL 6
REMARK VINA RESULT:      -6.6      1.889      3.188
REMARK  Name = 
REMARK  4 active torsions:
REMARK  status: ('A' for Active; 'I' for Inactive)
REMARK    1  A    between atoms: C_1  and  C_2
REMARK    2  A    between atoms: C_9  and  C_10
REMARK    3  A    between atoms: N_15  and  C_16
REMARK    4  A    between atoms: N_15  and  C_17
REMARK                            x       y       z     vdW  Elec       q    Type
REMARK                         _______ _______ _______ _____ _____    ______ ____
ROOT
ATOM      1  C   UNL     1       3.693   7.011  17.793  0.00  0.00    +0.000 C 
ATOM      2  C   UNL     1       3.139   5.799  18.499  0.00  0.00    +0.000 A 
ATOM      3  C   UNL     1       2.206   6.022  19.448  0.00  0.00    +0.000 A 
ATOM      4  C   UNL     1       1.603   4.868  20.136  0.00  0.00    +0.000 A 
ATOM      5  N   UNL     1       1.861   3.625  19.910  0.00  0.00    +0.000 NA
ATOM      6  N   UNL     1       2.798   3.454  18.955  0.00  0.00    +0.000 N 
ATOM      7  N   UNL     1       3.130   2.201  18.609  0.00  0.00    +0.000 NA
ATOM      8  C   UNL     1       4.080   2.363  17.690  0.00  0.00    +0.000 A 
ATOM      9  C   UNL     1       4.368   3.723  17.423  0.00  0.00    +0.000 A 
ATOM     10  C   UNL     1       3.489   4.426  18.241  0.00  0.00    +0.000 A 
ENDROOT
BRANCH   9  11
ATOM     11  C   UNL     1       5.332   4.261  16.475  0.00  0.00    +0.000 A 
ATOM     12  C   UNL     1       6.354   5.087  16.885  0.00  0.00    +0.000 A 
ATOM     13  C   UNL     1       7.234   5.461  15.901  0.00  0.00    +0.000 A 
ATOM     14  N   UNL     1       7.152   5.039  14.625  0.00  0.00    +0.000 NA
ATOM     15  C   UNL     1       6.110   4.257  14.302  0.00  0.00    +0.000 A 
ATOM     16  N   UNL     1       6.049   3.658  13.057  0.00  0.00    +0.000 N 
ATOM     17  C   UNL     1       7.223   3.699  12.211  0.00  0.00    +0.000 C 
ATOM     18  C   UNL     1       4.752   3.660  12.406  0.00  0.00    +0.000 C 
ATOM     19  N   UNL     1       5.172   3.906  15.192  0.00  0.00    +0.000 NA
ENDBRANCH   9  11
TORSDOF 1
ENDMDL
MODEL 7
REMARK VINA RESULT:      -6.6      3.093      4.771
REMARK  Name = 
REMARK  4 active torsions:
REMARK  status: ('A' for Active; 'I' for Inactive)
REMARK    1  A    between atoms: C_1  and  C_2
REMARK    2  A    between atoms: C_9  and  C_10
REMARK    3  A    between atoms: N_15  and  C_16
REMARK    4  A    between atoms: N_15  and  C_17
REMARK                            x       y       z     vdW  Elec       q    Type
REMARK                         _______ _______ _______ _____ _____    ______ ____
ROOT
ATOM      1  C   UNL     1       1.003   4.391  17.621  0.00  0.00    +0.000 C 
ATOM      2  C   UNL     1       2.232   3.691  18.144  0.00  0.00    +0.000 A 
ATOM      3  C   UNL     1       2.239   2.344  18.077  0.00  0.00    +0.000 A 
ATOM      4  C   UNL     1       3.434   1.616  18.536  0.00  0.00    +0.000 A 
ATOM      5  N   UNL     1       4.520   2.142  18.989  0.00  0.00    +0.000 NA
ATOM      6  N   UNL     1       4.464   3.489  19.037  0.00  0.00    +0.000 N 
ATOM      7  N   UNL     1       5.549   4.154  19.465  0.00  0.00    +0.000 NA
ATOM      8  C   UNL     1       5.176   5.431  19.429  0.00  0.00    +0.000 A 
ATOM      9  C   UNL     1       3.850   5.610  18.969  0.00  0.00    +0.000 A 
ATOM     10  C   UNL     1       3.410   4.321  18.683  0.00  0.00    +0.000 A 
ENDROOT
BRANCH   9  11
ATOM     11  C   UNL     1       3.127   6.862  18.792  0.00  0.00    +0.000 A 
ATOM     12  C   UNL     1       3.120   7.517  17.581  0.00  0.00    +0.000 A 
ATOM     13  C   UNL     1       2.340   8.644  17.532  0.00  0.00    +0.000 A 
ATOM     14  N   UNL     1       1.594   9.083  18.565  0.00  0.00    +0.000 NA
ATOM     15  C   UNL     1       1.678   8.401  19.717  0.00  0.00    +0.000 A 
ATOM     16  N   UNL     1       0.824   8.696  20.763  0.00  0.00    +0.000 N 
ATOM     17  C   UNL     1      -0.297   9.577  20.515  0.00  0.00    +0.000 C 
ATOM     18  C   UNL     1       1.417   8.721  22.088  0.00  0.00    +0.000 C 
ATOM     19  N   UNL     1       2.472   7.331  19.862  0.00  0.00    +0.000 NA
ENDBRANCH   9  11
TORSDOF 1
ENDMDL
MODEL 8
REMARK VINA RESULT:      -6.5      2.285      5.611
REMARK  Name = 
REMARK  4 active torsions:
REMARK  status: ('A' for Active; 'I' for Inactive)
REMARK    1  A    between atoms: C_1  and  C_2
REMARK    2  A    between atoms: C_9  and  C_10
REMARK    3  A    between atoms: N_15  and  C_16
REMARK    4  A    between atoms: N_15  and  C_17
REMARK                            x       y       z     vdW  Elec       q    Type
REMARK                         _______ _______ _______ _____ _____    ______ ____
ROOT
ATOM      1  C   UNL     1       3.398   4.174  16.300  0.00  0.00    +0.000 C 
ATOM      2  C   UNL     1       4.894   4.263  16.464  0.00  0.00    +0.000 A 
ATOM      3  C   UNL     1       5.644   3.919  15.397  0.00  0.00    +0.000 A 
ATOM      4  C   UNL     1       7.110   4.030  15.493  0.00  0.00    +0.000 A 
ATOM      5  N   UNL     1       7.777   4.454  16.512  0.00  0.00    +0.000 NA
ATOM      6  N   UNL     1       6.984   4.784  17.552  0.00  0.00    +0.000 N 
ATOM      7  N   UNL     1       7.562   5.268  18.662  0.00  0.00    +0.000 NA
ATOM      8  C   UNL     1       6.543   5.463  19.496  0.00  0.00    +0.000 A 
ATOM      9  C   UNL     1       5.292   5.115  18.933  0.00  0.00    +0.000 A 
ATOM     10  C   UNL     1       5.600   4.703  17.640  0.00  0.00    +0.000 A 
ENDROOT
BRANCH   9  11
ATOM     11  C   UNL     1       3.978   5.212  19.552  0.00  0.00    +0.000 A 
ATOM     12  C   UNL     1       3.405   4.133  20.187  0.00  0.00    +0.000 A 
ATOM     13  C   UNL     1       2.200   4.383  20.791  0.00  0.00    +0.000 A 
ATOM     14  N   UNL     1       1.610   5.594  20.811  0.00  0.00    +0.000 NA
ATOM     15  C   UNL     1       2.221   6.586  20.146  0.00  0.00    +0.000 A 
ATOM     16  N   UNL     1       1.760   7.885  20.256  0.00  0.00    +0.000 N 
ATOM     17  C   UNL     1       0.771   8.185  21.269  0.00  0.00    +0.000 C 
ATOM     18  C   UNL     1       1.720   8.659  19.029  0.00  0.00    +0.000 C 
ATOM     19  N   UNL     1       3.366   6.402  19.474  0.00  0.00    +0.000 NA
ENDBRANCH   9  11
TORSDOF 1
ENDMDL
MODEL 9
REMARK VINA RESULT:      -6.5      3.228      4.927
REMARK  Name = 
REMARK  4 active torsions:
REMARK  status: ('A' for Active; 'I' for Inactive)
REMARK    1  A    between atoms: C_1  and  C_2
REMARK    2  A    between atoms: C_9  and  C_10
REMARK    3  A    between atoms: N_15  and  C_16
REMARK    4  A    between atoms: N_15  and  C_17
REMARK                            x       y       z     vdW  Elec       q    Type
REMARK                         _______ _______ _______ _____ _____    ______ ____
ROOT
ATOM      1  C   UNL     1       0.987   4.787  20.468  0.00  0.00    +0.000 C 
ATOM      2  C   UNL     1       2.341   4.170  20.227  0.00  0.00    +0.000 A 
ATOM      3  C   UNL     1       2.529   2.916  20.690  0.00  0.00    +0.000 A 
ATOM      4  C   UNL     1       3.820   2.254  20.443  0.00  0.00    +0.000 A 
ATOM      5  N   UNL     1       4.818   2.747  19.793  0.00  0.00    +0.000 NA
ATOM      6  N   UNL     1       4.583   4.000  19.352  0.00  0.00    +0.000 N 
ATOM      7  N   UNL     1       5.539   4.610  18.633  0.00  0.00    +0.000 NA
ATOM      8  C   UNL     1       5.031   5.814  18.381  0.00  0.00    +0.000 A 
ATOM      9  C   UNL     1       3.737   5.995  18.924  0.00  0.00    +0.000 A 
ATOM     10  C   UNL     1       3.445   4.777  19.530  0.00  0.00    +0.000 A 
ENDROOT
BRANCH   9  11
ATOM     11  C   UNL     1       2.886   7.173  18.830  0.00  0.00    +0.000 A 
ATOM     12  C   UNL     1       2.654   7.792  17.622  0.00  0.00    +0.000 A 
ATOM     13  C   UNL     1       1.775   8.844  17.664  0.00  0.00    +0.000 A 
ATOM     14  N   UNL     1       1.141   9.244  18.783  0.00  0.00    +0.000 NA
ATOM     15  C   UNL     1       1.443   8.605  19.923  0.00  0.00    +0.000 A 
ATOM     16  N   UNL     1       0.718   8.852  21.073  0.00  0.00    +0.000 N 
ATOM     17  C   UNL     1      -0.502   9.624  20.969  0.00  0.00    +0.000 C 
ATOM     18  C   UNL     1       1.481   8.966  22.303  0.00  0.00    +0.000 C 
ATOM     19  N   UNL     1       2.343   7.613  19.973  0.00  0.00    +0.000 NA
ENDBRANCH   9  11
TORSDOF 1
ENDMDL
