MODEL 1
REMARK VINA RESULT:      -7.5      0.000      0.000
REMARK  Name = 
REMARK  6 active torsions:
REMARK  status: ('A' for Active; 'I' for Inactive)
REMARK    1  A    between atoms: C_1  and  C_2
REMARK    2  A    between atoms: C_2  and  C_3
REMARK    3  A    between atoms: C_2  and  C_4
REMARK    4  A    between atoms: C_2  and  C_5
REMARK    5  A    between atoms: N_7  and  C_8
REMARK    6  A    between atoms: N_19  and  C_20
REMARK                            x       y       z     vdW  Elec       q    Type
REMARK                         _______ _______ _______ _____ _____    ______ ____
ROOT
ATOM      1  C   UNL     1       4.686   5.524  18.776  0.00  0.00    +0.000 C 
ATOM      2  C   UNL     1       6.060   5.216  19.373  0.00  0.00    +0.000 C 
ATOM      3  C   UNL     1       7.262   5.638  18.531  0.00  0.00    +0.000 C 
ATOM      4  C   UNL     1       7.640   4.650  17.427  0.00  0.00    +0.000 C 
ATOM      5  C   UNL     1       6.947   4.833  16.079  0.00  0.00    +0.000 C 
ATOM      6  C   UNL     1       6.255   6.168  15.817  0.00  0.00    +0.000 C 
ATOM      7  C   UNL     1       5.944   7.028  17.044  0.00  0.00    +0.000 C 
ATOM      8  C   UNL     1       4.630   6.666  17.747  0.00  0.00    +0.000 C 
ATOM      9  N   UNL     1       7.055   6.972  17.985  0.00  0.00    +0.000 N 
ATOM     10  C   UNL     1       7.960   7.967  18.318  0.00  0.00    +0.000 C 
ATOM     11  O   UNL     1       8.875   7.720  19.108  0.00  0.00    +0.000 OA
ATOM     12  N   UNL     1       7.765   9.202  17.747  0.00  0.00    +0.000 N 
ATOM     13  H   UNL     1       6.847   9.399  17.387  0.00  0.00    +0.000 HD
ENDROOT
BRANCH  12  14
ATOM     14  C   UNL     1       8.586  10.337  17.955  0.00  0.00    +0.000 A 
ATOM     15  C   UNL     1       9.748  10.307  18.734  0.00  0.00    +0.000 A 
ATOM     16  C   UNL     1      10.454  11.479  19.018  0.00  0.00    +0.000 A 
ATOM     17  C   UNL     1      10.007  12.693  18.502  0.00  0.00    +0.000 A 
ATOM     18 CL   UNL     1      10.839  14.142  18.904  0.00  0.00    +0.000 Cl
ATOM     19  C   UNL     1       8.890  12.731  17.674  0.00  0.00    +0.000 A 
ATOM     20  C   UNL     1       8.189  11.552  17.387  0.00  0.00    +0.000 A 
ENDBRANCH  12  14
BRANCH   1  23
ATOM     21  C   UNL     1       3.137   3.625  19.093  0.00  0.00    +0.000 C 
ATOM     22  O   UNL     1       2.857   4.000  20.227  0.00  0.00    +0.000 OA
ATOM     23  N   UNL     1       4.026   4.319  18.289  0.00  0.00    +0.000 N 
ATOM     24  H   UNL     1       4.187   4.014  17.339  0.00  0.00    +0.000 HD
BRANCH  21  26
ATOM     25  C   UNL     1       2.386   2.561  16.946  0.00  0.00    +0.000 C 
ATOM     26  C   UNL     1       2.525   2.360  18.466  0.00  0.00    +0.000 C 
ATOM     27  C   UNL     1       1.132   2.097  19.056  0.00  0.00    +0.000 C 
ATOM     28  C   UNL     1       3.446   1.160  18.727  0.00  0.00    +0.000 C 
ENDBRANCH  21  26
ENDBRANCH   1  23
TORSDOF 3
ENDMDL
MODEL 2
REMARK VINA RESULT:      -7.3      0.230      1.302
REMARK  Name = 
REMARK  6 active torsions:
REMARK  status: ('A' for Active; 'I' for Inactive)
REMARK    1  A    between atoms: C_1  and  C_2
REMARK    2  A    between atoms: C_2  and  C_3
REMARK    3  A    between atoms: C_2  and  C_4
REMARK    4  A    between atoms: C_2  and  C_5
REMARK    5  A    between atoms: N_7  and  C_8
REMARK    6  A    between atoms: N_19  and  C_20
REMARK                            x       y       z     vdW  Elec       q    Type
REMARK                         _______ _______ _______ _____ _____    ______ ____
ROOT
ATOM      1  C   UNL     1       4.761   5.497  18.846  0.00  0.00    +0.000 C 
ATOM      2  C   UNL     1       6.167   5.188  19.366  0.00  0.00    +0.000 C 
ATOM      3  C   UNL     1       7.321   5.661  18.485  0.00  0.00    +0.000 C 
ATOM      4  C   UNL     1       7.659   4.723  17.327  0.00  0.00    +0.000 C 
ATOM      5  C   UNL     1       6.901   4.946  16.021  0.00  0.00    +0.000 C 
ATOM      6  C   UNL     1       6.178   6.280  15.845  0.00  0.00    +0.000 C 
ATOM      7  C   UNL     1       5.914   7.086  17.118  0.00  0.00    +0.000 C 
ATOM      8  C   UNL     1       4.641   6.677  17.867  0.00  0.00    +0.000 C 
ATOM      9  N   UNL     1       7.070   7.012  18.002  0.00  0.00    +0.000 N 
ATOM     10  C   UNL     1       7.976   8.007  18.331  0.00  0.00    +0.000 C 
ATOM     11  O   UNL     1       8.931   7.744  19.067  0.00  0.00    +0.000 OA
ATOM     12  N   UNL     1       7.736   9.261  17.818  0.00  0.00    +0.000 N 
ATOM     13  H   UNL     1       6.799   9.456  17.511  0.00  0.00    +0.000 HD
ENDROOT
BRANCH  12  14
ATOM     14  C   UNL     1       8.550  10.399  18.033  0.00  0.00    +0.000 A 
ATOM     15  C   UNL     1       8.321  11.631  17.410  0.00  0.00    +0.000 A 
ATOM     16  C   UNL     1       9.225  12.687  17.551  0.00  0.00    +0.000 A 
ATOM     17  C   UNL     1      10.361  12.520  18.339  0.00  0.00    +0.000 A 
ATOM     18 CL   UNL     1      11.504  13.797  18.460  0.00  0.00    +0.000 Cl
ATOM     19  C   UNL     1      10.571  11.323  19.015  0.00  0.00    +0.000 A 
ATOM     20  C   UNL     1       9.659  10.269  18.876  0.00  0.00    +0.000 A 
ENDBRANCH  12  14
BRANCH   1  23
ATOM     21  C   UNL     1       3.199   3.605  19.137  0.00  0.00    +0.000 C 
ATOM     22  O   UNL     1       2.915   3.970  20.274  0.00  0.00    +0.000 OA
ATOM     23  N   UNL     1       4.095   4.301  18.344  0.00  0.00    +0.000 N 
ATOM     24  H   UNL     1       4.260   4.005  17.392  0.00  0.00    +0.000 HD
BRANCH  21  26
ATOM     25  C   UNL     1       1.241   2.033  19.184  0.00  0.00    +0.000 C 
ATOM     26  C   UNL     1       2.581   2.351  18.495  0.00  0.00    +0.000 C 
ATOM     27  C   UNL     1       3.519   1.148  18.669  0.00  0.00    +0.000 C 
ATOM     28  C   UNL     1       2.323   2.610  17.003  0.00  0.00    +0.000 C 
ENDBRANCH  21  26
ENDBRANCH   1  23
TORSDOF 3
ENDMDL
MODEL 3
REMARK VINA RESULT:      -7.3      0.771      1.344
REMARK  Name = 
REMARK  6 active torsions:
REMARK  status: ('A' for Active; 'I' for Inactive)
REMARK    1  A    between atoms: C_1  and  C_2
REMARK    2  A    between atoms: C_2  and  C_3
REMARK    3  A    between atoms: C_2  and  C_4
REMARK    4  A    between atoms: C_2  and  C_5
REMARK    5  A    between atoms: N_7  and  C_8
REMARK    6  A    between atoms: N_19  and  C_20
REMARK                            x       y       z     vdW  Elec       q    Type
REMARK                         _______ _______ _______ _____ _____    ______ ____
ROOT
ATOM      1  C   UNL     1       4.655   5.672  18.761  0.00  0.00    +0.000 C 
ATOM      2  C   UNL     1       5.971   5.207  19.387  0.00  0.00    +0.000 C 
ATOM      3  C   UNL     1       7.239   5.561  18.613  0.00  0.00    +0.000 C 
ATOM      4  C   UNL     1       7.569   4.603  17.468  0.00  0.00    +0.000 C 
ATOM      5  C   UNL     1       6.950   4.920  16.109  0.00  0.00    +0.000 C 
ATOM      6  C   UNL     1       6.392   6.326  15.900  0.00  0.00    +0.000 C 
ATOM      7  C   UNL     1       6.111   7.144  17.162  0.00  0.00    +0.000 C 
ATOM      8  C   UNL     1       4.744   6.867  17.797  0.00  0.00    +0.000 C 
ATOM      9  N   UNL     1       7.175   6.936  18.136  0.00  0.00    +0.000 N 
ATOM     10  C   UNL     1       8.152   7.824  18.556  0.00  0.00    +0.000 C 
ATOM     11  O   UNL     1       9.009   7.452  19.363  0.00  0.00    +0.000 OA
ATOM     12  N   UNL     1       8.092   9.101  18.049  0.00  0.00    +0.000 N 
ATOM     13  H   UNL     1       7.209   9.400  17.670  0.00  0.00    +0.000 HD
ENDROOT
BRANCH  12  14
ATOM     14  C   UNL     1       9.002  10.142  18.351  0.00  0.00    +0.000 A 
ATOM     15  C   UNL     1       9.745  10.814  17.374  0.00  0.00    +0.000 A 
ATOM     16  C   UNL     1      10.726  11.744  17.730  0.00  0.00    +0.000 A 
ATOM     17  C   UNL     1      10.954  12.023  19.075  0.00  0.00    +0.000 A 
ATOM     18 CL   UNL     1      12.203  13.118  19.513  0.00  0.00    +0.000 Cl
ATOM     19  C   UNL     1      10.181  11.410  20.055  0.00  0.00    +0.000 A 
ATOM     20  C   UNL     1       9.194  10.483  19.694  0.00  0.00    +0.000 A 
ENDBRANCH  12  14
BRANCH   1  23
ATOM     21  C   UNL     1       3.102   3.762  18.977  0.00  0.00    +0.000 C 
ATOM     22  O   UNL     1       2.968   3.964  20.180  0.00  0.00    +0.000 OA
ATOM     23  N   UNL     1       3.909   4.561  18.183  0.00  0.00    +0.000 N 
ATOM     24  H   UNL     1       3.949   4.401  17.187  0.00  0.00    +0.000 HD
BRANCH  21  26
ATOM     25  C   UNL     1       3.134   1.294  18.518  0.00  0.00    +0.000 C 
ATOM     26  C   UNL     1       2.386   2.612  18.248  0.00  0.00    +0.000 C 
ATOM     27  C   UNL     1       2.374   2.868  16.734  0.00  0.00    +0.000 C 
ATOM     28  C   UNL     1       0.949   2.485  18.775  0.00  0.00    +0.000 C 
ENDBRANCH  21  26
ENDBRANCH   1  23
TORSDOF 3
ENDMDL
MODEL 4
REMARK VINA RESULT:      -6.9      6.894     10.319
REMARK  Name = 
REMARK  6 active torsions:
REMARK  status: ('A' for Active; 'I' for Inactive)
REMARK    1  A    between atoms: C_1  and  C_2
REMARK    2  A    between atoms: C_2  and  C_3
REMARK    3  A    between atoms: C_2  and  C_4
REMARK    4  A    between atoms: C_2  and  C_5
REMARK    5  A    between atoms: N_7  and  C_8
REMARK    6  A    between atoms: N_19  and  C_20
REMARK                            x       y       z     vdW  Elec       q    Type
REMARK                         _______ _______ _______ _____ _____    ______ ____
ROOT
ATOM      1  C   UNL     1       1.892  12.695  19.650  0.00  0.00    +0.000 C 
ATOM      2  C   UNL     1       1.501  12.106  21.006  0.00  0.00    +0.000 C 
ATOM      3  C   UNL     1       0.621  10.858  20.962  0.00  0.00    +0.000 C 
ATOM      4  C   UNL     1      -0.870  11.142  20.776  0.00  0.00    +0.000 C 
ATOM      5  C   UNL     1      -1.373  11.244  19.338  0.00  0.00    +0.000 C 
ATOM      6  C   UNL     1      -0.474  10.688  18.235  0.00  0.00    +0.000 C 
ATOM      7  C   UNL     1       0.997  10.475  18.597  0.00  0.00    +0.000 C 
ATOM      8  C   UNL     1       1.866  11.729  18.454  0.00  0.00    +0.000 C 
ATOM      9  N   UNL     1       1.104   9.934  19.946  0.00  0.00    +0.000 N 
ATOM     10  C   UNL     1       1.490   8.664  20.342  0.00  0.00    +0.000 C 
ATOM     11  O   UNL     1       1.474   8.367  21.540  0.00  0.00    +0.000 OA
ATOM     12  N   UNL     1       1.894   7.798  19.353  0.00  0.00    +0.000 N 
ATOM     13  H   UNL     1       2.177   8.206  18.478  0.00  0.00    +0.000 HD
ENDROOT
BRANCH  12  14
ATOM     14  C   UNL     1       2.313   6.462  19.558  0.00  0.00    +0.000 A 
ATOM     15  C   UNL     1       1.674   5.587  20.443  0.00  0.00    +0.000 A 
ATOM     16  C   UNL     1       2.200   4.321  20.710  0.00  0.00    +0.000 A 
ATOM     17  C   UNL     1       3.368   3.913  20.070  0.00  0.00    +0.000 A 
ATOM     18 CL   UNL     1       4.050   2.382  20.447  0.00  0.00    +0.000 Cl
ATOM     19  C   UNL     1       3.982   4.746  19.140  0.00  0.00    +0.000 A 
ATOM     20  C   UNL     1       3.447   6.013  18.871  0.00  0.00    +0.000 A 
ENDBRANCH  12  14
BRANCH   1  23
ATOM     21  C   UNL     1       1.820  15.153  19.398  0.00  0.00    +0.000 C 
ATOM     22  O   UNL     1       3.019  15.246  19.639  0.00  0.00    +0.000 OA
ATOM     23  N   UNL     1       1.169  13.930  19.369  0.00  0.00    +0.000 N 
ATOM     24  H   UNL     1       0.194  13.886  19.109  0.00  0.00    +0.000 HD
BRANCH  21  26
ATOM     25  C   UNL     1      -0.440  15.908  18.605  0.00  0.00    +0.000 C 
ATOM     26  C   UNL     1       0.939  16.379  19.102  0.00  0.00    +0.000 C 
ATOM     27  C   UNL     1       1.584  17.246  18.011  0.00  0.00    +0.000 C 
ATOM     28  C   UNL     1       0.751  17.198  20.387  0.00  0.00    +0.000 C 
ENDBRANCH  21  26
ENDBRANCH   1  23
TORSDOF 3
ENDMDL
MODEL 5
REMARK VINA RESULT:      -6.8      7.044     10.458
REMARK  Name = 
REMARK  6 active torsions:
REMARK  status: ('A' for Active; 'I' for Inactive)
REMARK    1  A    between atoms: C_1  and  C_2
REMARK    2  A    between atoms: C_2  and  C_3
REMARK    3  A    between atoms: C_2  and  C_4
REMARK    4  A    between atoms: C_2  and  C_5
REMARK    5  A    between atoms: N_7  and  C_8
REMARK    6  A    between atoms: N_19  and  C_20
REMARK                            x       y       z     vdW  Elec       q    Type
REMARK                         _______ _______ _______ _____ _____    ______ ____
ROOT
ATOM      1  C   UNL     1       1.883  12.902  19.630  0.00  0.00    +0.000 C 
ATOM      2  C   UNL     1       1.497  12.360  21.008  0.00  0.00    +0.000 C 
ATOM      3  C   UNL     1       0.623  11.108  21.010  0.00  0.00    +0.000 C 
ATOM      4  C   UNL     1      -0.870  11.378  20.816  0.00  0.00    +0.000 C 
ATOM      5  C   UNL     1      -1.376  11.426  19.376  0.00  0.00    +0.000 C 
ATOM      6  C   UNL     1      -0.477  10.834  18.293  0.00  0.00    +0.000 C 
ATOM      7  C   UNL     1       0.996  10.640  18.660  0.00  0.00    +0.000 C 
ATOM      8  C   UNL     1       1.860  11.893  18.470  0.00  0.00    +0.000 C 
ATOM      9  N   UNL     1       1.108  10.149  20.027  0.00  0.00    +0.000 N 
ATOM     10  C   UNL     1       1.500   8.896  20.469  0.00  0.00    +0.000 C 
ATOM     11  O   UNL     1       1.487   8.643  21.677  0.00  0.00    +0.000 OA
ATOM     12  N   UNL     1       1.906   7.997  19.511  0.00  0.00    +0.000 N 
ATOM     13  H   UNL     1       2.186   8.374  18.621  0.00  0.00    +0.000 HD
ENDROOT
BRANCH  12  14
ATOM     14  C   UNL     1       2.331   6.671  19.764  0.00  0.00    +0.000 A 
ATOM     15  C   UNL     1       3.475   6.110  19.184  0.00  0.00    +0.000 A 
ATOM     16  C   UNL     1       3.782   4.759  19.360  0.00  0.00    +0.000 A 
ATOM     17  C   UNL     1       2.951   3.961  20.142  0.00  0.00    +0.000 A 
ATOM     18 CL   UNL     1       3.295   2.285  20.307  0.00  0.00    +0.000 Cl
ATOM     19  C   UNL     1       1.845   4.517  20.777  0.00  0.00    +0.000 A 
ATOM     20  C   UNL     1       1.544   5.874  20.602  0.00  0.00    +0.000 A 
ENDBRANCH  12  14
BRANCH   1  23
ATOM     21  C   UNL     1       1.795  15.350  19.311  0.00  0.00    +0.000 C 
ATOM     22  O   UNL     1       2.990  15.461  19.566  0.00  0.00    +0.000 OA
ATOM     23  N   UNL     1       1.155  14.122  19.306  0.00  0.00    +0.000 N 
ATOM     24  H   UNL     1       0.184  14.063  19.033  0.00  0.00    +0.000 HD
BRANCH  21  26
ATOM     25  C   UNL     1       0.777  17.461  20.213  0.00  0.00    +0.000 C 
ATOM     26  C   UNL     1       0.908  16.561  18.970  0.00  0.00    +0.000 C 
ATOM     27  C   UNL     1      -0.493  16.093  18.553  0.00  0.00    +0.000 C 
ATOM     28  C   UNL     1       1.556  17.370  17.837  0.00  0.00    +0.000 C 
ENDBRANCH  21  26
ENDBRANCH   1  23
TORSDOF 3
ENDMDL
MODEL 6
REMARK VINA RESULT:      -6.7      8.432     10.503
REMARK  Name = 
REMARK  6 active torsions:
REMARK  status: ('A' for Active; 'I' for Inactive)
REMARK    1  A    between atoms: C_1  and  C_2
REMARK    2  A    between atoms: C_2  and  C_3
REMARK    3  A    between atoms: C_2  and  C_4
REMARK    4  A    between atoms: C_2  and  C_5
REMARK    5  A    between atoms: N_7  and  C_8
REMARK    6  A    between atoms: N_19  and  C_20
REMARK                            x       y       z     vdW  Elec       q    Type
REMARK                         _______ _______ _______ _____ _____    ______ ____
ROOT
ATOM      1  C   UNL     1      -1.817  11.739  21.058  0.00  0.00    +0.000 C 
ATOM      2  C   UNL     1      -1.885  11.634  19.534  0.00  0.00    +0.000 C 
ATOM      3  C   UNL     1      -0.541  11.591  18.809  0.00  0.00    +0.000 C 
ATOM      4  C   UNL     1       0.098  12.961  18.579  0.00  0.00    +0.000 C 
ATOM      5  C   UNL     1       0.998  13.493  19.692  0.00  0.00    +0.000 C 
ATOM      6  C   UNL     1       1.493  12.494  20.735  0.00  0.00    +0.000 C 
ATOM      7  C   UNL     1       0.727  11.173  20.833  0.00  0.00    +0.000 C 
ATOM      8  C   UNL     1      -0.523  11.238  21.719  0.00  0.00    +0.000 C 
ATOM      9  N   UNL     1       0.379  10.700  19.500  0.00  0.00    +0.000 N 
ATOM     10  C   UNL     1       0.885   9.611  18.808  0.00  0.00    +0.000 C 
ATOM     11  O   UNL     1       0.503   9.389  17.656  0.00  0.00    +0.000 OA
ATOM     12  N   UNL     1       1.790   8.817  19.472  0.00  0.00    +0.000 N 
ATOM     13  H   UNL     1       1.798   8.876  20.476  0.00  0.00    +0.000 HD
ENDROOT
BRANCH  12  14
ATOM     14  C   UNL     1       2.422   7.671  18.931  0.00  0.00    +0.000 A 
ATOM     15  C   UNL     1       3.306   7.725  17.849  0.00  0.00    +0.000 A 
ATOM     16  C   UNL     1       3.804   6.556  17.267  0.00  0.00    +0.000 A 
ATOM     17  C   UNL     1       3.431   5.318  17.784  0.00  0.00    +0.000 A 
ATOM     18 CL   UNL     1       3.992   3.880  17.029  0.00  0.00    +0.000 Cl
ATOM     19  C   UNL     1       2.603   5.249  18.899  0.00  0.00    +0.000 A 
ATOM     20  C   UNL     1       2.111   6.423  19.483  0.00  0.00    +0.000 A 
ENDBRANCH  12  14
BRANCH   1  23
ATOM     21  C   UNL     1      -3.170  13.234  22.486  0.00  0.00    +0.000 C 
ATOM     22  O   UNL     1      -3.751  12.279  22.994  0.00  0.00    +0.000 OA
ATOM     23  N   UNL     1      -2.187  13.070  21.525  0.00  0.00    +0.000 N 
ATOM     24  H   UNL     1      -1.690  13.875  21.172  0.00  0.00    +0.000 HD
BRANCH  21  26
ATOM     25  C   UNL     1      -3.610  14.790  24.408  0.00  0.00    +0.000 C 
ATOM     26  C   UNL     1      -3.479  14.690  22.877  0.00  0.00    +0.000 C 
ATOM     27  C   UNL     1      -4.802  15.141  22.241  0.00  0.00    +0.000 C 
ATOM     28  C   UNL     1      -2.332  15.601  22.416  0.00  0.00    +0.000 C 
ENDBRANCH  21  26
ENDBRANCH   1  23
TORSDOF 3
ENDMDL
MODEL 7
REMARK VINA RESULT:      -6.7      8.504     10.530
REMARK  Name = 
REMARK  6 active torsions:
REMARK  status: ('A' for Active; 'I' for Inactive)
REMARK    1  A    between atoms: C_1  and  C_2
REMARK    2  A    between atoms: C_2  and  C_3
REMARK    3  A    between atoms: C_2  and  C_4
REMARK    4  A    between atoms: C_2  and  C_5
REMARK    5  A    between atoms: N_7  and  C_8
REMARK    6  A    between atoms: N_19  and  C_20
REMARK                            x       y       z     vdW  Elec       q    Type
REMARK                         _______ _______ _______ _____ _____    ______ ____
ROOT
ATOM      1  C   UNL     1      -1.821  11.813  21.322  0.00  0.00    +0.000 C 
ATOM      2  C   UNL     1      -1.973  11.723  19.802  0.00  0.00    +0.000 C 
ATOM      3  C   UNL     1      -0.672  11.683  19.004  0.00  0.00    +0.000 C 
ATOM      4  C   UNL     1      -0.042  13.054  18.752  0.00  0.00    +0.000 C 
ATOM      5  C   UNL     1       0.920  13.571  19.819  0.00  0.00    +0.000 C 
ATOM      6  C   UNL     1       1.469  12.561  20.823  0.00  0.00    +0.000 C 
ATOM      7  C   UNL     1       0.704  11.241  20.950  0.00  0.00    +0.000 C 
ATOM      8  C   UNL     1      -0.494  11.300  21.905  0.00  0.00    +0.000 C 
ATOM      9  N   UNL     1       0.282  10.782  19.634  0.00  0.00    +0.000 N 
ATOM     10  C   UNL     1       0.745   9.699  18.904  0.00  0.00    +0.000 C 
ATOM     11  O   UNL     1       0.298   9.490  17.772  0.00  0.00    +0.000 OA
ATOM     12  N   UNL     1       1.682   8.895  19.509  0.00  0.00    +0.000 N 
ATOM     13  H   UNL     1       1.746   8.945  20.511  0.00  0.00    +0.000 HD
ENDROOT
BRANCH  12  14
ATOM     14  C   UNL     1       2.278   7.753  18.922  0.00  0.00    +0.000 A 
ATOM     15  C   UNL     1       2.089   6.456  19.410  0.00  0.00    +0.000 A 
ATOM     16  C   UNL     1       2.801   5.376  18.880  0.00  0.00    +0.000 A 
ATOM     17  C   UNL     1       3.697   5.590  17.835  0.00  0.00    +0.000 A 
ATOM     18 CL   UNL     1       4.618   4.274  17.226  0.00  0.00    +0.000 Cl
ATOM     19  C   UNL     1       3.849   6.863  17.296  0.00  0.00    +0.000 A 
ATOM     20  C   UNL     1       3.129   7.941  17.827  0.00  0.00    +0.000 A 
ENDBRANCH  12  14
BRANCH   1  23
ATOM     21  C   UNL     1      -3.107  13.300  22.819  0.00  0.00    +0.000 C 
ATOM     22  O   UNL     1      -3.681  12.343  23.331  0.00  0.00    +0.000 OA
ATOM     23  N   UNL     1      -2.160  13.140  21.822  0.00  0.00    +0.000 N 
ATOM     24  H   UNL     1      -1.665  13.945  21.465  0.00  0.00    +0.000 HD
BRANCH  21  26
ATOM     25  C   UNL     1      -4.890  15.047  23.089  0.00  0.00    +0.000 C 
ATOM     26  C   UNL     1      -3.386  14.753  23.242  0.00  0.00    +0.000 C 
ATOM     27  C   UNL     1      -2.602  15.725  22.349  0.00  0.00    +0.000 C 
ATOM     28  C   UNL     1      -2.989  14.945  24.712  0.00  0.00    +0.000 C 
ENDBRANCH  21  26
ENDBRANCH   1  23
TORSDOF 3
ENDMDL
MODEL 8
REMARK VINA RESULT:      -6.7      6.656     10.033
REMARK  Name = 
REMARK  6 active torsions:
REMARK  status: ('A' for Active; 'I' for Inactive)
REMARK    1  A    between atoms: C_1  and  C_2
REMARK    2  A    between atoms: C_2  and  C_3
REMARK    3  A    between atoms: C_2  and  C_4
REMARK    4  A    between atoms: C_2  and  C_5
REMARK    5  A    between atoms: N_7  and  C_8
REMARK    6  A    between atoms: N_19  and  C_20
REMARK                            x       y       z     vdW  Elec       q    Type
REMARK                         _______ _______ _______ _____ _____    ______ ____
ROOT
ATOM      1  C   UNL     1       1.860  12.220  19.634  0.00  0.00    +0.000 C 
ATOM      2  C   UNL     1       1.437  11.408  20.859  0.00  0.00    +0.000 C 
ATOM      3  C   UNL     1       0.628  10.144  20.573  0.00  0.00    +0.000 C 
ATOM      4  C   UNL     1      -0.865  10.386  20.351  0.00  0.00    +0.000 C 
ATOM      5  C   UNL     1      -1.305  10.691  18.921  0.00  0.00    +0.000 C 
ATOM      6  C   UNL     1      -0.326  10.356  17.797  0.00  0.00    +0.000 C 
ATOM      7  C   UNL     1       1.135  10.154  18.202  0.00  0.00    +0.000 C 
ATOM      8  C   UNL     1       1.943  11.454  18.303  0.00  0.00    +0.000 C 
ATOM      9  N   UNL     1       1.207   9.414  19.454  0.00  0.00    +0.000 N 
ATOM     10  C   UNL     1       1.640   8.116  19.670  0.00  0.00    +0.000 C 
ATOM     11  O   UNL     1       1.583   7.634  20.805  0.00  0.00    +0.000 OA
ATOM     12  N   UNL     1       2.136   7.436  18.583  0.00  0.00    +0.000 N 
ATOM     13  H   UNL     1       2.438   7.988  17.799  0.00  0.00    +0.000 HD
ENDROOT
BRANCH  12  14
ATOM     14  C   UNL     1       2.615   6.104  18.602  0.00  0.00    +0.000 A 
ATOM     15  C   UNL     1       1.866   5.015  18.141  0.00  0.00    +0.000 A 
ATOM     16  C   UNL     1       2.327   3.706  18.300  0.00  0.00    +0.000 A 
ATOM     17  C   UNL     1       3.561   3.480  18.906  0.00  0.00    +0.000 A 
ATOM     18 CL   UNL     1       4.098   1.868  19.158  0.00  0.00    +0.000 Cl
ATOM     19  C   UNL     1       4.345   4.554  19.312  0.00  0.00    +0.000 A 
ATOM     20  C   UNL     1       3.882   5.865  19.146  0.00  0.00    +0.000 A 
ENDBRANCH  12  14
BRANCH   1  23
ATOM     21  C   UNL     1       1.715  14.684  19.524  0.00  0.00    +0.000 C 
ATOM     22  O   UNL     1       2.934  14.794  19.625  0.00  0.00    +0.000 OA
ATOM     23  N   UNL     1       1.088  13.450  19.507  0.00  0.00    +0.000 N 
ATOM     24  H   UNL     1       0.090  13.396  19.363  0.00  0.00    +0.000 HD
BRANCH  21  26
ATOM     25  C   UNL     1       1.310  16.837  18.296  0.00  0.00    +0.000 C 
ATOM     26  C   UNL     1       0.784  15.903  19.402  0.00  0.00    +0.000 C 
ATOM     27  C   UNL     1       0.752  16.681  20.725  0.00  0.00    +0.000 C 
ATOM     28  C   UNL     1      -0.629  15.435  19.028  0.00  0.00    +0.000 C 
ENDBRANCH  21  26
ENDBRANCH   1  23
TORSDOF 3
ENDMDL
MODEL 9
REMARK VINA RESULT:      -6.5      6.737     10.053
REMARK  Name = 
REMARK  6 active torsions:
REMARK  status: ('A' for Active; 'I' for Inactive)
REMARK    1  A    between atoms: C_1  and  C_2
REMARK    2  A    between atoms: C_2  and  C_3
REMARK    3  A    between atoms: C_2  and  C_4
REMARK    4  A    between atoms: C_2  and  C_5
REMARK    5  A    between atoms: N_7  and  C_8
REMARK    6  A    between atoms: N_19  and  C_20
REMARK                            x       y       z     vdW  Elec       q    Type
REMARK                         _______ _______ _______ _____ _____    ______ ____
ROOT
ATOM      1  C   UNL     1       1.838  12.258  19.594  0.00  0.00    +0.000 C 
ATOM      2  C   UNL     1       1.488  11.429  20.832  0.00  0.00    +0.000 C 
ATOM      3  C   UNL     1       0.670  10.165  20.577  0.00  0.00    +0.000 C 
ATOM      4  C   UNL     1      -0.835  10.402  20.443  0.00  0.00    +0.000 C 
ATOM      5  C   UNL     1      -1.355  10.720  19.043  0.00  0.00    +0.000 C 
ATOM      6  C   UNL     1      -0.441  10.404  17.862  0.00  0.00    +0.000 C 
ATOM      7  C   UNL     1       1.043  10.205  18.182  0.00  0.00    +0.000 C 
ATOM      8  C   UNL     1       1.849  11.507  18.252  0.00  0.00    +0.000 C 
ATOM      9  N   UNL     1       1.188   9.451  19.419  0.00  0.00    +0.000 N 
ATOM     10  C   UNL     1       1.638   8.152  19.596  0.00  0.00    +0.000 C 
ATOM     11  O   UNL     1       1.647   7.657  20.726  0.00  0.00    +0.000 OA
ATOM     12  N   UNL     1       2.075   7.487  18.474  0.00  0.00    +0.000 N 
ATOM     13  H   UNL     1       2.331   8.051  17.680  0.00  0.00    +0.000 HD
ENDROOT
BRANCH  12  14
ATOM     14  C   UNL     1       2.560   6.158  18.450  0.00  0.00    +0.000 A 
ATOM     15  C   UNL     1       3.906   5.831  18.649  0.00  0.00    +0.000 A 
ATOM     16  C   UNL     1       4.360   4.519  18.488  0.00  0.00    +0.000 A 
ATOM     17  C   UNL     1       3.456   3.517  18.144  0.00  0.00    +0.000 A 
ATOM     18 CL   UNL     1       4.025   1.917  17.884  0.00  0.00    +0.000 Cl
ATOM     19  C   UNL     1       2.105   3.813  18.004  0.00  0.00    +0.000 A 
ATOM     20  C   UNL     1       1.653   5.129  18.173  0.00  0.00    +0.000 A 
ENDBRANCH  12  14
BRANCH   1  23
ATOM     21  C   UNL     1       1.629  14.709  19.825  0.00  0.00    +0.000 C 
ATOM     22  O   UNL     1       2.811  14.815  20.137  0.00  0.00    +0.000 OA
ATOM     23  N   UNL     1       1.054  13.485  19.526  0.00  0.00    +0.000 N 
ATOM     24  H   UNL     1       0.094  13.443  19.216  0.00  0.00    +0.000 HD
BRANCH  21  26
ATOM     25  C   UNL     1      -0.771  15.434  19.670  0.00  0.00    +0.000 C 
ATOM     26  C   UNL     1       0.688  15.924  19.734  0.00  0.00    +0.000 C 
ATOM     27  C   UNL     1       0.989  16.735  18.466  0.00  0.00    +0.000 C 
ATOM     28  C   UNL     1       0.862  16.804  20.980  0.00  0.00    +0.000 C 
ENDBRANCH  21  26
ENDBRANCH   1  23
TORSDOF 3
ENDMDL
