MODEL 1
REMARK VINA RESULT:      -8.6      0.000      0.000
REMARK  Name = 
REMARK  3 active torsions:
REMARK  status: ('A' for Active; 'I' for Inactive)
REMARK    1  A    between atoms: C_2  and  C_16
REMARK    2  A    between atoms: N_3  and  C_4
REMARK    3  A    between atoms: C_10  and  C_12
REMARK                            x       y       z     vdW  Elec       q    Type
REMARK                         _______ _______ _______ _____ _____    ______ ____
ROOT
ATOM      1  C   UNL     1       5.552   4.671  17.045  0.00  0.00    +0.000 A 
ATOM      2  C   UNL     1       6.467   5.712  17.147  0.00  0.00    +0.000 A 
ATOM      3  C   UNL     1       7.295   5.967  16.075  0.00  0.00    +0.000 A 
ATOM      4  N   UNL     1       7.258   5.269  14.927  0.00  0.00    +0.000 NA
ATOM      5  C   UNL     1       6.378   4.264  14.817  0.00  0.00    +0.000 A 
ATOM      6  N   UNL     1       6.267   3.575  13.595  0.00  0.00    +0.000 N 
ATOM      7  C   UNL     1       6.972   3.915  12.457  0.00  0.00    +0.000 C 
ATOM      8  O   UNL     1       7.810   4.793  12.329  0.00  0.00    +0.000 OA
ATOM      9  C   UNL     1       5.533   3.909  15.867  0.00  0.00    +0.000 A 
ATOM     10  H   UNL     1       5.579   2.842  13.534  0.00  0.00    +0.000 HD
ENDROOT
BRANCH   1  13
ATOM     11  O   UNL     1       4.104   2.148  17.525  0.00  0.00    +0.000 OA
ATOM     12  C   UNL     1       3.963   3.141  18.227  0.00  0.00    +0.000 C 
ATOM     13  N   UNL     1       4.624   4.352  18.068  0.00  0.00    +0.000 N 
ATOM     14  H   UNL     1       4.420   5.088  18.735  0.00  0.00    +0.000 HD
BRANCH  12  15
ATOM     15  C   UNL     1       3.000   3.050  19.357  0.00  0.00    +0.000 A 
ATOM     16  C   UNL     1       1.732   3.653  19.245  0.00  0.00    +0.000 A 
ATOM     17 CL   UNL     1       1.115   4.307  17.764  0.00  0.00    +0.000 Cl
ATOM     18  C   UNL     1       0.867   3.705  20.346  0.00  0.00    +0.000 A 
ATOM     19  C   UNL     1       1.243   3.144  21.563  0.00  0.00    +0.000 A 
ATOM     20  C   UNL     1       2.481   2.518  21.677  0.00  0.00    +0.000 A 
ATOM     21  C   UNL     1       3.361   2.475  20.587  0.00  0.00    +0.000 A 
ATOM     22 CL   UNL     1       4.887   1.707  20.870  0.00  0.00    +0.000 Cl
ENDBRANCH  12  15
ENDBRANCH   1  13
BRANCH   7  23
ATOM     23  C   UNL     1       6.591   3.105  11.254  0.00  0.00    +0.000 C 
ATOM     24  C   UNL     1       7.208   1.735  11.062  0.00  0.00    +0.000 C 
ATOM     25  C   UNL     1       5.759   1.853  11.434  0.00  0.00    +0.000 C 
ENDBRANCH   7  23
TORSDOF 3
ENDMDL
MODEL 2
REMARK VINA RESULT:      -8.3      0.168      1.921
REMARK  Name = 
REMARK  3 active torsions:
REMARK  status: ('A' for Active; 'I' for Inactive)
REMARK    1  A    between atoms: C_2  and  C_16
REMARK    2  A    between atoms: N_3  and  C_4
REMARK    3  A    between atoms: C_10  and  C_12
REMARK                            x       y       z     vdW  Elec       q    Type
REMARK                         _______ _______ _______ _____ _____    ______ ____
ROOT
ATOM      1  C   UNL     1       5.610   4.757  17.040  0.00  0.00    +0.000 A 
ATOM      2  C   UNL     1       6.549   5.779  17.108  0.00  0.00    +0.000 A 
ATOM      3  C   UNL     1       7.367   5.993  16.019  0.00  0.00    +0.000 A 
ATOM      4  N   UNL     1       7.299   5.272  14.887  0.00  0.00    +0.000 NA
ATOM      5  C   UNL     1       6.396   4.284  14.811  0.00  0.00    +0.000 A 
ATOM      6  N   UNL     1       6.252   3.573  13.606  0.00  0.00    +0.000 N 
ATOM      7  C   UNL     1       6.949   3.873  12.451  0.00  0.00    +0.000 C 
ATOM      8  O   UNL     1       7.804   4.729  12.292  0.00  0.00    +0.000 OA
ATOM      9  C   UNL     1       5.557   3.971  15.879  0.00  0.00    +0.000 A 
ATOM     10  H   UNL     1       5.547   2.855  13.569  0.00  0.00    +0.000 HD
ENDROOT
BRANCH   1  13
ATOM     11  O   UNL     1       4.080   2.293  17.568  0.00  0.00    +0.000 OA
ATOM     12  C   UNL     1       3.988   3.296  18.264  0.00  0.00    +0.000 C 
ATOM     13  N   UNL     1       4.689   4.481  18.083  0.00  0.00    +0.000 N 
ATOM     14  H   UNL     1       4.525   5.229  18.746  0.00  0.00    +0.000 HD
BRANCH  12  15
ATOM     15  C   UNL     1       3.042   3.249  19.412  0.00  0.00    +0.000 A 
ATOM     16  C   UNL     1       3.373   2.503  20.560  0.00  0.00    +0.000 A 
ATOM     17 CL   UNL     1       4.938   1.811  20.830  0.00  0.00    +0.000 Cl
ATOM     18  C   UNL     1       2.439   2.327  21.590  0.00  0.00    +0.000 A 
ATOM     19  C   UNL     1       1.176   2.903  21.498  0.00  0.00    +0.000 A 
ATOM     20  C   UNL     1       0.848   3.668  20.382  0.00  0.00    +0.000 A 
ATOM     21  C   UNL     1       1.768   3.837  19.339  0.00  0.00    +0.000 A 
ATOM     22 CL   UNL     1       1.225   4.773  17.989  0.00  0.00    +0.000 Cl
ENDBRANCH  12  15
ENDBRANCH   1  13
BRANCH   7  23
ATOM     23  C   UNL     1       6.532   3.047  11.271  0.00  0.00    +0.000 C 
ATOM     24  C   UNL     1       7.125   1.664  11.093  0.00  0.00    +0.000 C 
ATOM     25  C   UNL     1       5.686   1.810  11.490  0.00  0.00    +0.000 C 
ENDBRANCH   7  23
TORSDOF 3
ENDMDL
MODEL 3
REMARK VINA RESULT:      -8.2      1.196      1.785
REMARK  Name = 
REMARK  3 active torsions:
REMARK  status: ('A' for Active; 'I' for Inactive)
REMARK    1  A    between atoms: C_2  and  C_16
REMARK    2  A    between atoms: N_3  and  C_4
REMARK    3  A    between atoms: C_10  and  C_12
REMARK                            x       y       z     vdW  Elec       q    Type
REMARK                         _______ _______ _______ _____ _____    ______ ____
ROOT
ATOM      1  C   UNL     1       5.798   4.621  16.983  0.00  0.00    +0.000 A 
ATOM      2  C   UNL     1       6.624   5.739  16.996  0.00  0.00    +0.000 A 
ATOM      3  C   UNL     1       7.349   6.032  15.861  0.00  0.00    +0.000 A 
ATOM      4  N   UNL     1       7.293   5.302  14.735  0.00  0.00    +0.000 NA
ATOM      5  C   UNL     1       6.499   4.222  14.711  0.00  0.00    +0.000 A 
ATOM      6  N   UNL     1       6.363   3.492  13.517  0.00  0.00    +0.000 N 
ATOM      7  C   UNL     1       6.955   3.858  12.323  0.00  0.00    +0.000 C 
ATOM      8  O   UNL     1       7.702   4.801  12.115  0.00  0.00    +0.000 OA
ATOM      9  C   UNL     1       5.763   3.826  15.827  0.00  0.00    +0.000 A 
ATOM     10  H   UNL     1       5.738   2.702  13.521  0.00  0.00    +0.000 HD
ENDROOT
BRANCH   1  13
ATOM     11  O   UNL     1       2.861   4.391  17.109  0.00  0.00    +0.000 OA
ATOM     12  C   UNL     1       3.587   4.181  18.071  0.00  0.00    +0.000 C 
ATOM     13  N   UNL     1       4.974   4.254  18.078  0.00  0.00    +0.000 N 
ATOM     14  H   UNL     1       5.451   4.039  18.946  0.00  0.00    +0.000 HD
BRANCH  12  15
ATOM     15  C   UNL     1       2.933   3.810  19.354  0.00  0.00    +0.000 A 
ATOM     16  C   UNL     1       2.771   2.451  19.689  0.00  0.00    +0.000 A 
ATOM     17 CL   UNL     1       3.505   1.156  18.803  0.00  0.00    +0.000 Cl
ATOM     18  C   UNL     1       2.030   2.079  20.820  0.00  0.00    +0.000 A 
ATOM     19  C   UNL     1       1.460   3.049  21.637  0.00  0.00    +0.000 A 
ATOM     20  C   UNL     1       1.639   4.396  21.333  0.00  0.00    +0.000 A 
ATOM     21  C   UNL     1       2.363   4.779  20.197  0.00  0.00    +0.000 A 
ATOM     22 CL   UNL     1       2.476   6.482  19.905  0.00  0.00    +0.000 Cl
ENDBRANCH  12  15
ENDBRANCH   1  13
BRANCH   7  23
ATOM     23  C   UNL     1       6.562   2.985  11.170  0.00  0.00    +0.000 C 
ATOM     24  C   UNL     1       7.257   1.651  10.985  0.00  0.00    +0.000 C 
ATOM     25  C   UNL     1       5.826   1.688  11.435  0.00  0.00    +0.000 C 
ENDBRANCH   7  23
TORSDOF 3
ENDMDL
MODEL 4
REMARK VINA RESULT:      -8.2      1.228      2.100
REMARK  Name = 
REMARK  3 active torsions:
REMARK  status: ('A' for Active; 'I' for Inactive)
REMARK    1  A    between atoms: C_2  and  C_16
REMARK    2  A    between atoms: N_3  and  C_4
REMARK    3  A    between atoms: C_10  and  C_12
REMARK                            x       y       z     vdW  Elec       q    Type
REMARK                         _______ _______ _______ _____ _____    ______ ____
ROOT
ATOM      1  C   UNL     1       5.379   4.775  16.713  0.00  0.00    +0.000 A 
ATOM      2  C   UNL     1       6.236   5.869  16.751  0.00  0.00    +0.000 A 
ATOM      3  C   UNL     1       7.076   6.084  15.680  0.00  0.00    +0.000 A 
ATOM      4  N   UNL     1       7.103   5.299  14.589  0.00  0.00    +0.000 NA
ATOM      5  C   UNL     1       6.280   4.242  14.541  0.00  0.00    +0.000 A 
ATOM      6  N   UNL     1       6.234   3.456  13.375  0.00  0.00    +0.000 N 
ATOM      7  C   UNL     1       6.948   3.745  12.228  0.00  0.00    +0.000 C 
ATOM      8  O   UNL     1       7.742   4.654  12.048  0.00  0.00    +0.000 OA
ATOM      9  C   UNL     1       5.428   3.924  15.598  0.00  0.00    +0.000 A 
ATOM     10  H   UNL     1       5.586   2.685  13.357  0.00  0.00    +0.000 HD
ENDROOT
BRANCH   1  13
ATOM     11  O   UNL     1       5.812   4.575  19.622  0.00  0.00    +0.000 OA
ATOM     12  C   UNL     1       4.722   4.393  19.097  0.00  0.00    +0.000 C 
ATOM     13  N   UNL     1       4.444   4.487  17.739  0.00  0.00    +0.000 N 
ATOM     14  H   UNL     1       3.489   4.325  17.444  0.00  0.00    +0.000 HD
BRANCH  12  15
ATOM     15  C   UNL     1       3.583   4.040  19.987  0.00  0.00    +0.000 A 
ATOM     16  C   UNL     1       3.500   2.745  20.535  0.00  0.00    +0.000 A 
ATOM     17 CL   UNL     1       4.779   1.582  20.431  0.00  0.00    +0.000 Cl
ATOM     18  C   UNL     1       2.365   2.347  21.255  0.00  0.00    +0.000 A 
ATOM     19  C   UNL     1       1.312   3.234  21.453  0.00  0.00    +0.000 A 
ATOM     20  C   UNL     1       1.396   4.526  20.943  0.00  0.00    +0.000 A 
ATOM     21  C   UNL     1       2.518   4.930  20.207  0.00  0.00    +0.000 A 
ATOM     22 CL   UNL     1       2.482   6.546  19.589  0.00  0.00    +0.000 Cl
ENDBRANCH  12  15
ENDBRANCH   1  13
BRANCH   7  23
ATOM     23  C   UNL     1       6.638   2.825  11.085  0.00  0.00    +0.000 C 
ATOM     24  C   UNL     1       7.282   1.455  11.046  0.00  0.00    +0.000 C 
ATOM     25  C   UNL     1       5.815   1.579  11.335  0.00  0.00    +0.000 C 
ENDBRANCH   7  23
TORSDOF 3
ENDMDL
MODEL 5
REMARK VINA RESULT:      -8.1      1.254      1.279
REMARK  Name = 
REMARK  3 active torsions:
REMARK  status: ('A' for Active; 'I' for Inactive)
REMARK    1  A    between atoms: C_2  and  C_16
REMARK    2  A    between atoms: N_3  and  C_4
REMARK    3  A    between atoms: C_10  and  C_12
REMARK                            x       y       z     vdW  Elec       q    Type
REMARK                         _______ _______ _______ _____ _____    ______ ____
ROOT
ATOM      1  C   UNL     1       5.760   4.581  17.013  0.00  0.00    +0.000 A 
ATOM      2  C   UNL     1       6.588   5.696  17.052  0.00  0.00    +0.000 A 
ATOM      3  C   UNL     1       7.329   6.004  15.932  0.00  0.00    +0.000 A 
ATOM      4  N   UNL     1       7.285   5.290  14.794  0.00  0.00    +0.000 NA
ATOM      5  C   UNL     1       6.489   4.213  14.745  0.00  0.00    +0.000 A 
ATOM      6  N   UNL     1       6.366   3.500  13.538  0.00  0.00    +0.000 N 
ATOM      7  C   UNL     1       6.974   3.882  12.358  0.00  0.00    +0.000 C 
ATOM      8  O   UNL     1       7.726   4.826  12.173  0.00  0.00    +0.000 OA
ATOM      9  C   UNL     1       5.737   3.803  15.845  0.00  0.00    +0.000 A 
ATOM     10  H   UNL     1       5.740   2.712  13.524  0.00  0.00    +0.000 HD
ENDROOT
BRANCH   1  13
ATOM     11  O   UNL     1       2.823   4.716  17.226  0.00  0.00    +0.000 OA
ATOM     12  C   UNL     1       3.537   4.306  18.131  0.00  0.00    +0.000 C 
ATOM     13  N   UNL     1       4.922   4.200  18.092  0.00  0.00    +0.000 N 
ATOM     14  H   UNL     1       5.386   3.828  18.912  0.00  0.00    +0.000 HD
BRANCH  12  15
ATOM     15  C   UNL     1       2.871   3.878  19.390  0.00  0.00    +0.000 A 
ATOM     16  C   UNL     1       2.407   4.849  20.300  0.00  0.00    +0.000 A 
ATOM     17 CL   UNL     1       2.347   6.542  19.939  0.00  0.00    +0.000 Cl
ATOM     18  C   UNL     1       1.909   4.470  21.554  0.00  0.00    +0.000 A 
ATOM     19  C   UNL     1       1.850   3.126  21.910  0.00  0.00    +0.000 A 
ATOM     20  C   UNL     1       2.277   2.157  21.008  0.00  0.00    +0.000 A 
ATOM     21  C   UNL     1       2.792   2.524  19.757  0.00  0.00    +0.000 A 
ATOM     22 CL   UNL     1       3.330   1.228  18.744  0.00  0.00    +0.000 Cl
ENDBRANCH  12  15
ENDBRANCH   1  13
BRANCH   7  23
ATOM     23  C   UNL     1       6.594   3.027  11.187  0.00  0.00    +0.000 C 
ATOM     24  C   UNL     1       7.231   1.661  11.034  0.00  0.00    +0.000 C 
ATOM     25  C   UNL     1       5.784   1.768  11.417  0.00  0.00    +0.000 C 
ENDBRANCH   7  23
TORSDOF 3
ENDMDL
MODEL 6
REMARK VINA RESULT:      -7.8      1.141      1.141
REMARK  Name = 
REMARK  3 active torsions:
REMARK  status: ('A' for Active; 'I' for Inactive)
REMARK    1  A    between atoms: C_2  and  C_16
REMARK    2  A    between atoms: N_3  and  C_4
REMARK    3  A    between atoms: C_10  and  C_12
REMARK                            x       y       z     vdW  Elec       q    Type
REMARK                         _______ _______ _______ _____ _____    ______ ____
ROOT
ATOM      1  C   UNL     1       5.294   4.663  16.631  0.00  0.00    +0.000 A 
ATOM      2  C   UNL     1       6.077   5.811  16.658  0.00  0.00    +0.000 A 
ATOM      3  C   UNL     1       6.898   6.071  15.582  0.00  0.00    +0.000 A 
ATOM      4  N   UNL     1       6.975   5.281  14.498  0.00  0.00    +0.000 NA
ATOM      5  C   UNL     1       6.223   4.172  14.461  0.00  0.00    +0.000 A 
ATOM      6  N   UNL     1       6.227   3.374  13.302  0.00  0.00    +0.000 N 
ATOM      7  C   UNL     1       6.918   3.699  12.151  0.00  0.00    +0.000 C 
ATOM      8  O   UNL     1       7.650   4.657  11.961  0.00  0.00    +0.000 OA
ATOM      9  C   UNL     1       5.396   3.808  15.523  0.00  0.00    +0.000 A 
ATOM     10  H   UNL     1       5.631   2.562  13.293  0.00  0.00    +0.000 HD
ENDROOT
BRANCH   1  13
ATOM     11  O   UNL     1       5.765   4.435  19.532  0.00  0.00    +0.000 OA
ATOM     12  C   UNL     1       4.677   4.219  19.015  0.00  0.00    +0.000 C 
ATOM     13  N   UNL     1       4.382   4.323  17.662  0.00  0.00    +0.000 N 
ATOM     14  H   UNL     1       3.430   4.128  17.374  0.00  0.00    +0.000 HD
BRANCH  12  15
ATOM     15  C   UNL     1       3.563   3.808  19.911  0.00  0.00    +0.000 A 
ATOM     16  C   UNL     1       2.496   4.696  20.151  0.00  0.00    +0.000 A 
ATOM     17 CL   UNL     1       2.267   6.172  19.275  0.00  0.00    +0.000 Cl
ATOM     18  C   UNL     1       1.512   4.388  21.102  0.00  0.00    +0.000 A 
ATOM     19  C   UNL     1       1.569   3.191  21.809  0.00  0.00    +0.000 A 
ATOM     20  C   UNL     1       2.602   2.293  21.559  0.00  0.00    +0.000 A 
ATOM     21  C   UNL     1       3.600   2.597  20.623  0.00  0.00    +0.000 A 
ATOM     22 CL   UNL     1       4.853   1.418  20.434  0.00  0.00    +0.000 Cl
ENDBRANCH  12  15
ENDBRANCH   1  13
BRANCH   7  23
ATOM     23  C   UNL     1       6.667   2.752  11.017  0.00  0.00    +0.000 C 
ATOM     24  C   UNL     1       7.349   1.399  11.022  0.00  0.00    +0.000 C 
ATOM     25  C   UNL     1       5.871   1.488  11.265  0.00  0.00    +0.000 C 
ENDBRANCH   7  23
TORSDOF 3
ENDMDL
MODEL 7
REMARK VINA RESULT:      -7.6      5.596      8.603
REMARK  Name = 
REMARK  3 active torsions:
REMARK  status: ('A' for Active; 'I' for Inactive)
REMARK    1  A    between atoms: C_2  and  C_16
REMARK    2  A    between atoms: N_3  and  C_4
REMARK    3  A    between atoms: C_10  and  C_12
REMARK                            x       y       z     vdW  Elec       q    Type
REMARK                         _______ _______ _______ _____ _____    ______ ____
ROOT
ATOM      1  C   UNL     1       2.503   7.692  18.500  0.00  0.00    +0.000 A 
ATOM      2  C   UNL     1       2.357   7.533  19.874  0.00  0.00    +0.000 A 
ATOM      3  C   UNL     1       1.437   8.320  20.532  0.00  0.00    +0.000 A 
ATOM      4  N   UNL     1       0.661   9.227  19.916  0.00  0.00    +0.000 NA
ATOM      5  C   UNL     1       0.792   9.388  18.592  0.00  0.00    +0.000 A 
ATOM      6  N   UNL     1      -0.068  10.273  17.916  0.00  0.00    +0.000 N 
ATOM      7  C   UNL     1      -1.103  10.953  18.528  0.00  0.00    +0.000 C 
ATOM      8  O   UNL     1      -1.408  10.948  19.710  0.00  0.00    +0.000 OA
ATOM      9  C   UNL     1       1.727   8.666  17.852  0.00  0.00    +0.000 A 
ATOM     10  H   UNL     1       0.036  10.353  16.917  0.00  0.00    +0.000 HD
ENDROOT
BRANCH   1  13
ATOM     11  O   UNL     1       4.486   5.695  19.377  0.00  0.00    +0.000 OA
ATOM     12  C   UNL     1       4.311   5.988  18.202  0.00  0.00    +0.000 C 
ATOM     13  N   UNL     1       3.386   6.904  17.719  0.00  0.00    +0.000 N 
ATOM     14  H   UNL     1       3.339   7.039  16.716  0.00  0.00    +0.000 HD
BRANCH  12  15
ATOM     15  C   UNL     1       5.162   5.303  17.191  0.00  0.00    +0.000 A 
ATOM     16  C   UNL     1       6.351   5.915  16.749  0.00  0.00    +0.000 A 
ATOM     17 CL   UNL     1       7.028   7.329  17.488  0.00  0.00    +0.000 Cl
ATOM     18  C   UNL     1       7.090   5.359  15.696  0.00  0.00    +0.000 A 
ATOM     19  C   UNL     1       6.666   4.185  15.083  0.00  0.00    +0.000 A 
ATOM     20  C   UNL     1       5.509   3.555  15.532  0.00  0.00    +0.000 A 
ATOM     21  C   UNL     1       4.753   4.110  16.573  0.00  0.00    +0.000 A 
ATOM     22 CL   UNL     1       3.312   3.255  17.008  0.00  0.00    +0.000 Cl
ENDBRANCH  12  15
ENDBRANCH   1  13
BRANCH   7  23
ATOM     23  C   UNL     1      -1.947  11.741  17.572  0.00  0.00    +0.000 C 
ATOM     24  C   UNL     1      -2.653  11.017  16.444  0.00  0.00    +0.000 C 
ATOM     25  C   UNL     1      -3.452  11.566  17.590  0.00  0.00    +0.000 C 
ENDBRANCH   7  23
TORSDOF 3
ENDMDL
MODEL 8
REMARK VINA RESULT:      -7.5      7.413      9.694
REMARK  Name = 
REMARK  3 active torsions:
REMARK  status: ('A' for Active; 'I' for Inactive)
REMARK    1  A    between atoms: C_2  and  C_16
REMARK    2  A    between atoms: N_3  and  C_4
REMARK    3  A    between atoms: C_10  and  C_12
REMARK                            x       y       z     vdW  Elec       q    Type
REMARK                         _______ _______ _______ _____ _____    ______ ____
ROOT
ATOM      1  C   UNL     1       0.965   9.588  19.466  0.00  0.00    +0.000 A 
ATOM      2  C   UNL     1       1.637   9.544  18.250  0.00  0.00    +0.000 A 
ATOM      3  C   UNL     1       2.396   8.432  17.959  0.00  0.00    +0.000 A 
ATOM      4  N   UNL     1       2.514   7.377  18.782  0.00  0.00    +0.000 NA
ATOM      5  C   UNL     1       1.869   7.408  19.957  0.00  0.00    +0.000 A 
ATOM      6  N   UNL     1       1.913   6.280  20.798  0.00  0.00    +0.000 N 
ATOM      7  C   UNL     1       2.535   5.094  20.457  0.00  0.00    +0.000 C 
ATOM      8  O   UNL     1       3.167   4.843  19.444  0.00  0.00    +0.000 OA
ATOM      9  C   UNL     1       1.114   8.510  20.353  0.00  0.00    +0.000 A 
ATOM     10  H   UNL     1       1.396   6.322  21.661  0.00  0.00    +0.000 HD
ENDROOT
BRANCH   1  13
ATOM     11  O   UNL     1       1.560  11.898  21.198  0.00  0.00    +0.000 OA
ATOM     12  C   UNL     1       0.465  11.716  20.684  0.00  0.00    +0.000 C 
ATOM     13  N   UNL     1       0.121  10.662  19.847  0.00  0.00    +0.000 N 
ATOM     14  H   UNL     1      -0.822  10.644  19.479  0.00  0.00    +0.000 HD
BRANCH  12  15
ATOM     15  C   UNL     1      -0.603  12.711  20.975  0.00  0.00    +0.000 A 
ATOM     16  C   UNL     1      -0.714  13.869  20.180  0.00  0.00    +0.000 A 
ATOM     17 CL   UNL     1       0.174  14.107  18.712  0.00  0.00    +0.000 Cl
ATOM     18  C   UNL     1      -1.615  14.886  20.524  0.00  0.00    +0.000 A 
ATOM     19  C   UNL     1      -2.425  14.756  21.648  0.00  0.00    +0.000 A 
ATOM     20  C   UNL     1      -2.346  13.603  22.423  0.00  0.00    +0.000 A 
ATOM     21  C   UNL     1      -1.437  12.587  22.099  0.00  0.00    +0.000 A 
ATOM     22 CL   UNL     1      -1.403  11.225  23.166  0.00  0.00    +0.000 Cl
ENDBRANCH  12  15
ENDBRANCH   1  13
BRANCH   7  23
ATOM     23  C   UNL     1       2.339   4.006  21.470  0.00  0.00    +0.000 C 
ATOM     24  C   UNL     1       1.319   2.920  21.197  0.00  0.00    +0.000 C 
ATOM     25  C   UNL     1       2.783   2.596  21.141  0.00  0.00    +0.000 C 
ENDBRANCH   7  23
TORSDOF 3
ENDMDL
MODEL 9
REMARK VINA RESULT:      -7.5      7.398      9.768
REMARK  Name = 
REMARK  3 active torsions:
REMARK  status: ('A' for Active; 'I' for Inactive)
REMARK    1  A    between atoms: C_2  and  C_16
REMARK    2  A    between atoms: N_3  and  C_4
REMARK    3  A    between atoms: C_10  and  C_12
REMARK                            x       y       z     vdW  Elec       q    Type
REMARK                         _______ _______ _______ _____ _____    ______ ____
ROOT
ATOM      1  C   UNL     1       0.972   9.617  19.490  0.00  0.00    +0.000 A 
ATOM      2  C   UNL     1       1.617   9.575  18.259  0.00  0.00    +0.000 A 
ATOM      3  C   UNL     1       2.361   8.459  17.946  0.00  0.00    +0.000 A 
ATOM      4  N   UNL     1       2.489   7.399  18.761  0.00  0.00    +0.000 NA
ATOM      5  C   UNL     1       1.872   7.428  19.951  0.00  0.00    +0.000 A 
ATOM      6  N   UNL     1       1.925   6.296  20.784  0.00  0.00    +0.000 N 
ATOM      7  C   UNL     1       2.531   5.108  20.424  0.00  0.00    +0.000 C 
ATOM      8  O   UNL     1       3.139   4.857  19.395  0.00  0.00    +0.000 OA
ATOM      9  C   UNL     1       1.133   8.534  20.368  0.00  0.00    +0.000 A 
ATOM     10  H   UNL     1       1.429   6.337  21.660  0.00  0.00    +0.000 HD
ENDROOT
BRANCH   1  13
ATOM     11  O   UNL     1       1.621  11.912  21.223  0.00  0.00    +0.000 OA
ATOM     12  C   UNL     1       0.514  11.742  20.731  0.00  0.00    +0.000 C 
ATOM     13  N   UNL     1       0.145  10.695  19.895  0.00  0.00    +0.000 N 
ATOM     14  H   UNL     1      -0.806  10.687  19.547  0.00  0.00    +0.000 HD
BRANCH  12  15
ATOM     15  C   UNL     1      -0.539  12.743  21.050  0.00  0.00    +0.000 A 
ATOM     16  C   UNL     1      -1.480  12.469  22.062  0.00  0.00    +0.000 A 
ATOM     17 CL   UNL     1      -1.353  11.121  23.143  0.00  0.00    +0.000 Cl
ATOM     18  C   UNL     1      -2.565  13.330  22.280  0.00  0.00    +0.000 A 
ATOM     19  C   UNL     1      -2.715  14.479  21.509  0.00  0.00    +0.000 A 
ATOM     20  C   UNL     1      -1.775  14.776  20.527  0.00  0.00    +0.000 A 
ATOM     21  C   UNL     1      -0.696  13.914  20.289  0.00  0.00    +0.000 A 
ATOM     22 CL   UNL     1       0.378  14.372  19.012  0.00  0.00    +0.000 Cl
ENDBRANCH  12  15
ENDBRANCH   1  13
BRANCH   7  23
ATOM     23  C   UNL     1       2.351   4.016  21.435  0.00  0.00    +0.000 C 
ATOM     24  C   UNL     1       1.307   2.946  21.187  0.00  0.00    +0.000 C 
ATOM     25  C   UNL     1       2.764   2.601  21.085  0.00  0.00    +0.000 C 
ENDBRANCH   7  23
TORSDOF 3
ENDMDL
