MODEL 1
REMARK VINA RESULT:      -6.7      0.000      0.000
REMARK  Name = 
REMARK  4 active torsions:
REMARK  status: ('A' for Active; 'I' for Inactive)
REMARK    1  A    between atoms: C_2  and  C_3
REMARK    2  A    between atoms: C_3  and  N_4
REMARK    3  A    between atoms: C_8  and  C_10
REMARK    4  A    between atoms: C_18  and  C_19
REMARK                            x       y       z     vdW  Elec       q    Type
REMARK                         _______ _______ _______ _____ _____    ______ ____
ROOT
ATOM      1  N   UNL     1       6.595   3.771  14.200  0.00  0.00    +0.000 NA
ATOM      2  C   UNL     1       7.400   4.832  14.857  0.00  0.00    +0.000 C 
ATOM      3  C   UNL     1       6.590   5.965  15.520  0.00  0.00    +0.000 C 
ATOM      4  N   UNL     1       5.552   5.429  16.402  0.00  0.00    +0.000 N 
ATOM      5  C   UNL     1       5.278   6.079  17.610  0.00  0.00    +0.000 C 
ATOM      6  O   UNL     1       5.832   7.144  17.886  0.00  0.00    +0.000 OA
ATOM      7  C   UNL     1       4.714   4.399  15.775  0.00  0.00    +0.000 C 
ATOM      8  C   UNL     1       5.588   3.283  15.173  0.00  0.00    +0.000 C 
ENDROOT
BRANCH   5   9
ATOM      9  C   UNL     1       4.323   5.471  18.525  0.00  0.00    +0.000 A 
ATOM     10  O   UNL     1       4.625   4.274  19.111  0.00  0.00    +0.000 OA
ATOM     11  C   UNL     1       3.560   3.898  19.859  0.00  0.00    +0.000 A 
ATOM     12  C   UNL     1       3.445   2.684  20.529  0.00  0.00    +0.000 A 
ATOM     13  C   UNL     1       2.267   2.484  21.253  0.00  0.00    +0.000 A 
ATOM     14  C   UNL     1       1.278   3.470  21.303  0.00  0.00    +0.000 A 
ATOM     15  C   UNL     1       1.426   4.681  20.608  0.00  0.00    +0.000 A 
ATOM     16  C   UNL     1       2.593   4.892  19.852  0.00  0.00    +0.000 A 
ATOM     17  C   UNL     1       3.092   5.922  18.991  0.00  0.00    +0.000 A 
ATOM     18  C   UNL     1       2.420   7.193  18.625  0.00  0.00    +0.000 C 
ENDBRANCH   5   9
BRANCH   1  19
ATOM     19  C   UNL     1       5.931   4.222  12.970  0.00  0.00    +0.000 C 
BRANCH  19  21
ATOM     20  C   UNL     1       4.339   3.188  11.341  0.00  0.00    +0.000 C 
ATOM     21  C   UNL     1       5.416   3.092  12.131  0.00  0.00    +0.000 C 
ENDBRANCH  19  21
ENDBRANCH   1  19
TORSDOF 3
ENDMDL
MODEL 2
REMARK VINA RESULT:      -6.5      1.944      6.830
REMARK  Name = 
REMARK  4 active torsions:
REMARK  status: ('A' for Active; 'I' for Inactive)
REMARK    1  A    between atoms: C_2  and  C_3
REMARK    2  A    between atoms: C_3  and  N_4
REMARK    3  A    between atoms: C_8  and  C_10
REMARK    4  A    between atoms: C_18  and  C_19
REMARK                            x       y       z     vdW  Elec       q    Type
REMARK                         _______ _______ _______ _____ _____    ______ ____
ROOT
ATOM      1  N   UNL     1       1.700   4.715  19.130  0.00  0.00    +0.000 NA
ATOM      2  C   UNL     1       2.836   5.080  20.016  0.00  0.00    +0.000 C 
ATOM      3  C   UNL     1       4.142   4.294  19.781  0.00  0.00    +0.000 C 
ATOM      4  N   UNL     1       4.517   4.299  18.366  0.00  0.00    +0.000 N 
ATOM      5  C   UNL     1       5.867   4.409  18.017  0.00  0.00    +0.000 C 
ATOM      6  O   UNL     1       6.740   4.401  18.887  0.00  0.00    +0.000 OA
ATOM      7  C   UNL     1       3.428   3.910  17.461  0.00  0.00    +0.000 C 
ATOM      8  C   UNL     1       2.174   4.765  17.724  0.00  0.00    +0.000 C 
ENDROOT
BRANCH   5   9
ATOM      9  C   UNL     1       6.213   4.525  16.608  0.00  0.00    +0.000 A 
ATOM     10  O   UNL     1       5.733   3.603  15.721  0.00  0.00    +0.000 OA
ATOM     11  C   UNL     1       6.243   3.894  14.501  0.00  0.00    +0.000 A 
ATOM     12  C   UNL     1       6.067   3.122  13.357  0.00  0.00    +0.000 A 
ATOM     13  C   UNL     1       6.671   3.595  12.190  0.00  0.00    +0.000 A 
ATOM     14  C   UNL     1       7.396   4.790  12.189  0.00  0.00    +0.000 A 
ATOM     15  C   UNL     1       7.559   5.539  13.365  0.00  0.00    +0.000 A 
ATOM     16  C   UNL     1       6.980   5.068  14.557  0.00  0.00    +0.000 A 
ATOM     17  C   UNL     1       6.954   5.486  15.926  0.00  0.00    +0.000 A 
ATOM     18  C   UNL     1       7.619   6.674  16.518  0.00  0.00    +0.000 C 
ENDBRANCH   5   9
BRANCH   1  19
ATOM     19  C   UNL     1       1.135   3.392  19.425  0.00  0.00    +0.000 C 
BRANCH  19  21
ATOM     20  C   UNL     1       1.606   2.337  21.644  0.00  0.00    +0.000 C 
ATOM     21  C   UNL     1       0.884   3.173  20.886  0.00  0.00    +0.000 C 
ENDBRANCH  19  21
ENDBRANCH   1  19
TORSDOF 3
ENDMDL
MODEL 3
REMARK VINA RESULT:      -6.5      3.218      7.157
REMARK  Name = 
REMARK  4 active torsions:
REMARK  status: ('A' for Active; 'I' for Inactive)
REMARK    1  A    between atoms: C_2  and  C_3
REMARK    2  A    between atoms: C_3  and  N_4
REMARK    3  A    between atoms: C_8  and  C_10
REMARK    4  A    between atoms: C_18  and  C_19
REMARK                            x       y       z     vdW  Elec       q    Type
REMARK                         _______ _______ _______ _____ _____    ______ ____
ROOT
ATOM      1  N   UNL     1       1.215  10.416  19.002  0.00  0.00    +0.000 NA
ATOM      2  C   UNL     1       1.389   9.755  20.321  0.00  0.00    +0.000 C 
ATOM      3  C   UNL     1       1.205   8.223  20.325  0.00  0.00    +0.000 C 
ATOM      4  N   UNL     1       2.007   7.589  19.277  0.00  0.00    +0.000 N 
ATOM      5  C   UNL     1       2.633   6.366  19.539  0.00  0.00    +0.000 C 
ATOM      6  O   UNL     1       2.435   5.779  20.604  0.00  0.00    +0.000 OA
ATOM      7  C   UNL     1       1.835   8.196  17.950  0.00  0.00    +0.000 C 
ATOM      8  C   UNL     1       2.075   9.716  18.015  0.00  0.00    +0.000 C 
ENDROOT
BRANCH   5   9
ATOM      9  C   UNL     1       3.516   5.806  18.526  0.00  0.00    +0.000 A 
ATOM     10  O   UNL     1       4.772   6.321  18.373  0.00  0.00    +0.000 OA
ATOM     11  C   UNL     1       5.361   5.677  17.337  0.00  0.00    +0.000 A 
ATOM     12  C   UNL     1       6.609   5.991  16.808  0.00  0.00    +0.000 A 
ATOM     13  C   UNL     1       7.047   5.204  15.740  0.00  0.00    +0.000 A 
ATOM     14  C   UNL     1       6.264   4.152  15.255  0.00  0.00    +0.000 A 
ATOM     15  C   UNL     1       5.006   3.869  15.809  0.00  0.00    +0.000 A 
ATOM     16  C   UNL     1       4.535   4.666  16.868  0.00  0.00    +0.000 A 
ATOM     17  C   UNL     1       3.337   4.742  17.648  0.00  0.00    +0.000 A 
ATOM     18  C   UNL     1       2.125   3.895  17.521  0.00  0.00    +0.000 C 
ENDBRANCH   5   9
BRANCH   1  19
ATOM     19  C   UNL     1      -0.178  10.429  18.536  0.00  0.00    +0.000 C 
BRANCH  19  21
ATOM     20  C   UNL     1      -2.051  12.034  18.952  0.00  0.00    +0.000 C 
ATOM     21  C   UNL     1      -1.085  11.233  19.418  0.00  0.00    +0.000 C 
ENDBRANCH  19  21
ENDBRANCH   1  19
TORSDOF 3
ENDMDL
MODEL 4
REMARK VINA RESULT:      -6.4      4.027      7.611
REMARK  Name = 
REMARK  4 active torsions:
REMARK  status: ('A' for Active; 'I' for Inactive)
REMARK    1  A    between atoms: C_2  and  C_3
REMARK    2  A    between atoms: C_3  and  N_4
REMARK    3  A    between atoms: C_8  and  C_10
REMARK    4  A    between atoms: C_18  and  C_19
REMARK                            x       y       z     vdW  Elec       q    Type
REMARK                         _______ _______ _______ _____ _____    ______ ____
ROOT
ATOM      1  N   UNL     1      -0.579  10.159  20.920  0.00  0.00    +0.000 NA
ATOM      2  C   UNL     1      -0.451  10.381  19.457  0.00  0.00    +0.000 C 
ATOM      3  C   UNL     1       0.953  10.129  18.868  0.00  0.00    +0.000 C 
ATOM      4  N   UNL     1       1.476   8.825  19.281  0.00  0.00    +0.000 N 
ATOM      5  C   UNL     1       2.208   8.061  18.366  0.00  0.00    +0.000 C 
ATOM      6  O   UNL     1       2.496   8.519  17.259  0.00  0.00    +0.000 OA
ATOM      7  C   UNL     1       1.395   8.585  20.727  0.00  0.00    +0.000 C 
ATOM      8  C   UNL     1      -0.040   8.814  21.235  0.00  0.00    +0.000 C 
ENDROOT
BRANCH   5   9
ATOM      9  C   UNL     1       2.624   6.722  18.756  0.00  0.00    +0.000 A 
ATOM     10  O   UNL     1       1.833   5.993  19.597  0.00  0.00    +0.000 OA
ATOM     11  C   UNL     1       2.465   4.822  19.852  0.00  0.00    +0.000 A 
ATOM     12  C   UNL     1       2.023   3.855  20.748  0.00  0.00    +0.000 A 
ATOM     13  C   UNL     1       2.814   2.710  20.867  0.00  0.00    +0.000 A 
ATOM     14  C   UNL     1       3.976   2.558  20.105  0.00  0.00    +0.000 A 
ATOM     15  C   UNL     1       4.396   3.559  19.216  0.00  0.00    +0.000 A 
ATOM     16  C   UNL     1       3.627   4.731  19.100  0.00  0.00    +0.000 A 
ATOM     17  C   UNL     1       3.727   5.963  18.378  0.00  0.00    +0.000 A 
ATOM     18  C   UNL     1       4.810   6.377  17.450  0.00  0.00    +0.000 C 
ENDBRANCH   5   9
BRANCH   1  19
ATOM     19  C   UNL     1       0.107  11.178  21.725  0.00  0.00    +0.000 C 
BRANCH  19  21
ATOM     20  C   UNL     1      -1.895  11.831  23.075  0.00  0.00    +0.000 C 
ATOM     21  C   UNL     1      -0.830  12.174  22.338  0.00  0.00    +0.000 C 
ENDBRANCH  19  21
ENDBRANCH   1  19
TORSDOF 3
ENDMDL
MODEL 5
REMARK VINA RESULT:      -6.3      3.225      7.002
REMARK  Name = 
REMARK  4 active torsions:
REMARK  status: ('A' for Active; 'I' for Inactive)
REMARK    1  A    between atoms: C_2  and  C_3
REMARK    2  A    between atoms: C_3  and  N_4
REMARK    3  A    between atoms: C_8  and  C_10
REMARK    4  A    between atoms: C_18  and  C_19
REMARK                            x       y       z     vdW  Elec       q    Type
REMARK                         _______ _______ _______ _____ _____    ______ ____
ROOT
ATOM      1  N   UNL     1       1.052   9.879  20.124  0.00  0.00    +0.000 NA
ATOM      2  C   UNL     1       1.174   9.068  21.363  0.00  0.00    +0.000 C 
ATOM      3  C   UNL     1       1.000   7.546  21.181  0.00  0.00    +0.000 C 
ATOM      4  N   UNL     1       1.850   7.041  20.100  0.00  0.00    +0.000 N 
ATOM      5  C   UNL     1       2.473   5.797  20.245  0.00  0.00    +0.000 C 
ATOM      6  O   UNL     1       2.234   5.089  21.224  0.00  0.00    +0.000 OA
ATOM      7  C   UNL     1       1.731   7.799  18.848  0.00  0.00    +0.000 C 
ATOM      8  C   UNL     1       1.957   9.302  19.100  0.00  0.00    +0.000 C 
ENDROOT
BRANCH   5   9
ATOM      9  C   UNL     1       3.401   5.361  19.212  0.00  0.00    +0.000 A 
ATOM     10  O   UNL     1       4.739   5.586  19.374  0.00  0.00    +0.000 OA
ATOM     11  C   UNL     1       5.373   5.148  18.260  0.00  0.00    +0.000 A 
ATOM     12  C   UNL     1       6.731   5.296  18.004  0.00  0.00    +0.000 A 
ATOM     13  C   UNL     1       7.197   4.771  16.797  0.00  0.00    +0.000 A 
ATOM     14  C   UNL     1       6.330   4.120  15.915  0.00  0.00    +0.000 A 
ATOM     15  C   UNL     1       4.962   3.995  16.203  0.00  0.00    +0.000 A 
ATOM     16  C   UNL     1       4.468   4.540  17.402  0.00  0.00    +0.000 A 
ATOM     17  C   UNL     1       3.185   4.669  18.024  0.00  0.00    +0.000 A 
ATOM     18  C   UNL     1       1.877   4.206  17.496  0.00  0.00    +0.000 C 
ENDBRANCH   5   9
BRANCH   1  19
ATOM     19  C   UNL     1      -0.321   9.944  19.604  0.00  0.00    +0.000 C 
BRANCH  19  21
ATOM     20  C   UNL     1      -1.675  11.316  18.009  0.00  0.00    +0.000 C 
ATOM     21  C   UNL     1      -0.485  10.946  18.502  0.00  0.00    +0.000 C 
ENDBRANCH  19  21
ENDBRANCH   1  19
TORSDOF 3
ENDMDL
MODEL 6
REMARK VINA RESULT:      -6.2      3.849      7.598
REMARK  Name = 
REMARK  4 active torsions:
REMARK  status: ('A' for Active; 'I' for Inactive)
REMARK    1  A    between atoms: C_2  and  C_3
REMARK    2  A    between atoms: C_3  and  N_4
REMARK    3  A    between atoms: C_8  and  C_10
REMARK    4  A    between atoms: C_18  and  C_19
REMARK                            x       y       z     vdW  Elec       q    Type
REMARK                         _______ _______ _______ _____ _____    ______ ____
ROOT
ATOM      1  N   UNL     1       1.075  11.577  19.041  0.00  0.00    +0.000 NA
ATOM      2  C   UNL     1       1.150  11.002  20.409  0.00  0.00    +0.000 C 
ATOM      3  C   UNL     1       0.740   9.519  20.529  0.00  0.00    +0.000 C 
ATOM      4  N   UNL     1       1.437   8.694  19.541  0.00  0.00    +0.000 N 
ATOM      5  C   UNL     1       1.875   7.416  19.903  0.00  0.00    +0.000 C 
ATOM      6  O   UNL     1       1.592   6.949  21.008  0.00  0.00    +0.000 OA
ATOM      7  C   UNL     1       1.357   9.215  18.170  0.00  0.00    +0.000 C 
ATOM      8  C   UNL     1       1.820  10.683  18.121  0.00  0.00    +0.000 C 
ENDROOT
BRANCH   5   9
ATOM      9  C   UNL     1       2.663   6.654  18.945  0.00  0.00    +0.000 A 
ATOM     10  O   UNL     1       3.684   7.269  18.278  0.00  0.00    +0.000 OA
ATOM     11  C   UNL     1       4.213   6.373  17.411  0.00  0.00    +0.000 A 
ATOM     12  C   UNL     1       5.207   6.654  16.480  0.00  0.00    +0.000 A 
ATOM     13  C   UNL     1       5.624   5.591  15.676  0.00  0.00    +0.000 A 
ATOM     14  C   UNL     1       5.071   4.316  15.828  0.00  0.00    +0.000 A 
ATOM     15  C   UNL     1       4.063   4.071  16.773  0.00  0.00    +0.000 A 
ATOM     16  C   UNL     1       3.611   5.134  17.575  0.00  0.00    +0.000 A 
ATOM     17  C   UNL     1       2.608   5.313  18.581  0.00  0.00    +0.000 A 
ATOM     18  C   UNL     1       1.663   4.293  19.101  0.00  0.00    +0.000 C 
ENDBRANCH   5   9
BRANCH   1  19
ATOM     19  C   UNL     1      -0.301  11.761  18.562  0.00  0.00    +0.000 C 
BRANCH  19  21
ATOM     20  C   UNL     1      -2.276  12.399  19.958  0.00  0.00    +0.000 C 
ATOM     21  C   UNL     1      -1.096  12.710  19.407  0.00  0.00    +0.000 C 
ENDBRANCH  19  21
ENDBRANCH   1  19
TORSDOF 3
ENDMDL
MODEL 7
REMARK VINA RESULT:      -6.2      3.821      6.143
REMARK  Name = 
REMARK  4 active torsions:
REMARK  status: ('A' for Active; 'I' for Inactive)
REMARK    1  A    between atoms: C_2  and  C_3
REMARK    2  A    between atoms: C_3  and  N_4
REMARK    3  A    between atoms: C_8  and  C_10
REMARK    4  A    between atoms: C_18  and  C_19
REMARK                            x       y       z     vdW  Elec       q    Type
REMARK                         _______ _______ _______ _____ _____    ______ ____
ROOT
ATOM      1  N   UNL     1       2.972   3.511  20.609  0.00  0.00    +0.000 NA
ATOM      2  C   UNL     1       3.958   4.237  19.767  0.00  0.00    +0.000 C 
ATOM      3  C   UNL     1       3.361   5.261  18.779  0.00  0.00    +0.000 C 
ATOM      4  N   UNL     1       2.430   6.168  19.453  0.00  0.00    +0.000 N 
ATOM      5  C   UNL     1       2.405   7.518  19.086  0.00  0.00    +0.000 C 
ATOM      6  O   UNL     1       3.085   7.921  18.141  0.00  0.00    +0.000 OA
ATOM      7  C   UNL     1       1.420   5.483  20.269  0.00  0.00    +0.000 C 
ATOM      8  C   UNL     1       2.090   4.511  21.258  0.00  0.00    +0.000 C 
ENDROOT
BRANCH   5   9
ATOM      9  C   UNL     1       1.555   8.426  19.842  0.00  0.00    +0.000 A 
ATOM     10  O   UNL     1       1.520   8.336  21.204  0.00  0.00    +0.000 OA
ATOM     11  C   UNL     1       0.618   9.238  21.659  0.00  0.00    +0.000 A 
ATOM     12  C   UNL     1       0.226   9.376  22.986  0.00  0.00    +0.000 A 
ATOM     13  C   UNL     1      -0.716  10.371  23.255  0.00  0.00    +0.000 A 
ATOM     14  C   UNL     1      -1.213  11.185  22.234  0.00  0.00    +0.000 A 
ATOM     15  C   UNL     1      -0.800  11.011  20.903  0.00  0.00    +0.000 A 
ATOM     16  C   UNL     1       0.129   9.998  20.607  0.00  0.00    +0.000 A 
ATOM     17  C   UNL     1       0.745   9.478  19.424  0.00  0.00    +0.000 A 
ATOM     18  C   UNL     1       0.533   9.929  18.025  0.00  0.00    +0.000 C 
ENDBRANCH   5   9
BRANCH   1  19
ATOM     19  C   UNL     1       2.166   2.541  19.855  0.00  0.00    +0.000 C 
BRANCH  19  21
ATOM     20  C   UNL     1       2.643   2.019  17.456  0.00  0.00    +0.000 C 
ATOM     21  C   UNL     1       2.931   1.870  18.756  0.00  0.00    +0.000 C 
ENDBRANCH  19  21
ENDBRANCH   1  19
TORSDOF 3
ENDMDL
MODEL 8
REMARK VINA RESULT:      -6.1      5.457      8.405
REMARK  Name = 
REMARK  4 active torsions:
REMARK  status: ('A' for Active; 'I' for Inactive)
REMARK    1  A    between atoms: C_2  and  C_3
REMARK    2  A    between atoms: C_3  and  N_4
REMARK    3  A    between atoms: C_8  and  C_10
REMARK    4  A    between atoms: C_18  and  C_19
REMARK                            x       y       z     vdW  Elec       q    Type
REMARK                         _______ _______ _______ _____ _____    ______ ____
ROOT
ATOM      1  N   UNL     1      -2.128  12.064  18.201  0.00  0.00    +0.000 NA
ATOM      2  C   UNL     1      -1.244  12.718  19.201  0.00  0.00    +0.000 C 
ATOM      3  C   UNL     1      -0.843  11.842  20.406  0.00  0.00    +0.000 C 
ATOM      4  N   UNL     1      -0.324  10.545  19.969  0.00  0.00    +0.000 N 
ATOM      5  C   UNL     1       0.753   9.973  20.656  0.00  0.00    +0.000 C 
ATOM      6  O   UNL     1       1.196  10.504  21.675  0.00  0.00    +0.000 OA
ATOM      7  C   UNL     1      -1.188   9.853  19.004  0.00  0.00    +0.000 C 
ATOM      8  C   UNL     1      -1.511  10.772  17.811  0.00  0.00    +0.000 C 
ENDROOT
BRANCH   5   9
ATOM      9  C   UNL     1       1.328   8.739  20.141  0.00  0.00    +0.000 A 
ATOM     10  O   UNL     1       1.244   7.598  20.887  0.00  0.00    +0.000 OA
ATOM     11  C   UNL     1       1.901   6.617  20.223  0.00  0.00    +0.000 A 
ATOM     12  C   UNL     1       2.123   5.334  20.711  0.00  0.00    +0.000 A 
ATOM     13  C   UNL     1       2.820   4.462  19.871  0.00  0.00    +0.000 A 
ATOM     14  C   UNL     1       3.246   4.872  18.605  0.00  0.00    +0.000 A 
ATOM     15  C   UNL     1       3.010   6.179  18.149  0.00  0.00    +0.000 A 
ATOM     16  C   UNL     1       2.333   7.080  18.989  0.00  0.00    +0.000 A 
ATOM     17  C   UNL     1       1.952   8.459  18.930  0.00  0.00    +0.000 A 
ATOM     18  C   UNL     1       2.210   9.417  17.826  0.00  0.00    +0.000 C 
ENDBRANCH   5   9
BRANCH   1  19
ATOM     19  C   UNL     1      -3.495  11.844  18.689  0.00  0.00    +0.000 C 
BRANCH  19  21
ATOM     20  C   UNL     1      -5.467  12.041  17.163  0.00  0.00    +0.000 C 
ATOM     21  C   UNL     1      -4.424  11.340  17.627  0.00  0.00    +0.000 C 
ENDBRANCH  19  21
ENDBRANCH   1  19
TORSDOF 3
ENDMDL
MODEL 9
REMARK VINA RESULT:      -6.1      3.170      6.643
REMARK  Name = 
REMARK  4 active torsions:
REMARK  status: ('A' for Active; 'I' for Inactive)
REMARK    1  A    between atoms: C_2  and  C_3
REMARK    2  A    between atoms: C_3  and  N_4
REMARK    3  A    between atoms: C_8  and  C_10
REMARK    4  A    between atoms: C_18  and  C_19
REMARK                            x       y       z     vdW  Elec       q    Type
REMARK                         _______ _______ _______ _____ _____    ______ ____
ROOT
ATOM      1  N   UNL     1       3.282   3.549  19.027  0.00  0.00    +0.000 NA
ATOM      2  C   UNL     1       4.019   2.968  17.874  0.00  0.00    +0.000 C 
ATOM      3  C   UNL     1       4.434   3.971  16.778  0.00  0.00    +0.000 C 
ATOM      4  N   UNL     1       5.122   5.130  17.351  0.00  0.00    +0.000 N 
ATOM      5  C   UNL     1       6.207   5.688  16.668  0.00  0.00    +0.000 C 
ATOM      6  O   UNL     1       6.520   5.275  15.550  0.00  0.00    +0.000 OA
ATOM      7  C   UNL     1       4.405   5.750  18.473  0.00  0.00    +0.000 C 
ATOM      8  C   UNL     1       4.062   4.699  19.545  0.00  0.00    +0.000 C 
ENDROOT
BRANCH   5   9
ATOM      9  C   UNL     1       6.948   6.766  17.304  0.00  0.00    +0.000 A 
ATOM     10  O   UNL     1       6.823   8.040  16.826  0.00  0.00    +0.000 OA
ATOM     11  C   UNL     1       7.652   8.837  17.541  0.00  0.00    +0.000 A 
ATOM     12  C   UNL     1       7.882  10.184  17.285  0.00  0.00    +0.000 A 
ATOM     13  C   UNL     1       8.771  10.837  18.142  0.00  0.00    +0.000 A 
ATOM     14  C   UNL     1       9.373  10.157  19.205  0.00  0.00    +0.000 A 
ATOM     15  C   UNL     1       9.123   8.794  19.429  0.00  0.00    +0.000 A 
ATOM     16  C   UNL     1       8.251   8.113  18.562  0.00  0.00    +0.000 A 
ATOM     17  C   UNL     1       7.786   6.766  18.415  0.00  0.00    +0.000 A 
ATOM     18  C   UNL     1       8.155   5.591  19.244  0.00  0.00    +0.000 C 
ENDBRANCH   5   9
BRANCH   1  19
ATOM     19  C   UNL     1       1.918   3.976  18.689  0.00  0.00    +0.000 C 
BRANCH  19  21
ATOM     20  C   UNL     1       1.191   2.973  20.862  0.00  0.00    +0.000 C 
ATOM     21  C   UNL     1       0.939   3.749  19.800  0.00  0.00    +0.000 C 
ENDBRANCH  19  21
ENDBRANCH   1  19
TORSDOF 3
ENDMDL
