MODEL 1
REMARK VINA RESULT:      -6.7      0.000      0.000
REMARK  Name = 
REMARK  4 active torsions:
REMARK  status: ('A' for Active; 'I' for Inactive)
REMARK    1  A    between atoms: C_1  and  C_2
REMARK    2  A    between atoms: N_13  and  C_14
REMARK    3  A    between atoms: C_14  and  C_15
REMARK    4  A    between atoms: C_24  and  C_25
REMARK                            x       y       z     vdW  Elec       q    Type
REMARK                         _______ _______ _______ _____ _____    ______ ____
ROOT
ATOM      1  C   UNL     1       2.742   5.946  19.919  0.00  0.00    +0.000 C 
ATOM      2  C   UNL     1       2.123   7.308  19.763  0.00  0.00    +0.000 A 
ATOM      3  C   UNL     1       1.327   7.826  20.810  0.00  0.00    +0.000 A 
ATOM      4  C   UNL     1       0.712   9.079  20.663  0.00  0.00    +0.000 A 
ATOM      5  N   UNL     1      -0.077   9.796  21.536  0.00  0.00    +0.000 NA
ATOM      6  C   UNL     1      -0.445  10.881  20.888  0.00  0.00    +0.000 A 
ATOM      7  N   UNL     1      -1.083  11.973  21.372  0.00  0.00    +0.000 N 
ATOM      8  C   UNL     1      -0.890  12.348  22.772  0.00  0.00    +0.000 C 
ATOM      9  C   UNL     1      -0.922  13.896  22.837  0.00  0.00    +0.000 C 
ATOM     10  N   UNL     1      -2.144  14.506  22.260  0.00  0.00    +0.000 NA
ATOM     11  C   UNL     1      -2.421  13.954  20.916  0.00  0.00    +0.000 C 
ATOM     12  C   UNL     1      -2.389  12.407  20.865  0.00  0.00    +0.000 C 
ATOM     13  N   UNL     1       0.089  10.884  19.619  0.00  0.00    +0.000 N 
ATOM     14  C   UNL     1       0.891   9.773  19.476  0.00  0.00    +0.000 A 
ATOM     15  C   UNL     1       1.707   9.315  18.436  0.00  0.00    +0.000 A 
ATOM     16  C   UNL     1       2.318   8.057  18.583  0.00  0.00    +0.000 A 
ATOM     17  C   UNL     1       3.156   7.532  17.447  0.00  0.00    +0.000 C 
ATOM     18  H   UNL     1      -2.000  15.512  22.179  0.00  0.00    +0.000 HD
ENDROOT
BRANCH  13  19
ATOM     19  C   UNL     1      -0.107  11.883  18.582  0.00  0.00    +0.000 C 
BRANCH  19  20
ATOM     20  C   UNL     1       0.873  13.043  18.655  0.00  0.00    +0.000 A 
ATOM     21  C   UNL     1       0.513  14.340  19.068  0.00  0.00    +0.000 A 
ATOM     22  C   UNL     1       1.435  15.390  19.034  0.00  0.00    +0.000 A 
ATOM     23  C   UNL     1       2.732  15.154  18.596  0.00  0.00    +0.000 A 
ATOM     24 CL   UNL     1       3.843  16.460  18.476  0.00  0.00    +0.000 Cl
ATOM     25  C   UNL     1       3.127  13.869  18.231  0.00  0.00    +0.000 A 
ATOM     26  C   UNL     1       2.204  12.818  18.267  0.00  0.00    +0.000 A 
ENDBRANCH  19  20
ENDBRANCH  13  19
TORSDOF 2
ENDMDL
MODEL 2
REMARK VINA RESULT:      -6.7      0.333      1.020
REMARK  Name = 
REMARK  4 active torsions:
REMARK  status: ('A' for Active; 'I' for Inactive)
REMARK    1  A    between atoms: C_1  and  C_2
REMARK    2  A    between atoms: N_13  and  C_14
REMARK    3  A    between atoms: C_14  and  C_15
REMARK    4  A    between atoms: C_24  and  C_25
REMARK                            x       y       z     vdW  Elec       q    Type
REMARK                         _______ _______ _______ _____ _____    ______ ____
ROOT
ATOM      1  C   UNL     1       2.646   6.229  20.038  0.00  0.00    +0.000 C 
ATOM      2  C   UNL     1       1.987   7.571  19.868  0.00  0.00    +0.000 A 
ATOM      3  C   UNL     1       1.212   8.095  20.927  0.00  0.00    +0.000 A 
ATOM      4  C   UNL     1       0.561   9.329  20.770  0.00  0.00    +0.000 A 
ATOM      5  N   UNL     1      -0.218  10.048  21.650  0.00  0.00    +0.000 NA
ATOM      6  C   UNL     1      -0.634  11.106  20.989  0.00  0.00    +0.000 A 
ATOM      7  N   UNL     1      -1.284  12.194  21.466  0.00  0.00    +0.000 N 
ATOM      8  C   UNL     1      -1.057  12.609  22.850  0.00  0.00    +0.000 C 
ATOM      9  C   UNL     1      -1.126  14.157  22.878  0.00  0.00    +0.000 C 
ATOM     10  N   UNL     1      -2.381  14.722  22.326  0.00  0.00    +0.000 NA
ATOM     11  C   UNL     1      -2.686  14.129  21.005  0.00  0.00    +0.000 C 
ATOM     12  C   UNL     1      -2.616  12.583  20.991  0.00  0.00    +0.000 C 
ATOM     13  N   UNL     1      -0.140  11.091  19.703  0.00  0.00    +0.000 N 
ATOM     14  C   UNL     1       0.685   9.997  19.562  0.00  0.00    +0.000 A 
ATOM     15  C   UNL     1       1.478   9.533  18.507  0.00  0.00    +0.000 A 
ATOM     16  C   UNL     1       2.126   8.295  18.665  0.00  0.00    +0.000 A 
ATOM     17  C   UNL     1       2.941   7.763  17.516  0.00  0.00    +0.000 C 
ATOM     18  H   UNL     1      -2.265  15.729  22.216  0.00  0.00    +0.000 HD
ENDROOT
BRANCH  13  19
ATOM     19  C   UNL     1      -0.394  12.058  18.650  0.00  0.00    +0.000 C 
BRANCH  19  20
ATOM     20  C   UNL     1       0.617  13.193  18.601  0.00  0.00    +0.000 A 
ATOM     21  C   UNL     1       1.956  13.024  18.200  0.00  0.00    +0.000 A 
ATOM     22  C   UNL     1       2.865  14.084  18.257  0.00  0.00    +0.000 A 
ATOM     23  C   UNL     1       2.444  15.329  18.706  0.00  0.00    +0.000 A 
ATOM     24 CL   UNL     1       3.579  16.613  18.854  0.00  0.00    +0.000 Cl
ATOM     25  C   UNL     1       1.112  15.535  19.060  0.00  0.00    +0.000 A 
ATOM     26  C   UNL     1       0.202  14.474  19.001  0.00  0.00    +0.000 A 
ENDBRANCH  19  20
ENDBRANCH  13  19
TORSDOF 2
ENDMDL
MODEL 3
REMARK VINA RESULT:      -6.3      0.930      1.187
REMARK  Name = 
REMARK  4 active torsions:
REMARK  status: ('A' for Active; 'I' for Inactive)
REMARK    1  A    between atoms: C_1  and  C_2
REMARK    2  A    between atoms: N_13  and  C_14
REMARK    3  A    between atoms: C_14  and  C_15
REMARK    4  A    between atoms: C_24  and  C_25
REMARK                            x       y       z     vdW  Elec       q    Type
REMARK                         _______ _______ _______ _____ _____    ______ ____
ROOT
ATOM      1  C   UNL     1       2.905   5.516  19.675  0.00  0.00    +0.000 C 
ATOM      2  C   UNL     1       2.330   6.905  19.612  0.00  0.00    +0.000 A 
ATOM      3  C   UNL     1       1.405   7.311  20.600  0.00  0.00    +0.000 A 
ATOM      4  C   UNL     1       0.831   8.591  20.533  0.00  0.00    +0.000 A 
ATOM      5  N   UNL     1      -0.060   9.217  21.377  0.00  0.00    +0.000 NA
ATOM      6  C   UNL     1      -0.324  10.384  20.829  0.00  0.00    +0.000 A 
ATOM      7  N   UNL     1      -1.008  11.425  21.358  0.00  0.00    +0.000 N 
ATOM      8  C   UNL     1      -1.004  11.618  22.808  0.00  0.00    +0.000 C 
ATOM      9  C   UNL     1      -1.025  13.146  23.064  0.00  0.00    +0.000 C 
ATOM     10  N   UNL     1      -2.150  13.859  22.411  0.00  0.00    +0.000 NA
ATOM     11  C   UNL     1      -2.247  13.486  20.983  0.00  0.00    +0.000 C 
ATOM     12  C   UNL     1      -2.227  11.957  20.741  0.00  0.00    +0.000 C 
ATOM     13  N   UNL     1       0.379  10.529  19.653  0.00  0.00    +0.000 N 
ATOM     14  C   UNL     1       1.179   9.421  19.479  0.00  0.00    +0.000 A 
ATOM     15  C   UNL     1       2.123   9.073  18.508  0.00  0.00    +0.000 A 
ATOM     16  C   UNL     1       2.693   7.789  18.574  0.00  0.00    +0.000 A 
ATOM     17  C   UNL     1       3.672   7.385  17.503  0.00  0.00    +0.000 C 
ATOM     18  H   UNL     1      -1.984  14.863  22.479  0.00  0.00    +0.000 HD
ENDROOT
BRANCH  13  19
ATOM     19  C   UNL     1       0.338  11.655  18.736  0.00  0.00    +0.000 C 
BRANCH  19  20
ATOM     20  C   UNL     1       1.445  12.673  18.964  0.00  0.00    +0.000 A 
ATOM     21  C   UNL     1       2.350  13.074  17.963  0.00  0.00    +0.000 A 
ATOM     22  C   UNL     1       3.401  13.949  18.251  0.00  0.00    +0.000 A 
ATOM     23  C   UNL     1       3.555  14.442  19.540  0.00  0.00    +0.000 A 
ATOM     24 CL   UNL     1       4.894  15.452  19.915  0.00  0.00    +0.000 Cl
ATOM     25  C   UNL     1       2.642  14.100  20.537  0.00  0.00    +0.000 A 
ATOM     26  C   UNL     1       1.589  13.225  20.247  0.00  0.00    +0.000 A 
ENDBRANCH  19  20
ENDBRANCH  13  19
TORSDOF 2
ENDMDL
MODEL 4
REMARK VINA RESULT:      -6.3      4.596      6.625
REMARK  Name = 
REMARK  4 active torsions:
REMARK  status: ('A' for Active; 'I' for Inactive)
REMARK    1  A    between atoms: C_1  and  C_2
REMARK    2  A    between atoms: N_13  and  C_14
REMARK    3  A    between atoms: C_14  and  C_15
REMARK    4  A    between atoms: C_24  and  C_25
REMARK                            x       y       z     vdW  Elec       q    Type
REMARK                         _______ _______ _______ _____ _____    ______ ____
ROOT
ATOM      1  C   UNL     1      -0.417  10.006  17.641  0.00  0.00    +0.000 C 
ATOM      2  C   UNL     1      -1.665  10.690  18.129  0.00  0.00    +0.000 A 
ATOM      3  C   UNL     1      -1.642  11.355  19.376  0.00  0.00    +0.000 A 
ATOM      4  C   UNL     1      -2.809  11.966  19.862  0.00  0.00    +0.000 A 
ATOM      5  N   UNL     1      -3.028  12.683  21.018  0.00  0.00    +0.000 NA
ATOM      6  C   UNL     1      -4.310  12.983  21.023  0.00  0.00    +0.000 A 
ATOM      7  N   UNL     1      -4.974  13.818  21.857  0.00  0.00    +0.000 N 
ATOM      8  C   UNL     1      -4.262  14.949  22.449  0.00  0.00    +0.000 C 
ATOM      9  C   UNL     1      -5.275  16.116  22.563  0.00  0.00    +0.000 C 
ATOM     10  N   UNL     1      -6.509  15.782  23.313  0.00  0.00    +0.000 NA
ATOM     11  C   UNL     1      -7.098  14.519  22.816  0.00  0.00    +0.000 C 
ATOM     12  C   UNL     1      -6.077  13.361  22.709  0.00  0.00    +0.000 C 
ATOM     13  N   UNL     1      -4.923  12.480  19.897  0.00  0.00    +0.000 N 
ATOM     14  C   UNL     1      -3.967  11.884  19.104  0.00  0.00    +0.000 A 
ATOM     15  C   UNL     1      -4.019  11.274  17.847  0.00  0.00    +0.000 A 
ATOM     16  C   UNL     1      -2.850  10.659  17.364  0.00  0.00    +0.000 A 
ATOM     17  C   UNL     1      -2.909   9.956  16.033  0.00  0.00    +0.000 C 
ATOM     18  H   UNL     1      -7.184  16.534  23.182  0.00  0.00    +0.000 HD
ENDROOT
BRANCH  13  19
ATOM     19  C   UNL     1      -6.330  12.565  19.548  0.00  0.00    +0.000 C 
BRANCH  19  20
ATOM     20  C   UNL     1      -6.652  13.677  18.561  0.00  0.00    +0.000 A 
ATOM     21  C   UNL     1      -6.965  13.448  17.207  0.00  0.00    +0.000 A 
ATOM     22  C   UNL     1      -7.167  14.513  16.325  0.00  0.00    +0.000 A 
ATOM     23  C   UNL     1      -7.069  15.819  16.786  0.00  0.00    +0.000 A 
ATOM     24 CL   UNL     1      -7.237  17.129  15.686  0.00  0.00    +0.000 Cl
ATOM     25  C   UNL     1      -6.811  16.071  18.132  0.00  0.00    +0.000 A 
ATOM     26  C   UNL     1      -6.610  15.005  19.016  0.00  0.00    +0.000 A 
ENDBRANCH  19  20
ENDBRANCH  13  19
TORSDOF 2
ENDMDL
MODEL 5
REMARK VINA RESULT:      -6.3      4.473      6.486
REMARK  Name = 
REMARK  4 active torsions:
REMARK  status: ('A' for Active; 'I' for Inactive)
REMARK    1  A    between atoms: C_1  and  C_2
REMARK    2  A    between atoms: N_13  and  C_14
REMARK    3  A    between atoms: C_14  and  C_15
REMARK    4  A    between atoms: C_24  and  C_25
REMARK                            x       y       z     vdW  Elec       q    Type
REMARK                         _______ _______ _______ _____ _____    ______ ____
ROOT
ATOM      1  C   UNL     1       0.000  10.198  18.216  0.00  0.00    +0.000 C 
ATOM      2  C   UNL     1      -1.281  10.883  18.610  0.00  0.00    +0.000 A 
ATOM      3  C   UNL     1      -1.323  11.623  19.813  0.00  0.00    +0.000 A 
ATOM      4  C   UNL     1      -2.521  12.236  20.213  0.00  0.00    +0.000 A 
ATOM      5  N   UNL     1      -2.803  13.017  21.312  0.00  0.00    +0.000 NA
ATOM      6  C   UNL     1      -4.089  13.289  21.247  0.00  0.00    +0.000 A 
ATOM      7  N   UNL     1      -4.804  14.157  22.000  0.00  0.00    +0.000 N 
ATOM      8  C   UNL     1      -4.139  15.339  22.549  0.00  0.00    +0.000 C 
ATOM      9  C   UNL     1      -5.179  16.488  22.549  0.00  0.00    +0.000 C 
ATOM     10  N   UNL     1      -6.437  16.172  23.268  0.00  0.00    +0.000 NA
ATOM     11  C   UNL     1      -6.980  14.868  22.827  0.00  0.00    +0.000 C 
ATOM     12  C   UNL     1      -5.931  13.729  22.833  0.00  0.00    +0.000 C 
ATOM     13  N   UNL     1      -4.645  12.704  20.130  0.00  0.00    +0.000 N 
ATOM     14  C   UNL     1      -3.644  12.082  19.415  0.00  0.00    +0.000 A 
ATOM     15  C   UNL     1      -3.632  11.396  18.197  0.00  0.00    +0.000 A 
ATOM     16  C   UNL     1      -2.432  10.779  17.801  0.00  0.00    +0.000 A 
ATOM     17  C   UNL     1      -2.422   9.994  16.515  0.00  0.00    +0.000 C 
ATOM     18  H   UNL     1      -7.121  16.900  23.064  0.00  0.00    +0.000 HD
ENDROOT
BRANCH  13  19
ATOM     19  C   UNL     1      -6.038  12.736  19.720  0.00  0.00    +0.000 C 
BRANCH  19  20
ATOM     20  C   UNL     1      -6.357  13.834  18.717  0.00  0.00    +0.000 A 
ATOM     21  C   UNL     1      -6.395  15.202  19.048  0.00  0.00    +0.000 A 
ATOM     22  C   UNL     1      -6.778  16.161  18.106  0.00  0.00    +0.000 A 
ATOM     23  C   UNL     1      -7.118  15.766  16.819  0.00  0.00    +0.000 A 
ATOM     24 CL   UNL     1      -7.668  16.933  15.683  0.00  0.00    +0.000 Cl
ATOM     25  C   UNL     1      -7.039  14.423  16.452  0.00  0.00    +0.000 A 
ATOM     26  C   UNL     1      -6.653  13.464  17.395  0.00  0.00    +0.000 A 
ENDBRANCH  19  20
ENDBRANCH  13  19
TORSDOF 2
ENDMDL
MODEL 6
REMARK VINA RESULT:      -6.2      7.883     10.405
REMARK  Name = 
REMARK  4 active torsions:
REMARK  status: ('A' for Active; 'I' for Inactive)
REMARK    1  A    between atoms: C_1  and  C_2
REMARK    2  A    between atoms: N_13  and  C_14
REMARK    3  A    between atoms: C_14  and  C_15
REMARK    4  A    between atoms: C_24  and  C_25
REMARK                            x       y       z     vdW  Elec       q    Type
REMARK                         _______ _______ _______ _____ _____    ______ ____
ROOT
ATOM      1  C   UNL     1       5.393  14.426  24.409  0.00  0.00    +0.000 C 
ATOM      2  C   UNL     1       6.496  14.504  23.388  0.00  0.00    +0.000 A 
ATOM      3  C   UNL     1       6.513  15.584  22.476  0.00  0.00    +0.000 A 
ATOM      4  C   UNL     1       7.515  15.650  21.494  0.00  0.00    +0.000 A 
ATOM      5  N   UNL     1       7.754  16.599  20.525  0.00  0.00    +0.000 NA
ATOM      6  C   UNL     1       8.779  16.157  19.827  0.00  0.00    +0.000 A 
ATOM      7  N   UNL     1       9.494  16.807  18.879  0.00  0.00    +0.000 N 
ATOM      8  C   UNL     1       9.615  18.263  18.951  0.00  0.00    +0.000 C 
ATOM      9  C   UNL     1      11.027  18.629  18.430  0.00  0.00    +0.000 C 
ATOM     10  N   UNL     1      11.331  18.112  17.074  0.00  0.00    +0.000 NA
ATOM     11  C   UNL     1      11.008  16.671  16.978  0.00  0.00    +0.000 C 
ATOM     12  C   UNL     1       9.594  16.320  17.500  0.00  0.00    +0.000 C 
ATOM     13  N   UNL     1       9.209  14.947  20.325  0.00  0.00    +0.000 N 
ATOM     14  C   UNL     1       8.458  14.636  21.437  0.00  0.00    +0.000 A 
ATOM     15  C   UNL     1       8.501  13.576  22.349  0.00  0.00    +0.000 A 
ATOM     16  C   UNL     1       7.495  13.509  23.328  0.00  0.00    +0.000 A 
ATOM     17  C   UNL     1       7.503  12.343  24.283  0.00  0.00    +0.000 C 
ATOM     18  H   UNL     1      12.326  18.240  16.891  0.00  0.00    +0.000 HD
ENDROOT
BRANCH  13  19
ATOM     19  C   UNL     1      10.288  14.118  19.815  0.00  0.00    +0.000 C 
BRANCH  19  20
ATOM     20  C   UNL     1       9.826  12.775  19.272  0.00  0.00    +0.000 A 
ATOM     21  C   UNL     1       9.027  12.635  18.122  0.00  0.00    +0.000 A 
ATOM     22  C   UNL     1       8.560  11.382  17.717  0.00  0.00    +0.000 A 
ATOM     23  C   UNL     1       8.895  10.251  18.450  0.00  0.00    +0.000 A 
ATOM     24 CL   UNL     1       8.255   8.720  18.001  0.00  0.00    +0.000 Cl
ATOM     25  C   UNL     1       9.727  10.356  19.563  0.00  0.00    +0.000 A 
ATOM     26  C   UNL     1      10.195  11.611  19.967  0.00  0.00    +0.000 A 
ENDBRANCH  19  20
ENDBRANCH  13  19
TORSDOF 2
ENDMDL
MODEL 7
REMARK VINA RESULT:      -6.1      4.358      8.409
REMARK  Name = 
REMARK  4 active torsions:
REMARK  status: ('A' for Active; 'I' for Inactive)
REMARK    1  A    between atoms: C_1  and  C_2
REMARK    2  A    between atoms: N_13  and  C_14
REMARK    3  A    between atoms: C_14  and  C_15
REMARK    4  A    between atoms: C_24  and  C_25
REMARK                            x       y       z     vdW  Elec       q    Type
REMARK                         _______ _______ _______ _____ _____    ______ ____
ROOT
ATOM      1  C   UNL     1       0.592  10.980  21.525  0.00  0.00    +0.000 C 
ATOM      2  C   UNL     1       0.998   9.792  20.695  0.00  0.00    +0.000 A 
ATOM      3  C   UNL     1       0.987   8.507  21.283  0.00  0.00    +0.000 A 
ATOM      4  C   UNL     1       1.399   7.394  20.533  0.00  0.00    +0.000 A 
ATOM      5  N   UNL     1       1.454   6.059  20.869  0.00  0.00    +0.000 NA
ATOM      6  C   UNL     1       1.969   5.441  19.828  0.00  0.00    +0.000 A 
ATOM      7  N   UNL     1       2.067   4.110  19.604  0.00  0.00    +0.000 N 
ATOM      8  C   UNL     1       1.072   3.213  20.191  0.00  0.00    +0.000 C 
ATOM      9  C   UNL     1       0.849   2.058  19.183  0.00  0.00    +0.000 C 
ATOM     10  N   UNL     1       2.086   1.338  18.796  0.00  0.00    +0.000 NA
ATOM     11  C   UNL     1       3.143   2.292  18.394  0.00  0.00    +0.000 C 
ATOM     12  C   UNL     1       3.357   3.440  19.411  0.00  0.00    +0.000 C 
ATOM     13  N   UNL     1       2.246   6.344  18.825  0.00  0.00    +0.000 N 
ATOM     14  C   UNL     1       1.824   7.592  19.228  0.00  0.00    +0.000 A 
ATOM     15  C   UNL     1       1.807   8.841  18.598  0.00  0.00    +0.000 A 
ATOM     16  C   UNL     1       1.398   9.954  19.352  0.00  0.00    +0.000 A 
ATOM     17  C   UNL     1       1.425  11.311  18.697  0.00  0.00    +0.000 C 
ATOM     18  H   UNL     1       1.875   0.728  18.006  0.00  0.00    +0.000 HD
ENDROOT
BRANCH  13  19
ATOM     19  C   UNL     1       2.850   6.069  17.533  0.00  0.00    +0.000 C 
BRANCH  19  20
ATOM     20  C   UNL     1       4.322   5.692  17.612  0.00  0.00    +0.000 A 
ATOM     21  C   UNL     1       4.998   4.986  16.599  0.00  0.00    +0.000 A 
ATOM     22  C   UNL     1       6.329   4.590  16.762  0.00  0.00    +0.000 A 
ATOM     23  C   UNL     1       7.003   4.905  17.935  0.00  0.00    +0.000 A 
ATOM     24 CL   UNL     1       8.612   4.349  18.170  0.00  0.00    +0.000 Cl
ATOM     25  C   UNL     1       6.371   5.647  18.931  0.00  0.00    +0.000 A 
ATOM     26  C   UNL     1       5.039   6.044  18.767  0.00  0.00    +0.000 A 
ENDBRANCH  19  20
ENDBRANCH  13  19
TORSDOF 2
ENDMDL
MODEL 8
REMARK VINA RESULT:      -6.1      5.106      7.143
REMARK  Name = 
REMARK  4 active torsions:
REMARK  status: ('A' for Active; 'I' for Inactive)
REMARK    1  A    between atoms: C_1  and  C_2
REMARK    2  A    between atoms: N_13  and  C_14
REMARK    3  A    between atoms: C_14  and  C_15
REMARK    4  A    between atoms: C_24  and  C_25
REMARK                            x       y       z     vdW  Elec       q    Type
REMARK                         _______ _______ _______ _____ _____    ______ ____
ROOT
ATOM      1  C   UNL     1      -1.432   9.888  16.993  0.00  0.00    +0.000 C 
ATOM      2  C   UNL     1      -2.595  10.714  17.473  0.00  0.00    +0.000 A 
ATOM      3  C   UNL     1      -2.583  11.217  18.793  0.00  0.00    +0.000 A 
ATOM      4  C   UNL     1      -3.678  11.957  19.267  0.00  0.00    +0.000 A 
ATOM      5  N   UNL     1      -3.887  12.563  20.486  0.00  0.00    +0.000 NA
ATOM      6  C   UNL     1      -5.099  13.075  20.436  0.00  0.00    +0.000 A 
ATOM      7  N   UNL     1      -5.697  13.908  21.320  0.00  0.00    +0.000 N 
ATOM      8  C   UNL     1      -4.871  14.826  22.104  0.00  0.00    +0.000 C 
ATOM      9  C   UNL     1      -5.691  16.127  22.293  0.00  0.00    +0.000 C 
ATOM     10  N   UNL     1      -7.028  15.924  22.901  0.00  0.00    +0.000 NA
ATOM     11  C   UNL     1      -7.762  14.845  22.203  0.00  0.00    +0.000 C 
ATOM     12  C   UNL     1      -6.933  13.550  22.023  0.00  0.00    +0.000 C 
ATOM     13  N   UNL     1      -5.676  12.816  19.213  0.00  0.00    +0.000 N 
ATOM     14  C   UNL     1      -4.758  12.161  18.422  0.00  0.00    +0.000 A 
ATOM     15  C   UNL     1      -4.788  11.718  17.096  0.00  0.00    +0.000 A 
ATOM     16  C   UNL     1      -3.693  10.973  16.625  0.00  0.00    +0.000 A 
ATOM     17  C   UNL     1      -3.739  10.448  15.214  0.00  0.00    +0.000 C 
ATOM     18  H   UNL     1      -7.559  16.790  22.820  0.00  0.00    +0.000 HD
ENDROOT
BRANCH  13  19
ATOM     19  C   UNL     1      -7.013  13.179  18.775  0.00  0.00    +0.000 C 
BRANCH  19  20
ATOM     20  C   UNL     1      -7.072  14.490  18.006  0.00  0.00    +0.000 A 
ATOM     21  C   UNL     1      -7.307  14.567  16.620  0.00  0.00    +0.000 A 
ATOM     22  C   UNL     1      -7.265  15.793  15.950  0.00  0.00    +0.000 A 
ATOM     23  C   UNL     1      -6.998  16.957  16.658  0.00  0.00    +0.000 A 
ATOM     24 CL   UNL     1      -6.865  18.454  15.823  0.00  0.00    +0.000 Cl
ATOM     25  C   UNL     1      -6.813  16.913  18.038  0.00  0.00    +0.000 A 
ATOM     26  C   UNL     1      -6.857  15.686  18.709  0.00  0.00    +0.000 A 
ENDBRANCH  19  20
ENDBRANCH  13  19
TORSDOF 2
ENDMDL
MODEL 9
REMARK VINA RESULT:      -6.0      7.221      9.197
REMARK  Name = 
REMARK  4 active torsions:
REMARK  status: ('A' for Active; 'I' for Inactive)
REMARK    1  A    between atoms: C_1  and  C_2
REMARK    2  A    between atoms: N_13  and  C_14
REMARK    3  A    between atoms: C_14  and  C_15
REMARK    4  A    between atoms: C_24  and  C_25
REMARK                            x       y       z     vdW  Elec       q    Type
REMARK                         _______ _______ _______ _____ _____    ______ ____
ROOT
ATOM      1  C   UNL     1       6.079  12.013  26.472  0.00  0.00    +0.000 C 
ATOM      2  C   UNL     1       6.651  12.484  25.162  0.00  0.00    +0.000 A 
ATOM      3  C   UNL     1       7.459  11.603  24.408  0.00  0.00    +0.000 A 
ATOM      4  C   UNL     1       8.030  12.040  23.202  0.00  0.00    +0.000 A 
ATOM      5  N   UNL     1       8.820  11.372  22.293  0.00  0.00    +0.000 NA
ATOM      6  C   UNL     1       9.136  12.253  21.368  0.00  0.00    +0.000 A 
ATOM      7  N   UNL     1       9.752  12.041  20.181  0.00  0.00    +0.000 N 
ATOM      8  C   UNL     1       9.587  10.751  19.512  0.00  0.00    +0.000 C 
ATOM      9  C   UNL     1       9.572  11.027  17.987  0.00  0.00    +0.000 C 
ATOM     10  N   UNL     1      10.758  11.764  17.489  0.00  0.00    +0.000 NA
ATOM     11  C   UNL     1      11.015  12.964  18.316  0.00  0.00    +0.000 C 
ATOM     12  C   UNL     1      11.029  12.674  19.837  0.00  0.00    +0.000 C 
ATOM     13  N   UNL     1       8.567  13.474  21.656  0.00  0.00    +0.000 N 
ATOM     14  C   UNL     1       7.797  13.343  22.791  0.00  0.00    +0.000 A 
ATOM     15  C   UNL     1       6.968  14.230  23.486  0.00  0.00    +0.000 A 
ATOM     16  C   UNL     1       6.401  13.791  24.695  0.00  0.00    +0.000 A 
ATOM     17  C   UNL     1       5.548  14.757  25.476  0.00  0.00    +0.000 C 
ATOM     18  H   UNL     1      10.580  12.058  16.529  0.00  0.00    +0.000 HD
ENDROOT
BRANCH  13  19
ATOM     19  C   UNL     1       8.703  14.709  20.904  0.00  0.00    +0.000 C 
BRANCH  19  20
ATOM     20  C   UNL     1       7.523  15.006  19.992  0.00  0.00    +0.000 A 
ATOM     21  C   UNL     1       6.461  15.859  20.347  0.00  0.00    +0.000 A 
ATOM     22  C   UNL     1       5.359  16.028  19.505  0.00  0.00    +0.000 A 
ATOM     23  C   UNL     1       5.310  15.355  18.291  0.00  0.00    +0.000 A 
ATOM     24 CL   UNL     1       3.920  15.497  17.290  0.00  0.00    +0.000 Cl
ATOM     25  C   UNL     1       6.372  14.545  17.893  0.00  0.00    +0.000 A 
ATOM     26  C   UNL     1       7.476  14.377  18.737  0.00  0.00    +0.000 A 
ENDBRANCH  19  20
ENDBRANCH  13  19
TORSDOF 2
ENDMDL
