MODEL 1
REMARK VINA RESULT:      -7.2      0.000      0.000
REMARK  Name = 
REMARK  3 active torsions:
REMARK  status: ('A' for Active; 'I' for Inactive)
REMARK    1  A    between atoms: C_6  and  C_7
REMARK    2  A    between atoms: N_15  and  O_16
REMARK    3  A    between atoms: O_16  and  S_17
REMARK                            x       y       z     vdW  Elec       q    Type
REMARK                         _______ _______ _______ _____ _____    ______ ____
ROOT
ATOM      1  O   UNL     1       1.107   4.603  20.519  0.00  0.00    +0.000 OA
ATOM      2  C   UNL     1       1.843   4.190  19.629  0.00  0.00    +0.000 C 
ATOM      3  N   UNL     1       2.287   2.824  19.500  0.00  0.00    +0.000 N 
ATOM      4  C   UNL     1       3.648   2.654  20.023  0.00  0.00    +0.000 C 
ATOM      5  C   UNL     1       4.682   3.206  19.041  0.00  0.00    +0.000 C 
ATOM      6  C   UNL     1       4.347   3.795  17.862  0.00  0.00    +0.000 C 
ATOM      7  C   UNL     1       2.855   3.895  17.536  0.00  0.00    +0.000 C 
ATOM      8  C   UNL     1       2.221   2.600  18.050  0.00  0.00    +0.000 C 
ATOM      9  N   UNL     1       2.287   4.846  18.486  0.00  0.00    +0.000 N 
ENDROOT
BRANCH   6  10
ATOM     10  C   UNL     1       5.355   4.200  16.850  0.00  0.00    +0.000 A 
ATOM     11  C   UNL     1       5.044   4.333  15.490  0.00  0.00    +0.000 A 
ATOM     12  C   UNL     1       6.036   4.633  14.555  0.00  0.00    +0.000 A 
ATOM     13  C   UNL     1       7.331   4.802  15.002  0.00  0.00    +0.000 A 
ATOM     14  N   UNL     1       7.683   4.722  16.300  0.00  0.00    +0.000 NA
ATOM     15  C   UNL     1       6.691   4.438  17.183  0.00  0.00    +0.000 A 
ENDBRANCH   6  10
BRANCH   9  16
ATOM     16  O   UNL     1       1.675   6.025  18.034  0.00  0.00    +0.000 OA
BRANCH  16  17
ATOM     17  S   UNL     1       2.479   7.431  18.343  0.00  0.00    +0.000 S 
ATOM     18  O   UNL     1       3.808   7.224  17.790  0.00  0.00    +0.000 OA
ATOM     19  O   UNL     1       1.687   8.448  17.632  0.00  0.00    +0.000 OA
ATOM     20  O   UNL     1       2.385   7.574  19.784  0.00  0.00    +0.000 OA
ENDBRANCH  16  17
ENDBRANCH   9  16
TORSDOF 3
ENDMDL
MODEL 2
REMARK VINA RESULT:      -7.1      3.398      5.223
REMARK  Name = 
REMARK  3 active torsions:
REMARK  status: ('A' for Active; 'I' for Inactive)
REMARK    1  A    between atoms: C_6  and  C_7
REMARK    2  A    between atoms: N_15  and  O_16
REMARK    3  A    between atoms: O_16  and  S_17
REMARK                            x       y       z     vdW  Elec       q    Type
REMARK                         _______ _______ _______ _____ _____    ______ ____
ROOT
ATOM      1  O   UNL     1       5.248   2.822  19.608  0.00  0.00    +0.000 OA
ATOM      2  C   UNL     1       4.510   3.656  19.096  0.00  0.00    +0.000 C 
ATOM      3  N   UNL     1       4.467   3.959  17.687  0.00  0.00    +0.000 N 
ATOM      4  C   UNL     1       5.230   5.175  17.380  0.00  0.00    +0.000 C 
ATOM      5  C   UNL     1       4.453   6.425  17.791  0.00  0.00    +0.000 C 
ATOM      6  C   UNL     1       3.232   6.379  18.387  0.00  0.00    +0.000 C 
ATOM      7  C   UNL     1       2.637   4.992  18.645  0.00  0.00    +0.000 C 
ATOM      8  C   UNL     1       3.030   4.132  17.439  0.00  0.00    +0.000 C 
ATOM      9  N   UNL     1       3.466   4.371  19.673  0.00  0.00    +0.000 N 
ENDROOT
BRANCH   6  10
ATOM     10  C   UNL     1       2.421   7.593  18.655  0.00  0.00    +0.000 A 
ATOM     11  C   UNL     1       2.217   8.589  17.690  0.00  0.00    +0.000 A 
ATOM     12  C   UNL     1       1.520   9.757  18.004  0.00  0.00    +0.000 A 
ATOM     13  C   UNL     1       1.029   9.906  19.285  0.00  0.00    +0.000 A 
ATOM     14  N   UNL     1       1.163   8.968  20.242  0.00  0.00    +0.000 NA
ATOM     15  C   UNL     1       1.838   7.840  19.900  0.00  0.00    +0.000 A 
ENDBRANCH   6  10
BRANCH   9  16
ATOM     16  O   UNL     1       2.907   3.990  20.903  0.00  0.00    +0.000 OA
BRANCH  16  17
ATOM     17  S   UNL     1       1.552   3.053  20.831  0.00  0.00    +0.000 S 
ATOM     18  O   UNL     1       0.507   3.952  20.369  0.00  0.00    +0.000 OA
ATOM     19  O   UNL     1       1.908   2.001  19.864  0.00  0.00    +0.000 OA
ATOM     20  O   UNL     1       1.419   2.532  22.179  0.00  0.00    +0.000 OA
ENDBRANCH  16  17
ENDBRANCH   9  16
TORSDOF 3
ENDMDL
MODEL 3
REMARK VINA RESULT:      -7.0      1.605      4.720
REMARK  Name = 
REMARK  3 active torsions:
REMARK  status: ('A' for Active; 'I' for Inactive)
REMARK    1  A    between atoms: C_6  and  C_7
REMARK    2  A    between atoms: N_15  and  O_16
REMARK    3  A    between atoms: O_16  and  S_17
REMARK                            x       y       z     vdW  Elec       q    Type
REMARK                         _______ _______ _______ _____ _____    ______ ____
ROOT
ATOM      1  O   UNL     1       5.370   6.860  15.526  0.00  0.00    +0.000 OA
ATOM      2  C   UNL     1       5.261   6.075  16.461  0.00  0.00    +0.000 C 
ATOM      3  N   UNL     1       6.011   4.851  16.596  0.00  0.00    +0.000 N 
ATOM      4  C   UNL     1       5.215   3.690  16.179  0.00  0.00    +0.000 C 
ATOM      5  C   UNL     1       4.191   3.317  17.249  0.00  0.00    +0.000 C 
ATOM      6  C   UNL     1       4.043   4.010  18.411  0.00  0.00    +0.000 C 
ATOM      7  C   UNL     1       4.963   5.215  18.621  0.00  0.00    +0.000 C 
ATOM      8  C   UNL     1       6.321   4.820  18.032  0.00  0.00    +0.000 C 
ATOM      9  N   UNL     1       4.553   6.223  17.649  0.00  0.00    +0.000 N 
ENDROOT
BRANCH   6  10
ATOM     10  C   UNL     1       3.147   3.561  19.506  0.00  0.00    +0.000 A 
ATOM     11  C   UNL     1       1.778   3.857  19.526  0.00  0.00    +0.000 A 
ATOM     12  C   UNL     1       0.983   3.493  20.614  0.00  0.00    +0.000 A 
ATOM     13  C   UNL     1       1.576   2.827  21.668  0.00  0.00    +0.000 A 
ATOM     14  N   UNL     1       2.879   2.485  21.688  0.00  0.00    +0.000 NA
ATOM     15  C   UNL     1       3.620   2.847  20.610  0.00  0.00    +0.000 A 
ENDBRANCH   6  10
BRANCH   9  16
ATOM     16  O   UNL     1       4.093   7.478  18.077  0.00  0.00    +0.000 OA
BRANCH  16  17
ATOM     17  S   UNL     1       2.458   7.653  18.203  0.00  0.00    +0.000 S 
ATOM     18  O   UNL     1       2.205   7.727  19.633  0.00  0.00    +0.000 OA
ATOM     19  O   UNL     1       2.186   8.907  17.481  0.00  0.00    +0.000 OA
ATOM     20  O   UNL     1       1.931   6.495  17.505  0.00  0.00    +0.000 OA
ENDBRANCH  16  17
ENDBRANCH   9  16
TORSDOF 3
ENDMDL
MODEL 4
REMARK VINA RESULT:      -7.0      3.427      5.399
REMARK  Name = 
REMARK  3 active torsions:
REMARK  status: ('A' for Active; 'I' for Inactive)
REMARK    1  A    between atoms: C_6  and  C_7
REMARK    2  A    between atoms: N_15  and  O_16
REMARK    3  A    between atoms: O_16  and  S_17
REMARK                            x       y       z     vdW  Elec       q    Type
REMARK                         _______ _______ _______ _____ _____    ______ ____
ROOT
ATOM      1  O   UNL     1       5.616   3.579  16.188  0.00  0.00    +0.000 OA
ATOM      2  C   UNL     1       4.920   3.999  17.106  0.00  0.00    +0.000 C 
ATOM      3  N   UNL     1       3.946   3.215  17.823  0.00  0.00    +0.000 N 
ATOM      4  C   UNL     1       2.587   3.477  17.334  0.00  0.00    +0.000 C 
ATOM      5  C   UNL     1       2.067   4.815  17.859  0.00  0.00    +0.000 C 
ATOM      6  C   UNL     1       2.805   5.642  18.648  0.00  0.00    +0.000 C 
ATOM      7  C   UNL     1       4.219   5.178  19.006  0.00  0.00    +0.000 C 
ATOM      8  C   UNL     1       4.130   3.663  19.209  0.00  0.00    +0.000 C 
ATOM      9  N   UNL     1       4.994   5.219  17.770  0.00  0.00    +0.000 N 
ENDROOT
BRANCH   6  10
ATOM     10  C   UNL     1       2.248   6.869  19.269  0.00  0.00    +0.000 A 
ATOM     11  C   UNL     1       1.779   6.897  20.590  0.00  0.00    +0.000 A 
ATOM     12  C   UNL     1       1.184   8.046  21.114  0.00  0.00    +0.000 A 
ATOM     13  C   UNL     1       1.075   9.158  20.303  0.00  0.00    +0.000 A 
ATOM     14  N   UNL     1       1.540   9.201  19.039  0.00  0.00    +0.000 NA
ATOM     15  C   UNL     1       2.121   8.069  18.565  0.00  0.00    +0.000 A 
ENDBRANCH   6  10
BRANCH   9  16
ATOM     16  O   UNL     1       6.124   6.044  17.666  0.00  0.00    +0.000 OA
BRANCH  16  17
ATOM     17  S   UNL     1       7.414   5.641  18.609  0.00  0.00    +0.000 S 
ATOM     18  O   UNL     1       8.039   4.522  17.919  0.00  0.00    +0.000 OA
ATOM     19  O   UNL     1       8.231   6.865  18.624  0.00  0.00    +0.000 OA
ATOM     20  O   UNL     1       6.824   5.362  19.904  0.00  0.00    +0.000 OA
ENDBRANCH  16  17
ENDBRANCH   9  16
TORSDOF 3
ENDMDL
MODEL 5
REMARK VINA RESULT:      -6.9      3.707      4.889
REMARK  Name = 
REMARK  3 active torsions:
REMARK  status: ('A' for Active; 'I' for Inactive)
REMARK    1  A    between atoms: C_6  and  C_7
REMARK    2  A    between atoms: N_15  and  O_16
REMARK    3  A    between atoms: O_16  and  S_17
REMARK                            x       y       z     vdW  Elec       q    Type
REMARK                         _______ _______ _______ _____ _____    ______ ____
ROOT
ATOM      1  O   UNL     1       4.097   0.963  18.447  0.00  0.00    +0.000 OA
ATOM      2  C   UNL     1       3.511   1.908  18.964  0.00  0.00    +0.000 C 
ATOM      3  N   UNL     1       2.178   1.847  19.511  0.00  0.00    +0.000 N 
ATOM      4  C   UNL     1       1.191   2.391  18.572  0.00  0.00    +0.000 C 
ATOM      5  C   UNL     1       1.239   3.919  18.554  0.00  0.00    +0.000 C 
ATOM      6  C   UNL     1       2.114   4.644  19.300  0.00  0.00    +0.000 C 
ATOM      7  C   UNL     1       3.083   3.860  20.189  0.00  0.00    +0.000 C 
ATOM      8  C   UNL     1       2.293   2.664  20.727  0.00  0.00    +0.000 C 
ATOM      9  N   UNL     1       4.001   3.168  19.290  0.00  0.00    +0.000 N 
ENDROOT
BRANCH   6  10
ATOM     10  C   UNL     1       2.063   6.125  19.387  0.00  0.00    +0.000 A 
ATOM     11  C   UNL     1       1.622   6.796  20.536  0.00  0.00    +0.000 A 
ATOM     12  C   UNL     1       1.507   8.187  20.552  0.00  0.00    +0.000 A 
ATOM     13  C   UNL     1       1.845   8.888  19.412  0.00  0.00    +0.000 A 
ATOM     14  N   UNL     1       2.308   8.300  18.292  0.00  0.00    +0.000 NA
ATOM     15  C   UNL     1       2.417   6.947  18.314  0.00  0.00    +0.000 A 
ENDBRANCH   6  10
BRANCH   9  16
ATOM     16  O   UNL     1       5.379   3.428  19.342  0.00  0.00    +0.000 OA
BRANCH  16  17
ATOM     17  S   UNL     1       5.926   4.668  18.403  0.00  0.00    +0.000 S 
ATOM     18  O   UNL     1       5.703   5.861  19.204  0.00  0.00    +0.000 OA
ATOM     19  O   UNL     1       7.347   4.345  18.192  0.00  0.00    +0.000 OA
ATOM     20  O   UNL     1       5.151   4.547  17.182  0.00  0.00    +0.000 OA
ENDBRANCH  16  17
ENDBRANCH   9  16
TORSDOF 3
ENDMDL
MODEL 6
REMARK VINA RESULT:      -6.9      3.330      5.262
REMARK  Name = 
REMARK  3 active torsions:
REMARK  status: ('A' for Active; 'I' for Inactive)
REMARK    1  A    between atoms: C_6  and  C_7
REMARK    2  A    between atoms: N_15  and  O_16
REMARK    3  A    between atoms: O_16  and  S_17
REMARK                            x       y       z     vdW  Elec       q    Type
REMARK                         _______ _______ _______ _____ _____    ______ ____
ROOT
ATOM      1  O   UNL     1       5.157   2.704  19.566  0.00  0.00    +0.000 OA
ATOM      2  C   UNL     1       4.441   3.569  19.074  0.00  0.00    +0.000 C 
ATOM      3  N   UNL     1       4.388   3.889  17.669  0.00  0.00    +0.000 N 
ATOM      4  C   UNL     1       5.189   5.081  17.363  0.00  0.00    +0.000 C 
ATOM      5  C   UNL     1       4.463   6.352  17.799  0.00  0.00    +0.000 C 
ATOM      6  C   UNL     1       3.249   6.343  18.412  0.00  0.00    +0.000 C 
ATOM      7  C   UNL     1       2.610   4.975  18.664  0.00  0.00    +0.000 C 
ATOM      8  C   UNL     1       2.954   4.115  17.444  0.00  0.00    +0.000 C 
ATOM      9  N   UNL     1       3.431   4.314  19.673  0.00  0.00    +0.000 N 
ENDROOT
BRANCH   6  10
ATOM     10  C   UNL     1       2.485   7.582  18.705  0.00  0.00    +0.000 A 
ATOM     11  C   UNL     1       1.887   7.820  19.950  0.00  0.00    +0.000 A 
ATOM     12  C   UNL     1       1.105   8.956  20.162  0.00  0.00    +0.000 A 
ATOM     13  C   UNL     1       0.940   9.845  19.119  0.00  0.00    +0.000 A 
ATOM     14  N   UNL     1       1.519   9.687  17.913  0.00  0.00    +0.000 NA
ATOM     15  C   UNL     1       2.281   8.575  17.744  0.00  0.00    +0.000 A 
ENDBRANCH   6  10
BRANCH   9  16
ATOM     16  O   UNL     1       2.876   3.938  20.907  0.00  0.00    +0.000 OA
BRANCH  16  17
ATOM     17  S   UNL     1       1.490   3.049  20.845  0.00  0.00    +0.000 S 
ATOM     18  O   UNL     1       0.474   3.982  20.384  0.00  0.00    +0.000 OA
ATOM     19  O   UNL     1       1.803   1.982  19.880  0.00  0.00    +0.000 OA
ATOM     20  O   UNL     1       1.345   2.538  22.195  0.00  0.00    +0.000 OA
ENDBRANCH  16  17
ENDBRANCH   9  16
TORSDOF 3
ENDMDL
MODEL 7
REMARK VINA RESULT:      -6.9      3.159      5.203
REMARK  Name = 
REMARK  3 active torsions:
REMARK  status: ('A' for Active; 'I' for Inactive)
REMARK    1  A    between atoms: C_6  and  C_7
REMARK    2  A    between atoms: N_15  and  O_16
REMARK    3  A    between atoms: O_16  and  S_17
REMARK                            x       y       z     vdW  Elec       q    Type
REMARK                         _______ _______ _______ _____ _____    ______ ____
ROOT
ATOM      1  O   UNL     1       5.679   3.280  16.384  0.00  0.00    +0.000 OA
ATOM      2  C   UNL     1       4.936   3.746  17.241  0.00  0.00    +0.000 C 
ATOM      3  N   UNL     1       3.845   3.032  17.857  0.00  0.00    +0.000 N 
ATOM      4  C   UNL     1       2.559   3.400  17.253  0.00  0.00    +0.000 C 
ATOM      5  C   UNL     1       2.096   4.770  17.747  0.00  0.00    +0.000 C 
ATOM      6  C   UNL     1       2.819   5.533  18.610  0.00  0.00    +0.000 C 
ATOM      7  C   UNL     1       4.157   4.961  19.087  0.00  0.00    +0.000 C 
ATOM      8  C   UNL     1       3.937   3.456  19.261  0.00  0.00    +0.000 C 
ATOM      9  N   UNL     1       5.041   4.952  17.926  0.00  0.00    +0.000 N 
ENDROOT
BRANCH   6  10
ATOM     10  C   UNL     1       2.302   6.795  19.196  0.00  0.00    +0.000 A 
ATOM     11  C   UNL     1       1.836   6.876  20.515  0.00  0.00    +0.000 A 
ATOM     12  C   UNL     1       1.278   8.057  21.006  0.00  0.00    +0.000 A 
ATOM     13  C   UNL     1       1.202   9.148  20.163  0.00  0.00    +0.000 A 
ATOM     14  N   UNL     1       1.666   9.140  18.898  0.00  0.00    +0.000 NA
ATOM     15  C   UNL     1       2.211   7.977  18.457  0.00  0.00    +0.000 A 
ENDBRANCH   6  10
BRANCH   9  16
ATOM     16  O   UNL     1       6.234   5.690  17.934  0.00  0.00    +0.000 OA
BRANCH  16  17
ATOM     17  S   UNL     1       6.494   6.674  16.638  0.00  0.00    +0.000 S 
ATOM     18  O   UNL     1       7.074   7.882  17.203  0.00  0.00    +0.000 OA
ATOM     19  O   UNL     1       7.422   5.902  15.795  0.00  0.00    +0.000 OA
ATOM     20  O   UNL     1       5.182   6.801  16.030  0.00  0.00    +0.000 OA
ENDBRANCH  16  17
ENDBRANCH   9  16
TORSDOF 3
ENDMDL
MODEL 8
REMARK VINA RESULT:      -6.9      2.580      3.251
REMARK  Name = 
REMARK  3 active torsions:
REMARK  status: ('A' for Active; 'I' for Inactive)
REMARK    1  A    between atoms: C_6  and  C_7
REMARK    2  A    between atoms: N_15  and  O_16
REMARK    3  A    between atoms: O_16  and  S_17
REMARK                            x       y       z     vdW  Elec       q    Type
REMARK                         _______ _______ _______ _____ _____    ______ ____
ROOT
ATOM      1  O   UNL     1       3.513   4.210  20.765  0.00  0.00    +0.000 OA
ATOM      2  C   UNL     1       3.605   4.472  19.570  0.00  0.00    +0.000 C 
ATOM      3  N   UNL     1       2.540   4.312  18.611  0.00  0.00    +0.000 N 
ATOM      4  C   UNL     1       2.696   3.071  17.843  0.00  0.00    +0.000 C 
ATOM      5  C   UNL     1       3.786   3.220  16.783  0.00  0.00    +0.000 C 
ATOM      6  C   UNL     1       4.515   4.356  16.619  0.00  0.00    +0.000 C 
ATOM      7  C   UNL     1       4.203   5.522  17.562  0.00  0.00    +0.000 C 
ATOM      8  C   UNL     1       2.685   5.506  17.768  0.00  0.00    +0.000 C 
ATOM      9  N   UNL     1       4.639   5.107  18.891  0.00  0.00    +0.000 N 
ENDROOT
BRANCH   6  10
ATOM     10  C   UNL     1       5.471   4.545  15.500  0.00  0.00    +0.000 A 
ATOM     11  C   UNL     1       5.343   3.869  14.279  0.00  0.00    +0.000 A 
ATOM     12  C   UNL     1       6.308   4.006  13.280  0.00  0.00    +0.000 A 
ATOM     13  C   UNL     1       7.389   4.831  13.519  0.00  0.00    +0.000 A 
ATOM     14  N   UNL     1       7.546   5.534  14.657  0.00  0.00    +0.000 NA
ATOM     15  C   UNL     1       6.584   5.383  15.604  0.00  0.00    +0.000 A 
ENDBRANCH   6  10
BRANCH   9  16
ATOM     16  O   UNL     1       5.628   5.831  19.574  0.00  0.00    +0.000 OA
BRANCH  16  17
ATOM     17  S   UNL     1       7.192   5.459  19.206  0.00  0.00    +0.000 S 
ATOM     18  O   UNL     1       7.662   6.586  18.417  0.00  0.00    +0.000 OA
ATOM     19  O   UNL     1       7.840   5.338  20.522  0.00  0.00    +0.000 OA
ATOM     20  O   UNL     1       7.093   4.181  18.526  0.00  0.00    +0.000 OA
ENDBRANCH  16  17
ENDBRANCH   9  16
TORSDOF 3
ENDMDL
MODEL 9
REMARK VINA RESULT:      -6.9      3.634      4.697
REMARK  Name = 
REMARK  3 active torsions:
REMARK  status: ('A' for Active; 'I' for Inactive)
REMARK    1  A    between atoms: C_6  and  C_7
REMARK    2  A    between atoms: N_15  and  O_16
REMARK    3  A    between atoms: O_16  and  S_17
REMARK                            x       y       z     vdW  Elec       q    Type
REMARK                         _______ _______ _______ _____ _____    ______ ____
ROOT
ATOM      1  O   UNL     1       4.268   1.048  18.682  0.00  0.00    +0.000 OA
ATOM      2  C   UNL     1       3.648   2.027  19.082  0.00  0.00    +0.000 C 
ATOM      3  N   UNL     1       2.304   1.990  19.604  0.00  0.00    +0.000 N 
ATOM      4  C   UNL     1       1.327   2.405  18.591  0.00  0.00    +0.000 C 
ATOM      5  C   UNL     1       1.339   3.922  18.411  0.00  0.00    +0.000 C 
ATOM      6  C   UNL     1       2.178   4.746  19.095  0.00  0.00    +0.000 C 
ATOM      7  C   UNL     1       3.144   4.086  20.082  0.00  0.00    +0.000 C 
ATOM      8  C   UNL     1       2.369   2.933  20.728  0.00  0.00    +0.000 C 
ATOM      9  N   UNL     1       4.100   3.327  19.283  0.00  0.00    +0.000 N 
ENDROOT
BRANCH   6  10
ATOM     10  C   UNL     1       2.090   6.226  19.022  0.00  0.00    +0.000 A 
ATOM     11  C   UNL     1       2.418   6.942  17.863  0.00  0.00    +0.000 A 
ATOM     12  C   UNL     1       2.404   8.338  17.857  0.00  0.00    +0.000 A 
ATOM     13  C   UNL     1       2.054   8.997  19.018  0.00  0.00    +0.000 A 
ATOM     14  N   UNL     1       1.695   8.362  20.150  0.00  0.00    +0.000 NA
ATOM     15  C   UNL     1       1.710   7.004  20.118  0.00  0.00    +0.000 A 
ENDBRANCH   6  10
BRANCH   9  16
ATOM     16  O   UNL     1       5.470   3.627  19.336  0.00  0.00    +0.000 OA
BRANCH  16  17
ATOM     17  S   UNL     1       6.053   4.598  18.139  0.00  0.00    +0.000 S 
ATOM     18  O   UNL     1       5.349   4.168  16.941  0.00  0.00    +0.000 OA
ATOM     19  O   UNL     1       5.699   5.955  18.587  0.00  0.00    +0.000 OA
ATOM     20  O   UNL     1       7.486   4.368  18.173  0.00  0.00    +0.000 OA
ENDBRANCH  16  17
ENDBRANCH   9  16
TORSDOF 3
ENDMDL
