MODEL 1
REMARK VINA RESULT:      -8.8      0.000      0.000
REMARK  Name = 
REMARK  7 active torsions:
REMARK  status: ('A' for Active; 'I' for Inactive)
REMARK    1  A    between atoms: C_8  and  O_9
REMARK    2  A    between atoms: O_9  and  C_10
REMARK    3  A    between atoms: C_10  and  C_11
REMARK    4  A    between atoms: C_11  and  C_12
REMARK    5  A    between atoms: C_12  and  C_13
REMARK    6  A    between atoms: C_13  and  N_14
REMARK    7  A    between atoms: N_18  and  C_19
REMARK                            x       y       z     vdW  Elec       q    Type
REMARK                         _______ _______ _______ _____ _____    ______ ____
ROOT
ATOM      1  C   UNL     1       1.982   5.470  21.014  0.00  0.00    +0.000 C 
ENDROOT
BRANCH   1   2
ATOM      2  C   UNL     1       1.049   4.336  20.587  0.00  0.00    +0.000 C 
BRANCH   2   3
ATOM      3  C   UNL     1       1.543   2.986  21.099  0.00  0.00    +0.000 C 
BRANCH   3   4
ATOM      4  O   UNL     1       1.844   2.132  20.001  0.00  0.00    +0.000 OA
BRANCH   4  12
ATOM      5  O   UNL     1       8.108   4.786  17.839  0.00  0.00    +0.000 OA
ATOM      6  C   UNL     1       6.923   4.566  17.604  0.00  0.00    +0.000 C 
ATOM      7  C   UNL     1       6.204   5.167  16.417  0.00  0.00    +0.000 C 
ATOM      8  C   UNL     1       5.125   4.239  15.883  0.00  0.00    +0.000 C 
ATOM      9  C   UNL     1       4.243   3.753  16.998  0.00  0.00    +0.000 A 
ATOM     10  C   UNL     1       2.907   3.417  16.777  0.00  0.00    +0.000 A 
ATOM     11  C   UNL     1       2.137   2.885  17.816  0.00  0.00    +0.000 A 
ATOM     12  C   UNL     1       2.705   2.661  19.071  0.00  0.00    +0.000 A 
ATOM     13  C   UNL     1       4.049   2.980  19.290  0.00  0.00    +0.000 A 
ATOM     14  C   UNL     1       4.806   3.534  18.260  0.00  0.00    +0.000 A 
ATOM     15  N   UNL     1       6.149   3.855  18.484  0.00  0.00    +0.000 N 
ATOM     16  H   UNL     1       6.606   3.580  19.344  0.00  0.00    +0.000 HD
ENDBRANCH   4  12
ENDBRANCH   3   4
ENDBRANCH   2   3
ENDBRANCH   1   2
BRANCH   1  17
ATOM     17  C   UNL     1       2.495   6.304  19.828  0.00  0.00    +0.000 C 
BRANCH  17  18
ATOM     18  N   UNL     1       2.116   7.733  19.870  0.00  0.00    +0.000 NA
ATOM     19  C   UNL     1       1.097   7.909  20.930  0.00  0.00    +0.000 C 
ATOM     20  C   UNL     1       1.088   9.288  21.580  0.00  0.00    +0.000 C 
ATOM     21  C   UNL     1       0.856  10.507  20.691  0.00  0.00    +0.000 C 
ATOM     22  N   UNL     1       0.309  10.166  19.382  0.00  0.00    +0.000 N 
ATOM     23  C   UNL     1       1.289   9.667  18.407  0.00  0.00    +0.000 C 
ATOM     24  C   UNL     1       1.549   8.159  18.565  0.00  0.00    +0.000 C 
BRANCH  22  25
ATOM     25  C   UNL     1      -0.916  10.619  18.896  0.00  0.00    +0.000 A 
ATOM     26  C   UNL     1      -1.297  10.181  17.605  0.00  0.00    +0.000 A 
ATOM     27  C   UNL     1      -2.507  10.537  17.008  0.00  0.00    +0.000 A 
ATOM     28  C   UNL     1      -3.402  11.334  17.702  0.00  0.00    +0.000 A 
ATOM     29  C   UNL     1      -3.068  11.802  18.974  0.00  0.00    +0.000 A 
ATOM     30 CL   UNL     1      -4.247  12.800  19.762  0.00  0.00    +0.000 Cl
ATOM     31  C   UNL     1      -1.825  11.480  19.563  0.00  0.00    +0.000 A 
ATOM     32 CL   UNL     1      -1.385  12.292  21.042  0.00  0.00    +0.000 Cl
ENDBRANCH  22  25
ENDBRANCH  17  18
ENDBRANCH   1  17
TORSDOF 7
ENDMDL
MODEL 2
REMARK VINA RESULT:      -8.7      7.553      9.454
REMARK  Name = 
REMARK  7 active torsions:
REMARK  status: ('A' for Active; 'I' for Inactive)
REMARK    1  A    between atoms: C_8  and  O_9
REMARK    2  A    between atoms: O_9  and  C_10
REMARK    3  A    between atoms: C_10  and  C_11
REMARK    4  A    between atoms: C_11  and  C_12
REMARK    5  A    between atoms: C_12  and  C_13
REMARK    6  A    between atoms: C_13  and  N_14
REMARK    7  A    between atoms: N_18  and  C_19
REMARK                            x       y       z     vdW  Elec       q    Type
REMARK                         _______ _______ _______ _____ _____    ______ ____
ROOT
ATOM      1  C   UNL     1       8.268   8.889  17.833  0.00  0.00    +0.000 C 
ENDROOT
BRANCH   1   2
ATOM      2  C   UNL     1       8.031   7.461  18.324  0.00  0.00    +0.000 C 
BRANCH   2   3
ATOM      3  C   UNL     1       6.925   6.774  17.528  0.00  0.00    +0.000 C 
BRANCH   3   4
ATOM      4  O   UNL     1       6.840   5.403  17.899  0.00  0.00    +0.000 OA
BRANCH   4  12
ATOM      5  O   UNL     1       1.616   2.617  21.887  0.00  0.00    +0.000 OA
ATOM      6  C   UNL     1       2.031   2.943  20.778  0.00  0.00    +0.000 C 
ATOM      7  C   UNL     1       1.333   2.544  19.498  0.00  0.00    +0.000 C 
ATOM      8  C   UNL     1       1.488   3.601  18.417  0.00  0.00    +0.000 C 
ATOM      9  C   UNL     1       2.928   4.004  18.272  0.00  0.00    +0.000 A 
ATOM     10  C   UNL     1       3.440   4.455  17.054  0.00  0.00    +0.000 A 
ATOM     11  C   UNL     1       4.760   4.906  16.974  0.00  0.00    +0.000 A 
ATOM     12  C   UNL     1       5.567   4.935  18.112  0.00  0.00    +0.000 A 
ATOM     13  C   UNL     1       5.050   4.501  19.338  0.00  0.00    +0.000 A 
ATOM     14  C   UNL     1       3.742   4.029  19.409  0.00  0.00    +0.000 A 
ATOM     15  N   UNL     1       3.230   3.592  20.636  0.00  0.00    +0.000 N 
ATOM     16  H   UNL     1       3.757   3.728  21.489  0.00  0.00    +0.000 HD
ENDBRANCH   4  12
ENDBRANCH   3   4
ENDBRANCH   2   3
ENDBRANCH   1   2
BRANCH   1  17
ATOM     17  C   UNL     1       8.781   9.826  18.940  0.00  0.00    +0.000 C 
BRANCH  17  18
ATOM     18  N   UNL     1       9.787  10.814  18.493  0.00  0.00    +0.000 NA
ATOM     19  C   UNL     1      10.535  11.281  19.683  0.00  0.00    +0.000 C 
ATOM     20  C   UNL     1      11.967  11.721  19.400  0.00  0.00    +0.000 C 
ATOM     21  C   UNL     1      12.195  12.852  18.401  0.00  0.00    +0.000 C 
ATOM     22  N   UNL     1      10.985  13.615  18.114  0.00  0.00    +0.000 N 
ATOM     23  C   UNL     1      10.061  12.985  17.160  0.00  0.00    +0.000 C 
ATOM     24  C   UNL     1       9.124  11.973  17.842  0.00  0.00    +0.000 C 
BRANCH  22  25
ATOM     25  C   UNL     1      10.836  14.980  18.356  0.00  0.00    +0.000 A 
ATOM     26  C   UNL     1      10.967  15.847  17.244  0.00  0.00    +0.000 A 
ATOM     27  C   UNL     1      10.816  17.231  17.339  0.00  0.00    +0.000 A 
ATOM     28  C   UNL     1      10.502  17.801  18.562  0.00  0.00    +0.000 A 
ATOM     29  C   UNL     1      10.374  16.990  19.690  0.00  0.00    +0.000 A 
ATOM     30 CL   UNL     1       9.988  17.795  21.177  0.00  0.00    +0.000 Cl
ATOM     31  C   UNL     1      10.569  15.594  19.606  0.00  0.00    +0.000 A 
ATOM     32 CL   UNL     1      10.629  14.685  21.093  0.00  0.00    +0.000 Cl
ENDBRANCH  22  25
ENDBRANCH  17  18
ENDBRANCH   1  17
TORSDOF 7
ENDMDL
MODEL 3
REMARK VINA RESULT:      -8.6      7.118      8.994
REMARK  Name = 
REMARK  7 active torsions:
REMARK  status: ('A' for Active; 'I' for Inactive)
REMARK    1  A    between atoms: C_8  and  O_9
REMARK    2  A    between atoms: O_9  and  C_10
REMARK    3  A    between atoms: C_10  and  C_11
REMARK    4  A    between atoms: C_11  and  C_12
REMARK    5  A    between atoms: C_12  and  C_13
REMARK    6  A    between atoms: C_13  and  N_14
REMARK    7  A    between atoms: N_18  and  C_19
REMARK                            x       y       z     vdW  Elec       q    Type
REMARK                         _______ _______ _______ _____ _____    ______ ____
ROOT
ATOM      1  C   UNL     1       7.970   9.345  17.732  0.00  0.00    +0.000 C 
ENDROOT
BRANCH   1   2
ATOM      2  C   UNL     1       7.062   8.121  17.603  0.00  0.00    +0.000 C 
BRANCH   2   3
ATOM      3  C   UNL     1       7.844   6.825  17.798  0.00  0.00    +0.000 C 
BRANCH   3   4
ATOM      4  O   UNL     1       7.279   6.074  18.867  0.00  0.00    +0.000 OA
BRANCH   4  12
ATOM      5  O   UNL     1       0.592   3.950  20.184  0.00  0.00    +0.000 OA
ATOM      6  C   UNL     1       1.600   3.875  19.486  0.00  0.00    +0.000 C 
ATOM      7  C   UNL     1       1.787   2.801  18.439  0.00  0.00    +0.000 C 
ATOM      8  C   UNL     1       2.601   3.300  17.258  0.00  0.00    +0.000 C 
ATOM      9  C   UNL     1       3.860   3.974  17.727  0.00  0.00    +0.000 A 
ATOM     10  C   UNL     1       5.016   3.985  16.945  0.00  0.00    +0.000 A 
ATOM     11  C   UNL     1       6.142   4.695  17.371  0.00  0.00    +0.000 A 
ATOM     12  C   UNL     1       6.111   5.418  18.565  0.00  0.00    +0.000 A 
ATOM     13  C   UNL     1       4.947   5.423  19.341  0.00  0.00    +0.000 A 
ATOM     14  C   UNL     1       3.835   4.694  18.926  0.00  0.00    +0.000 A 
ATOM     15  N   UNL     1       2.674   4.698  19.707  0.00  0.00    +0.000 N 
ATOM     16  H   UNL     1       2.594   5.318  20.503  0.00  0.00    +0.000 HD
ENDBRANCH   4  12
ENDBRANCH   3   4
ENDBRANCH   2   3
ENDBRANCH   1   2
BRANCH   1  17
ATOM     17  C   UNL     1       8.878   9.290  18.971  0.00  0.00    +0.000 C 
BRANCH  17  18
ATOM     18  N   UNL     1       9.852  10.399  19.071  0.00  0.00    +0.000 NA
ATOM     19  C   UNL     1       9.449  11.266  20.202  0.00  0.00    +0.000 C 
ATOM     20  C   UNL     1      10.601  12.000  20.880  0.00  0.00    +0.000 C 
ATOM     21  C   UNL     1      11.463  12.934  20.037  0.00  0.00    +0.000 C 
ATOM     22  N   UNL     1      10.847  13.287  18.761  0.00  0.00    +0.000 N 
ATOM     23  C   UNL     1      10.962  12.265  17.711  0.00  0.00    +0.000 C 
ATOM     24  C   UNL     1       9.861  11.196  17.818  0.00  0.00    +0.000 C 
BRANCH  22  25
ATOM     25  C   UNL     1      10.527  14.586  18.371  0.00  0.00    +0.000 A 
ATOM     26  C   UNL     1      11.487  15.278  17.594  0.00  0.00    +0.000 A 
ATOM     27  C   UNL     1      11.286  16.573  17.115  0.00  0.00    +0.000 A 
ATOM     28  C   UNL     1      10.089  17.220  17.380  0.00  0.00    +0.000 A 
ATOM     29  C   UNL     1       9.115  16.584  18.151  0.00  0.00    +0.000 A 
ATOM     30 CL   UNL     1       7.656  17.476  18.436  0.00  0.00    +0.000 Cl
ATOM     31  C   UNL     1       9.335  15.291  18.675  0.00  0.00    +0.000 A 
ATOM     32 CL   UNL     1       8.178  14.665  19.820  0.00  0.00    +0.000 Cl
ENDBRANCH  22  25
ENDBRANCH  17  18
ENDBRANCH   1  17
TORSDOF 7
ENDMDL
MODEL 4
REMARK VINA RESULT:      -8.6      7.115     10.237
REMARK  Name = 
REMARK  7 active torsions:
REMARK  status: ('A' for Active; 'I' for Inactive)
REMARK    1  A    between atoms: C_8  and  O_9
REMARK    2  A    between atoms: O_9  and  C_10
REMARK    3  A    between atoms: C_10  and  C_11
REMARK    4  A    between atoms: C_11  and  C_12
REMARK    5  A    between atoms: C_12  and  C_13
REMARK    6  A    between atoms: C_13  and  N_14
REMARK    7  A    between atoms: N_18  and  C_19
REMARK                            x       y       z     vdW  Elec       q    Type
REMARK                         _______ _______ _______ _____ _____    ______ ____
ROOT
ATOM      1  C   UNL     1       7.561   8.985  17.814  0.00  0.00    +0.000 C 
ENDROOT
BRANCH   1   2
ATOM      2  C   UNL     1       8.567  10.106  18.079  0.00  0.00    +0.000 C 
BRANCH   2   3
ATOM      3  C   UNL     1       9.321   9.881  19.386  0.00  0.00    +0.000 C 
BRANCH   3   4
ATOM      4  O   UNL     1       9.144  10.999  20.247  0.00  0.00    +0.000 OA
BRANCH   4  12
ATOM      5  O   UNL     1       9.732  17.584  17.553  0.00  0.00    +0.000 OA
ATOM      6  C   UNL     1      10.279  16.564  17.963  0.00  0.00    +0.000 C 
ATOM      7  C   UNL     1      11.759  16.307  17.787  0.00  0.00    +0.000 C 
ATOM      8  C   UNL     1      12.333  15.504  18.941  0.00  0.00    +0.000 C 
ATOM      9  C   UNL     1      11.492  14.289  19.213  0.00  0.00    +0.000 A 
ATOM     10  C   UNL     1      12.044  13.124  19.749  0.00  0.00    +0.000 A 
ATOM     11  C   UNL     1      11.220  12.042  20.071  0.00  0.00    +0.000 A 
ATOM     12  C   UNL     1       9.839  12.128  19.887  0.00  0.00    +0.000 A 
ATOM     13  C   UNL     1       9.281  13.301  19.368  0.00  0.00    +0.000 A 
ATOM     14  C   UNL     1      10.108  14.367  19.024  0.00  0.00    +0.000 A 
ATOM     15  N   UNL     1       9.547  15.538  18.501  0.00  0.00    +0.000 N 
ATOM     16  H   UNL     1       8.543  15.661  18.483  0.00  0.00    +0.000 HD
ENDBRANCH   4  12
ENDBRANCH   3   4
ENDBRANCH   2   3
ENDBRANCH   1   2
BRANCH   1  17
ATOM     17  C   UNL     1       8.132   7.587  18.103  0.00  0.00    +0.000 C 
BRANCH  17  18
ATOM     18  N   UNL     1       7.365   6.472  17.505  0.00  0.00    +0.000 NA
ATOM     19  C   UNL     1       6.096   7.020  16.972  0.00  0.00    +0.000 C 
ATOM     20  C   UNL     1       5.523   6.254  15.785  0.00  0.00    +0.000 C 
ATOM     21  C   UNL     1       5.197   4.775  15.963  0.00  0.00    +0.000 C 
ATOM     22  N   UNL     1       5.135   4.367  17.364  0.00  0.00    +0.000 N 
ATOM     23  C   UNL     1       6.438   4.137  18.004  0.00  0.00    +0.000 C 
ATOM     24  C   UNL     1       7.065   5.439  18.529  0.00  0.00    +0.000 C 
BRANCH  22  25
ATOM     25  C   UNL     1       4.005   3.834  17.982  0.00  0.00    +0.000 A 
ATOM     26  C   UNL     1       3.692   2.484  17.695  0.00  0.00    +0.000 A 
ATOM     27  C   UNL     1       2.605   1.819  18.264  0.00  0.00    +0.000 A 
ATOM     28  C   UNL     1       1.797   2.484  19.172  0.00  0.00    +0.000 A 
ATOM     29  C   UNL     1       2.057   3.820  19.480  0.00  0.00    +0.000 A 
ATOM     30 CL   UNL     1       0.988   4.570  20.620  0.00  0.00    +0.000 Cl
ATOM     31  C   UNL     1       3.130   4.509  18.871  0.00  0.00    +0.000 A 
ATOM     32 CL   UNL     1       3.244   6.231  19.123  0.00  0.00    +0.000 Cl
ENDBRANCH  22  25
ENDBRANCH  17  18
ENDBRANCH   1  17
TORSDOF 7
ENDMDL
MODEL 5
REMARK VINA RESULT:      -8.5      7.366     10.502
REMARK  Name = 
REMARK  7 active torsions:
REMARK  status: ('A' for Active; 'I' for Inactive)
REMARK    1  A    between atoms: C_8  and  O_9
REMARK    2  A    between atoms: O_9  and  C_10
REMARK    3  A    between atoms: C_10  and  C_11
REMARK    4  A    between atoms: C_11  and  C_12
REMARK    5  A    between atoms: C_12  and  C_13
REMARK    6  A    between atoms: C_13  and  N_14
REMARK    7  A    between atoms: N_18  and  C_19
REMARK                            x       y       z     vdW  Elec       q    Type
REMARK                         _______ _______ _______ _____ _____    ______ ____
ROOT
ATOM      1  C   UNL     1       8.101   8.912  18.054  0.00  0.00    +0.000 C 
ENDROOT
BRANCH   1   2
ATOM      2  C   UNL     1       8.952   9.894  18.859  0.00  0.00    +0.000 C 
BRANCH   2   3
ATOM      3  C   UNL     1       9.646  10.905  17.951  0.00  0.00    +0.000 C 
BRANCH   3   4
ATOM      4  O   UNL     1       8.721  11.906  17.543  0.00  0.00    +0.000 OA
BRANCH   4  12
ATOM      5  O   UNL     1       7.477  18.631  19.590  0.00  0.00    +0.000 OA
ATOM      6  C   UNL     1       8.252  17.801  19.122  0.00  0.00    +0.000 C 
ATOM      7  C   UNL     1       9.572  18.186  18.492  0.00  0.00    +0.000 C 
ATOM      8  C   UNL     1      10.631  17.118  18.706  0.00  0.00    +0.000 C 
ATOM      9  C   UNL     1      10.103  15.763  18.329  0.00  0.00    +0.000 A 
ATOM     10  C   UNL     1      10.948  14.755  17.861  0.00  0.00    +0.000 A 
ATOM     11  C   UNL     1      10.439  13.479  17.602  0.00  0.00    +0.000 A 
ATOM     12  C   UNL     1       9.092  13.196  17.834  0.00  0.00    +0.000 A 
ATOM     13  C   UNL     1       8.248  14.199  18.321  0.00  0.00    +0.000 A 
ATOM     14  C   UNL     1       8.752  15.477  18.553  0.00  0.00    +0.000 A 
ATOM     15  N   UNL     1       7.903  16.479  19.036  0.00  0.00    +0.000 N 
ATOM     16  H   UNL     1       6.961  16.255  19.330  0.00  0.00    +0.000 HD
ENDBRANCH   4  12
ENDBRANCH   3   4
ENDBRANCH   2   3
ENDBRANCH   1   2
BRANCH   1  17
ATOM     17  C   UNL     1       8.347   7.445  18.444  0.00  0.00    +0.000 C 
BRANCH  17  18
ATOM     18  N   UNL     1       7.332   6.495  17.938  0.00  0.00    +0.000 NA
ATOM     19  C   UNL     1       6.172   7.275  17.450  0.00  0.00    +0.000 C 
ATOM     20  C   UNL     1       5.383   6.607  16.329  0.00  0.00    +0.000 C 
ATOM     21  C   UNL     1       4.773   5.233  16.590  0.00  0.00    +0.000 C 
ATOM     22  N   UNL     1       4.715   4.892  18.009  0.00  0.00    +0.000 N 
ATOM     23  C   UNL     1       5.980   4.418  18.588  0.00  0.00    +0.000 C 
ATOM     24  C   UNL     1       6.891   5.579  19.021  0.00  0.00    +0.000 C 
BRANCH  22  25
ATOM     25  C   UNL     1       3.540   4.624  18.709  0.00  0.00    +0.000 A 
ATOM     26  C   UNL     1       3.161   5.555  19.706  0.00  0.00    +0.000 A 
ATOM     27  C   UNL     1       1.996   5.424  20.464  0.00  0.00    +0.000 A 
ATOM     28  C   UNL     1       1.147   4.354  20.230  0.00  0.00    +0.000 A 
ATOM     29  C   UNL     1       1.482   3.403  19.266  0.00  0.00    +0.000 A 
ATOM     30 CL   UNL     1       0.362   2.097  19.051  0.00  0.00    +0.000 Cl
ATOM     31  C   UNL     1       2.682   3.509  18.528  0.00  0.00    +0.000 A 
ATOM     32 CL   UNL     1       3.145   2.164  17.519  0.00  0.00    +0.000 Cl
ENDBRANCH  22  25
ENDBRANCH  17  18
ENDBRANCH   1  17
TORSDOF 7
ENDMDL
MODEL 6
REMARK VINA RESULT:      -8.5      0.995      1.085
REMARK  Name = 
REMARK  7 active torsions:
REMARK  status: ('A' for Active; 'I' for Inactive)
REMARK    1  A    between atoms: C_8  and  O_9
REMARK    2  A    between atoms: O_9  and  C_10
REMARK    3  A    between atoms: C_10  and  C_11
REMARK    4  A    between atoms: C_11  and  C_12
REMARK    5  A    between atoms: C_12  and  C_13
REMARK    6  A    between atoms: C_13  and  N_14
REMARK    7  A    between atoms: N_18  and  C_19
REMARK                            x       y       z     vdW  Elec       q    Type
REMARK                         _______ _______ _______ _____ _____    ______ ____
ROOT
ATOM      1  C   UNL     1       1.619   5.347  20.322  0.00  0.00    +0.000 C 
ENDROOT
BRANCH   1   2
ATOM      2  C   UNL     1       2.395   4.559  21.379  0.00  0.00    +0.000 C 
BRANCH   2   3
ATOM      3  C   UNL     1       2.295   3.055  21.137  0.00  0.00    +0.000 C 
BRANCH   3   4
ATOM      4  O   UNL     1       3.549   2.552  20.693  0.00  0.00    +0.000 OA
BRANCH   4  12
ATOM      5  O   UNL     1       7.650   6.621  16.499  0.00  0.00    +0.000 OA
ATOM      6  C   UNL     1       6.682   5.873  16.616  0.00  0.00    +0.000 C 
ATOM      7  C   UNL     1       5.657   5.692  15.520  0.00  0.00    +0.000 C 
ATOM      8  C   UNL     1       5.080   4.286  15.515  0.00  0.00    +0.000 C 
ATOM      9  C   UNL     1       4.633   3.891  16.894  0.00  0.00    +0.000 A 
ATOM     10  C   UNL     1       3.586   2.988  17.089  0.00  0.00    +0.000 A 
ATOM     11  C   UNL     1       3.251   2.574  18.382  0.00  0.00    +0.000 A 
ATOM     12  C   UNL     1       3.976   3.037  19.481  0.00  0.00    +0.000 A 
ATOM     13  C   UNL     1       5.037   3.927  19.285  0.00  0.00    +0.000 A 
ATOM     14  C   UNL     1       5.352   4.358  17.998  0.00  0.00    +0.000 A 
ATOM     15  N   UNL     1       6.411   5.252  17.807  0.00  0.00    +0.000 N 
ATOM     16  H   UNL     1       7.023   5.493  18.576  0.00  0.00    +0.000 HD
ENDBRANCH   4  12
ENDBRANCH   3   4
ENDBRANCH   2   3
ENDBRANCH   1   2
BRANCH   1  17
ATOM     17  C   UNL     1       2.467   6.438  19.646  0.00  0.00    +0.000 C 
BRANCH  17  18
ATOM     18  N   UNL     1       2.085   7.822  20.002  0.00  0.00    +0.000 NA
ATOM     19  C   UNL     1       1.042   7.758  21.052  0.00  0.00    +0.000 C 
ATOM     20  C   UNL     1       1.016   8.955  21.995  0.00  0.00    +0.000 C 
ATOM     21  C   UNL     1       0.803  10.344  21.400  0.00  0.00    +0.000 C 
ATOM     22  N   UNL     1       0.285  10.309  20.036  0.00  0.00    +0.000 N 
ATOM     23  C   UNL     1       1.288  10.040  18.996  0.00  0.00    +0.000 C 
ATOM     24  C   UNL     1       1.546   8.534  18.815  0.00  0.00    +0.000 C 
BRANCH  22  25
ATOM     25  C   UNL     1      -0.930  10.865  19.638  0.00  0.00    +0.000 A 
ATOM     26  C   UNL     1      -1.532  10.326  18.476  0.00  0.00    +0.000 A 
ATOM     27  C   UNL     1      -2.759  10.769  17.981  0.00  0.00    +0.000 A 
ATOM     28  C   UNL     1      -3.447  11.765  18.655  0.00  0.00    +0.000 A 
ATOM     29  C   UNL     1      -2.890  12.337  19.800  0.00  0.00    +0.000 A 
ATOM     30 CL   UNL     1      -3.820  13.581  20.570  0.00  0.00    +0.000 Cl
ATOM     31  C   UNL     1      -1.628  11.921  20.278  0.00  0.00    +0.000 A 
ATOM     32 CL   UNL     1      -0.895  12.842  21.565  0.00  0.00    +0.000 Cl
ENDBRANCH  22  25
ENDBRANCH  17  18
ENDBRANCH   1  17
TORSDOF 7
ENDMDL
MODEL 7
REMARK VINA RESULT:      -8.5      7.198     10.101
REMARK  Name = 
REMARK  7 active torsions:
REMARK  status: ('A' for Active; 'I' for Inactive)
REMARK    1  A    between atoms: C_8  and  O_9
REMARK    2  A    between atoms: O_9  and  C_10
REMARK    3  A    between atoms: C_10  and  C_11
REMARK    4  A    between atoms: C_11  and  C_12
REMARK    5  A    between atoms: C_12  and  C_13
REMARK    6  A    between atoms: C_13  and  N_14
REMARK    7  A    between atoms: N_18  and  C_19
REMARK                            x       y       z     vdW  Elec       q    Type
REMARK                         _______ _______ _______ _____ _____    ______ ____
ROOT
ATOM      1  C   UNL     1       8.229   8.914  17.429  0.00  0.00    +0.000 C 
ENDROOT
BRANCH   1   2
ATOM      2  C   UNL     1       8.570  10.234  18.122  0.00  0.00    +0.000 C 
BRANCH   2   3
ATOM      3  C   UNL     1       9.159   9.999  19.510  0.00  0.00    +0.000 C 
BRANCH   3   4
ATOM      4  O   UNL     1      10.450  10.589  19.595  0.00  0.00    +0.000 OA
BRANCH   4  12
ATOM      5  O   UNL     1       9.119  17.585  19.112  0.00  0.00    +0.000 OA
ATOM      6  C   UNL     1       9.587  16.568  18.608  0.00  0.00    +0.000 C 
ATOM      7  C   UNL     1      10.017  16.500  17.160  0.00  0.00    +0.000 C 
ATOM      8  C   UNL     1      11.193  15.558  16.965  0.00  0.00    +0.000 C 
ATOM      9  C   UNL     1      10.928  14.235  17.625  0.00  0.00    +0.000 A 
ATOM     10  C   UNL     1      11.493  13.053  17.142  0.00  0.00    +0.000 A 
ATOM     11  C   UNL     1      11.298  11.852  17.830  0.00  0.00    +0.000 A 
ATOM     12  C   UNL     1      10.564  11.829  19.017  0.00  0.00    +0.000 A 
ATOM     13  C   UNL     1      10.013  13.016  19.512  0.00  0.00    +0.000 A 
ATOM     14  C   UNL     1      10.187  14.206  18.811  0.00  0.00    +0.000 A 
ATOM     15  N   UNL     1       9.631  15.390  19.308  0.00  0.00    +0.000 N 
ATOM     16  H   UNL     1       9.209  15.412  20.228  0.00  0.00    +0.000 HD
ENDBRANCH   4  12
ENDBRANCH   3   4
ENDBRANCH   2   3
ENDBRANCH   1   2
BRANCH   1  17
ATOM     17  C   UNL     1       8.216   7.716  18.394  0.00  0.00    +0.000 C 
BRANCH  17  18
ATOM     18  N   UNL     1       7.330   6.605  17.984  0.00  0.00    +0.000 NA
ATOM     19  C   UNL     1       6.163   7.181  17.278  0.00  0.00    +0.000 C 
ATOM     20  C   UNL     1       5.536   6.264  16.234  0.00  0.00    +0.000 C 
ATOM     21  C   UNL     1       5.012   4.904  16.684  0.00  0.00    +0.000 C 
ATOM     22  N   UNL     1       4.849   4.802  18.131  0.00  0.00    +0.000 N 
ATOM     23  C   UNL     1       6.088   4.551  18.881  0.00  0.00    +0.000 C 
ATOM     24  C   UNL     1       6.862   5.848  19.174  0.00  0.00    +0.000 C 
BRANCH  22  25
ATOM     25  C   UNL     1       3.638   4.549  18.773  0.00  0.00    +0.000 A 
ATOM     26  C   UNL     1       3.212   5.495  19.736  0.00  0.00    +0.000 A 
ATOM     27  C   UNL     1       2.010   5.378  20.435  0.00  0.00    +0.000 A 
ATOM     28  C   UNL     1       1.169   4.309  20.172  0.00  0.00    +0.000 A 
ATOM     29  C   UNL     1       1.549   3.343  19.239  0.00  0.00    +0.000 A 
ATOM     30 CL   UNL     1       0.436   2.039  18.984  0.00  0.00    +0.000 Cl
ATOM     31  C   UNL     1       2.786   3.435  18.563  0.00  0.00    +0.000 A 
ATOM     32 CL   UNL     1       3.294   2.074  17.598  0.00  0.00    +0.000 Cl
ENDBRANCH  22  25
ENDBRANCH  17  18
ENDBRANCH   1  17
TORSDOF 7
ENDMDL
MODEL 8
REMARK VINA RESULT:      -8.5      7.132     10.398
REMARK  Name = 
REMARK  7 active torsions:
REMARK  status: ('A' for Active; 'I' for Inactive)
REMARK    1  A    between atoms: C_8  and  O_9
REMARK    2  A    between atoms: O_9  and  C_10
REMARK    3  A    between atoms: C_10  and  C_11
REMARK    4  A    between atoms: C_11  and  C_12
REMARK    5  A    between atoms: C_12  and  C_13
REMARK    6  A    between atoms: C_13  and  N_14
REMARK    7  A    between atoms: N_18  and  C_19
REMARK                            x       y       z     vdW  Elec       q    Type
REMARK                         _______ _______ _______ _____ _____    ______ ____
ROOT
ATOM      1  C   UNL     1       8.310   8.619  18.464  0.00  0.00    +0.000 C 
ENDROOT
BRANCH   1   2
ATOM      2  C   UNL     1       8.748  10.084  18.467  0.00  0.00    +0.000 C 
BRANCH   2   3
ATOM      3  C   UNL     1       9.464  10.448  19.764  0.00  0.00    +0.000 C 
BRANCH   3   4
ATOM      4  O   UNL     1      10.782  10.902  19.479  0.00  0.00    +0.000 OA
BRANCH   4  12
ATOM      5  O   UNL     1       9.481  17.914  19.172  0.00  0.00    +0.000 OA
ATOM      6  C   UNL     1       9.896  16.898  18.622  0.00  0.00    +0.000 C 
ATOM      7  C   UNL     1      10.204  16.841  17.143  0.00  0.00    +0.000 C 
ATOM      8  C   UNL     1      11.350  15.890  16.841  0.00  0.00    +0.000 C 
ATOM      9  C   UNL     1      11.129  14.563  17.510  0.00  0.00    +0.000 A 
ATOM     10  C   UNL     1      11.640  13.381  16.970  0.00  0.00    +0.000 A 
ATOM     11  C   UNL     1      11.492  12.175  17.661  0.00  0.00    +0.000 A 
ATOM     12  C   UNL     1      10.859  12.147  18.905  0.00  0.00    +0.000 A 
ATOM     13  C   UNL     1      10.362  13.333  19.455  0.00  0.00    +0.000 A 
ATOM     14  C   UNL     1      10.489  14.529  18.752  0.00  0.00    +0.000 A 
ATOM     15  N   UNL     1       9.987  15.713  19.305  0.00  0.00    +0.000 N 
ATOM     16  H   UNL     1       9.644  15.729  20.257  0.00  0.00    +0.000 HD
ENDBRANCH   4  12
ENDBRANCH   3   4
ENDBRANCH   2   3
ENDBRANCH   1   2
BRANCH   1  17
ATOM     17  C   UNL     1       7.843   8.136  17.080  0.00  0.00    +0.000 C 
BRANCH  17  18
ATOM     18  N   UNL     1       7.287   6.765  17.062  0.00  0.00    +0.000 NA
ATOM     19  C   UNL     1       5.925   6.827  16.484  0.00  0.00    +0.000 C 
ATOM     20  C   UNL     1       5.481   5.555  15.769  0.00  0.00    +0.000 C 
ATOM     21  C   UNL     1       5.446   4.252  16.561  0.00  0.00    +0.000 C 
ATOM     22  N   UNL     1       5.495   4.457  18.005  0.00  0.00    +0.000 N 
ATOM     23  C   UNL     1       6.833   4.730  18.550  0.00  0.00    +0.000 C 
ATOM     24  C   UNL     1       7.213   6.216  18.441  0.00  0.00    +0.000 C 
BRANCH  22  25
ATOM     25  C   UNL     1       4.502   4.052  18.895  0.00  0.00    +0.000 A 
ATOM     26  C   UNL     1       4.699   2.818  19.559  0.00  0.00    +0.000 A 
ATOM     27  C   UNL     1       3.798   2.306  20.493  0.00  0.00    +0.000 A 
ATOM     28  C   UNL     1       2.665   3.034  20.818  0.00  0.00    +0.000 A 
ATOM     29  C   UNL     1       2.420   4.252  20.183  0.00  0.00    +0.000 A 
ATOM     30 CL   UNL     1       0.973   5.086  20.650  0.00  0.00    +0.000 Cl
ATOM     31  C   UNL     1       3.307   4.751  19.204  0.00  0.00    +0.000 A 
ATOM     32 CL   UNL     1       2.813   6.152  18.290  0.00  0.00    +0.000 Cl
ENDBRANCH  22  25
ENDBRANCH  17  18
ENDBRANCH   1  17
TORSDOF 7
ENDMDL
MODEL 9
REMARK VINA RESULT:      -8.5      2.522      3.324
REMARK  Name = 
REMARK  7 active torsions:
REMARK  status: ('A' for Active; 'I' for Inactive)
REMARK    1  A    between atoms: C_8  and  O_9
REMARK    2  A    between atoms: O_9  and  C_10
REMARK    3  A    between atoms: C_10  and  C_11
REMARK    4  A    between atoms: C_11  and  C_12
REMARK    5  A    between atoms: C_12  and  C_13
REMARK    6  A    between atoms: C_13  and  N_14
REMARK    7  A    between atoms: N_18  and  C_19
REMARK                            x       y       z     vdW  Elec       q    Type
REMARK                         _______ _______ _______ _____ _____    ______ ____
ROOT
ATOM      1  C   UNL     1       1.780   7.019  20.117  0.00  0.00    +0.000 C 
ENDROOT
BRANCH   1   2
ATOM      2  C   UNL     1       2.150   5.741  20.871  0.00  0.00    +0.000 C 
BRANCH   2   3
ATOM      3  C   UNL     1       1.149   4.622  20.596  0.00  0.00    +0.000 C 
BRANCH   3   4
ATOM      4  O   UNL     1       1.839   3.442  20.201  0.00  0.00    +0.000 OA
BRANCH   4  12
ATOM      5  O   UNL     1       8.348   4.424  17.439  0.00  0.00    +0.000 OA
ATOM      6  C   UNL     1       7.132   4.378  17.272  0.00  0.00    +0.000 C 
ATOM      7  C   UNL     1       6.468   4.842  15.996  0.00  0.00    +0.000 C 
ATOM      8  C   UNL     1       5.219   4.034  15.685  0.00  0.00    +0.000 C 
ATOM      9  C   UNL     1       4.325   3.954  16.890  0.00  0.00    +0.000 A 
ATOM     10  C   UNL     1       2.940   3.826  16.763  0.00  0.00    +0.000 A 
ATOM     11  C   UNL     1       2.145   3.666  17.901  0.00  0.00    +0.000 A 
ATOM     12  C   UNL     1       2.729   3.606  19.168  0.00  0.00    +0.000 A 
ATOM     13  C   UNL     1       4.118   3.715  19.295  0.00  0.00    +0.000 A 
ATOM     14  C   UNL     1       4.905   3.900  18.161  0.00  0.00    +0.000 A 
ATOM     15  N   UNL     1       6.294   4.013  18.293  0.00  0.00    +0.000 N 
ATOM     16  H   UNL     1       6.739   3.843  19.185  0.00  0.00    +0.000 HD
ENDBRANCH   4  12
ENDBRANCH   3   4
ENDBRANCH   2   3
ENDBRANCH   1   2
BRANCH   1  17
ATOM     17  C   UNL     1       1.430   8.188  21.052  0.00  0.00    +0.000 C 
BRANCH  17  18
ATOM     18  N   UNL     1       0.560   9.221  20.448  0.00  0.00    +0.000 NA
ATOM     19  C   UNL     1       0.998   9.431  19.049  0.00  0.00    +0.000 C 
ATOM     20  C   UNL     1      -0.106   9.886  18.101  0.00  0.00    +0.000 C 
ATOM     21  C   UNL     1      -0.844  11.184  18.415  0.00  0.00    +0.000 C 
ATOM     22  N   UNL     1      -0.150  12.016  19.393  0.00  0.00    +0.000 N 
ATOM     23  C   UNL     1      -0.318  11.603  20.794  0.00  0.00    +0.000 C 
ATOM     24  C   UNL     1       0.675  10.499  21.197  0.00  0.00    +0.000 C 
BRANCH  22  25
ATOM     25  C   UNL     1       0.305  13.310  19.148  0.00  0.00    +0.000 A 
ATOM     26  C   UNL     1      -0.589  14.370  19.434  0.00  0.00    +0.000 A 
ATOM     27  C   UNL     1      -0.255  15.713  19.261  0.00  0.00    +0.000 A 
ATOM     28  C   UNL     1       1.012  16.049  18.811  0.00  0.00    +0.000 A 
ATOM     29  C   UNL     1       1.926  15.040  18.503  0.00  0.00    +0.000 A 
ATOM     30 CL   UNL     1       3.482  15.557  17.939  0.00  0.00    +0.000 Cl
ATOM     31  C   UNL     1       1.575  13.678  18.636  0.00  0.00    +0.000 A 
ATOM     32 CL   UNL     1       2.681  12.484  18.008  0.00  0.00    +0.000 Cl
ENDBRANCH  22  25
ENDBRANCH  17  18
ENDBRANCH   1  17
TORSDOF 7
ENDMDL
