MODEL 1
REMARK VINA RESULT:      -7.2      0.000      0.000
REMARK  Name = 
REMARK  10 active torsions:
REMARK  status: ('A' for Active; 'I' for Inactive)
REMARK    1  A    between atoms: C_1  and  C_2
REMARK    2  A    between atoms: C_2  and  N_3
REMARK    3  A    between atoms: N_3  and  C_4
REMARK    4  A    between atoms: N_3  and  C_6
REMARK    5  A    between atoms: C_4  and  C_5
REMARK    6  A    between atoms: C_6  and  C_7
REMARK    7  A    between atoms: C_7  and  O_8
REMARK    8  A    between atoms: C_7  and  C_9
REMARK    9  A    between atoms: C_9  and  N_10
REMARK   10  A    between atoms: C_15  and  C_16
REMARK                            x       y       z     vdW  Elec       q    Type
REMARK                         _______ _______ _______ _____ _____    ______ ____
ROOT
ATOM      1  N   UNL     1       5.818   4.564  16.256  0.00  0.00    +0.000 N 
ATOM      2  C   UNL     1       4.881   3.597  16.590  0.00  0.00    +0.000 A 
ATOM      3  N   UNL     1       3.766   3.807  17.212  0.00  0.00    +0.000 NA
ATOM      4  C   UNL     1       3.550   5.103  17.539  0.00  0.00    +0.000 A 
ATOM      5  S   UNL     1       2.201   5.582  18.457  0.00  0.00    +0.000 S 
ATOM      6  C   UNL     1       2.646   7.244  18.408  0.00  0.00    +0.000 A 
ATOM      7  C   UNL     1       3.831   7.406  17.707  0.00  0.00    +0.000 A 
ATOM      8  C   UNL     1       4.353   6.174  17.213  0.00  0.00    +0.000 A 
ATOM      9  C   UNL     1       5.576   5.915  16.476  0.00  0.00    +0.000 A 
ATOM     10  O   UNL     1       6.325   6.817  16.110  0.00  0.00    +0.000 OA
ENDROOT
BRANCH   6  11
ATOM     11  C   UNL     1       1.815   8.266  19.068  0.00  0.00    +0.000 A 
ATOM     12  C   UNL     1       1.231   9.297  18.316  0.00  0.00    +0.000 A 
ATOM     13  C   UNL     1       0.401  10.247  18.920  0.00  0.00    +0.000 A 
ATOM     14  C   UNL     1       0.148  10.183  20.287  0.00  0.00    +0.000 A 
ATOM     15  C   UNL     1       0.728   9.176  21.053  0.00  0.00    +0.000 A 
ATOM     16  C   UNL     1       1.556   8.227  20.446  0.00  0.00    +0.000 A 
ENDBRANCH   6  11
BRANCH   1  17
ATOM     17  C   UNL     1       7.088   4.157  15.656  0.00  0.00    +0.000 C 
BRANCH  17  18
ATOM     18  C   UNL     1       7.097   4.266  14.121  0.00  0.00    +0.000 C 
BRANCH  18  19
ATOM     19  O   UNL     1       7.429   5.614  13.759  0.00  0.00    +0.000 OA
ATOM     20  H   UNL     1       8.343   5.627  13.429  0.00  0.00    +0.000 HD
ENDBRANCH  18  19
BRANCH  18  21
ATOM     21  C   UNL     1       5.705   3.856  13.554  0.00  0.00    +0.000 C 
BRANCH  21  22
ATOM     22  N   UNL     1       5.646   3.604  12.096  0.00  0.00    +0.000 NA
BRANCH  22  24
ATOM     23  C   UNL     1       6.479   1.403  11.169  0.00  0.00    +0.000 C 
ATOM     24  C   UNL     1       6.805   2.821  11.631  0.00  0.00    +0.000 C 
ENDBRANCH  22  24
BRANCH  22  25
ATOM     25  C   UNL     1       4.345   3.041  11.687  0.00  0.00    +0.000 C 
ATOM     26  C   UNL     1       3.673   3.672  10.470  0.00  0.00    +0.000 C 
ENDBRANCH  22  25
ENDBRANCH  21  22
ENDBRANCH  18  21
ENDBRANCH  17  18
ENDBRANCH   1  17
TORSDOF 8
ENDMDL
MODEL 2
REMARK VINA RESULT:      -7.1      3.432      5.099
REMARK  Name = 
REMARK  10 active torsions:
REMARK  status: ('A' for Active; 'I' for Inactive)
REMARK    1  A    between atoms: C_1  and  C_2
REMARK    2  A    between atoms: C_2  and  N_3
REMARK    3  A    between atoms: N_3  and  C_4
REMARK    4  A    between atoms: N_3  and  C_6
REMARK    5  A    between atoms: C_4  and  C_5
REMARK    6  A    between atoms: C_6  and  C_7
REMARK    7  A    between atoms: C_7  and  O_8
REMARK    8  A    between atoms: C_7  and  C_9
REMARK    9  A    between atoms: C_9  and  N_10
REMARK   10  A    between atoms: C_15  and  C_16
REMARK                            x       y       z     vdW  Elec       q    Type
REMARK                         _______ _______ _______ _____ _____    ______ ____
ROOT
ATOM      1  N   UNL     1       2.971   5.287  18.952  0.00  0.00    +0.000 N 
ATOM      2  C   UNL     1       3.144   6.155  17.884  0.00  0.00    +0.000 A 
ATOM      3  N   UNL     1       2.767   7.392  17.845  0.00  0.00    +0.000 NA
ATOM      4  C   UNL     1       2.155   7.820  18.975  0.00  0.00    +0.000 A 
ATOM      5  S   UNL     1       1.483   9.378  19.095  0.00  0.00    +0.000 S 
ATOM      6  C   UNL     1       0.967   9.127  20.718  0.00  0.00    +0.000 A 
ATOM      7  C   UNL     1       1.298   7.848  21.138  0.00  0.00    +0.000 A 
ATOM      8  C   UNL     1       1.976   7.096  20.134  0.00  0.00    +0.000 A 
ATOM      9  C   UNL     1       2.449   5.724  20.165  0.00  0.00    +0.000 A 
ATOM     10  O   UNL     1       2.367   5.024  21.171  0.00  0.00    +0.000 OA
ENDROOT
BRANCH   6  11
ATOM     11  C   UNL     1       0.264  10.190  21.457  0.00  0.00    +0.000 A 
ATOM     12  C   UNL     1       0.414  11.533  21.080  0.00  0.00    +0.000 A 
ATOM     13  C   UNL     1      -0.284  12.548  21.742  0.00  0.00    +0.000 A 
ATOM     14  C   UNL     1      -1.139  12.235  22.794  0.00  0.00    +0.000 A 
ATOM     15  C   UNL     1      -1.292  10.911  23.192  0.00  0.00    +0.000 A 
ATOM     16  C   UNL     1      -0.594   9.898  22.528  0.00  0.00    +0.000 A 
ENDBRANCH   6  11
BRANCH   1  17
ATOM     17  C   UNL     1       3.345   3.881  18.804  0.00  0.00    +0.000 C 
BRANCH  17  18
ATOM     18  C   UNL     1       4.868   3.659  18.766  0.00  0.00    +0.000 C 
BRANCH  18  19
ATOM     19  O   UNL     1       5.209   2.651  19.729  0.00  0.00    +0.000 OA
ATOM     20  H   UNL     1       6.091   2.306  19.512  0.00  0.00    +0.000 HD
ENDBRANCH  18  19
BRANCH  18  21
ATOM     21  C   UNL     1       5.605   4.999  19.067  0.00  0.00    +0.000 C 
BRANCH  21  22
ATOM     22  N   UNL     1       6.513   5.493  18.008  0.00  0.00    +0.000 NA
BRANCH  22  24
ATOM     23  C   UNL     1       7.837   7.646  17.919  0.00  0.00    +0.000 C 
ATOM     24  C   UNL     1       7.625   6.281  18.568  0.00  0.00    +0.000 C 
ENDBRANCH  22  24
BRANCH  22  25
ATOM     25  C   UNL     1       6.946   4.410  17.105  0.00  0.00    +0.000 C 
ATOM     26  C   UNL     1       6.941   4.716  15.609  0.00  0.00    +0.000 C 
ENDBRANCH  22  25
ENDBRANCH  21  22
ENDBRANCH  18  21
ENDBRANCH  17  18
ENDBRANCH   1  17
TORSDOF 8
ENDMDL
MODEL 3
REMARK VINA RESULT:      -7.1      3.523      5.137
REMARK  Name = 
REMARK  10 active torsions:
REMARK  status: ('A' for Active; 'I' for Inactive)
REMARK    1  A    between atoms: C_1  and  C_2
REMARK    2  A    between atoms: C_2  and  N_3
REMARK    3  A    between atoms: N_3  and  C_4
REMARK    4  A    between atoms: N_3  and  C_6
REMARK    5  A    between atoms: C_4  and  C_5
REMARK    6  A    between atoms: C_6  and  C_7
REMARK    7  A    between atoms: C_7  and  O_8
REMARK    8  A    between atoms: C_7  and  C_9
REMARK    9  A    between atoms: C_9  and  N_10
REMARK   10  A    between atoms: C_15  and  C_16
REMARK                            x       y       z     vdW  Elec       q    Type
REMARK                         _______ _______ _______ _____ _____    ______ ____
ROOT
ATOM      1  N   UNL     1       2.928   5.005  19.027  0.00  0.00    +0.000 N 
ATOM      2  C   UNL     1       3.159   5.860  17.959  0.00  0.00    +0.000 A 
ATOM      3  N   UNL     1       2.823   7.108  17.902  0.00  0.00    +0.000 NA
ATOM      4  C   UNL     1       2.193   7.563  19.012  0.00  0.00    +0.000 A 
ATOM      5  S   UNL     1       1.568   9.142  19.103  0.00  0.00    +0.000 S 
ATOM      6  C   UNL     1       0.999   8.919  20.712  0.00  0.00    +0.000 A 
ATOM      7  C   UNL     1       1.278   7.633  21.149  0.00  0.00    +0.000 A 
ATOM      8  C   UNL     1       1.959   6.853  20.169  0.00  0.00    +0.000 A 
ATOM      9  C   UNL     1       2.387   5.467  20.222  0.00  0.00    +0.000 A 
ATOM     10  O   UNL     1       2.254   4.777  21.229  0.00  0.00    +0.000 OA
ENDROOT
BRANCH   6  11
ATOM     11  C   UNL     1       0.310  10.009  21.425  0.00  0.00    +0.000 A 
ATOM     12  C   UNL     1       0.402  11.329  20.959  0.00  0.00    +0.000 A 
ATOM     13  C   UNL     1      -0.285  12.367  21.597  0.00  0.00    +0.000 A 
ATOM     14  C   UNL     1      -1.071  12.099  22.715  0.00  0.00    +0.000 A 
ATOM     15  C   UNL     1      -1.164  10.799  23.201  0.00  0.00    +0.000 A 
ATOM     16  C   UNL     1      -0.477   9.763  22.561  0.00  0.00    +0.000 A 
ENDBRANCH   6  11
BRANCH   1  17
ATOM     17  C   UNL     1       3.261   3.587  18.898  0.00  0.00    +0.000 C 
BRANCH  17  18
ATOM     18  C   UNL     1       4.776   3.324  18.817  0.00  0.00    +0.000 C 
BRANCH  18  19
ATOM     19  O   UNL     1       5.105   2.259  19.720  0.00  0.00    +0.000 OA
ATOM     20  H   UNL     1       4.436   1.560  19.626  0.00  0.00    +0.000 HD
ENDBRANCH  18  19
BRANCH  18  21
ATOM     21  C   UNL     1       5.557   4.625  19.170  0.00  0.00    +0.000 C 
BRANCH  21  22
ATOM     22  N   UNL     1       6.798   4.867  18.400  0.00  0.00    +0.000 NA
BRANCH  22  24
ATOM     23  C   UNL     1       6.904   4.231  15.954  0.00  0.00    +0.000 C 
ATOM     24  C   UNL     1       6.508   5.261  17.010  0.00  0.00    +0.000 C 
ENDBRANCH  22  24
BRANCH  22  25
ATOM     25  C   UNL     1       7.710   5.789  19.102  0.00  0.00    +0.000 C 
ATOM     26  C   UNL     1       8.026   7.110  18.405  0.00  0.00    +0.000 C 
ENDBRANCH  22  25
ENDBRANCH  21  22
ENDBRANCH  18  21
ENDBRANCH  17  18
ENDBRANCH   1  17
TORSDOF 8
ENDMDL
MODEL 4
REMARK VINA RESULT:      -7.0      3.084      5.012
REMARK  Name = 
REMARK  10 active torsions:
REMARK  status: ('A' for Active; 'I' for Inactive)
REMARK    1  A    between atoms: C_1  and  C_2
REMARK    2  A    between atoms: C_2  and  N_3
REMARK    3  A    between atoms: N_3  and  C_4
REMARK    4  A    between atoms: N_3  and  C_6
REMARK    5  A    between atoms: C_4  and  C_5
REMARK    6  A    between atoms: C_6  and  C_7
REMARK    7  A    between atoms: C_7  and  O_8
REMARK    8  A    between atoms: C_7  and  C_9
REMARK    9  A    between atoms: C_9  and  N_10
REMARK   10  A    between atoms: C_15  and  C_16
REMARK                            x       y       z     vdW  Elec       q    Type
REMARK                         _______ _______ _______ _____ _____    ______ ____
ROOT
ATOM      1  N   UNL     1       3.028   5.863  18.965  0.00  0.00    +0.000 N 
ATOM      2  C   UNL     1       3.270   6.776  17.949  0.00  0.00    +0.000 A 
ATOM      3  N   UNL     1       2.802   7.982  17.887  0.00  0.00    +0.000 NA
ATOM      4  C   UNL     1       2.015   8.324  18.935  0.00  0.00    +0.000 A 
ATOM      5  S   UNL     1       1.210   9.821  18.998  0.00  0.00    +0.000 S 
ATOM      6  C   UNL     1       0.508   9.479  20.532  0.00  0.00    +0.000 A 
ATOM      7  C   UNL     1       0.884   8.217  20.965  0.00  0.00    +0.000 A 
ATOM      8  C   UNL     1       1.745   7.551  20.043  0.00  0.00    +0.000 A 
ATOM      9  C   UNL     1       2.319   6.220  20.107  0.00  0.00    +0.000 A 
ATOM     10  O   UNL     1       2.163   5.484  21.077  0.00  0.00    +0.000 OA
ENDROOT
BRANCH   6  11
ATOM     11  C   UNL     1      -0.369  10.460  21.195  0.00  0.00    +0.000 A 
ATOM     12  C   UNL     1      -1.076  11.405  20.435  0.00  0.00    +0.000 A 
ATOM     13  C   UNL     1      -1.949  12.311  21.045  0.00  0.00    +0.000 A 
ATOM     14  C   UNL     1      -2.124  12.289  22.426  0.00  0.00    +0.000 A 
ATOM     15  C   UNL     1      -1.422  11.369  23.199  0.00  0.00    +0.000 A 
ATOM     16  C   UNL     1      -0.551  10.463  22.586  0.00  0.00    +0.000 A 
ENDBRANCH   6  11
BRANCH   1  17
ATOM     17  C   UNL     1       3.531   4.496  18.837  0.00  0.00    +0.000 C 
BRANCH  17  18
ATOM     18  C   UNL     1       4.670   4.362  17.810  0.00  0.00    +0.000 C 
BRANCH  18  19
ATOM     19  O   UNL     1       4.625   3.043  17.246  0.00  0.00    +0.000 OA
ATOM     20  H   UNL     1       3.731   2.684  17.377  0.00  0.00    +0.000 HD
ENDBRANCH  18  19
BRANCH  18  21
ATOM     21  C   UNL     1       6.039   4.634  18.501  0.00  0.00    +0.000 C 
BRANCH  21  22
ATOM     22  N   UNL     1       7.065   5.302  17.670  0.00  0.00    +0.000 NA
BRANCH  22  24
ATOM     23  C   UNL     1       7.070   4.785  15.194  0.00  0.00    +0.000 C 
ATOM     24  C   UNL     1       6.543   5.650  16.336  0.00  0.00    +0.000 C 
ENDBRANCH  22  24
BRANCH  22  25
ATOM     25  C   UNL     1       7.695   6.434  18.376  0.00  0.00    +0.000 C 
ATOM     26  C   UNL     1       7.714   7.776  17.648  0.00  0.00    +0.000 C 
ENDBRANCH  22  25
ENDBRANCH  21  22
ENDBRANCH  18  21
ENDBRANCH  17  18
ENDBRANCH   1  17
TORSDOF 8
ENDMDL
MODEL 5
REMARK VINA RESULT:      -6.9      0.309      1.251
REMARK  Name = 
REMARK  10 active torsions:
REMARK  status: ('A' for Active; 'I' for Inactive)
REMARK    1  A    between atoms: C_1  and  C_2
REMARK    2  A    between atoms: C_2  and  N_3
REMARK    3  A    between atoms: N_3  and  C_4
REMARK    4  A    between atoms: N_3  and  C_6
REMARK    5  A    between atoms: C_4  and  C_5
REMARK    6  A    between atoms: C_6  and  C_7
REMARK    7  A    between atoms: C_7  and  O_8
REMARK    8  A    between atoms: C_7  and  C_9
REMARK    9  A    between atoms: C_9  and  N_10
REMARK   10  A    between atoms: C_15  and  C_16
REMARK                            x       y       z     vdW  Elec       q    Type
REMARK                         _______ _______ _______ _____ _____    ______ ____
ROOT
ATOM      1  N   UNL     1       5.737   4.595  16.293  0.00  0.00    +0.000 N 
ATOM      2  C   UNL     1       4.827   3.628  16.695  0.00  0.00    +0.000 A 
ATOM      3  N   UNL     1       3.728   3.846  17.341  0.00  0.00    +0.000 NA
ATOM      4  C   UNL     1       3.499   5.152  17.621  0.00  0.00    +0.000 A 
ATOM      5  S   UNL     1       2.169   5.647  18.558  0.00  0.00    +0.000 S 
ATOM      6  C   UNL     1       2.584   7.312  18.427  0.00  0.00    +0.000 A 
ATOM      7  C   UNL     1       3.745   7.464  17.685  0.00  0.00    +0.000 A 
ATOM      8  C   UNL     1       4.273   6.221  17.227  0.00  0.00    +0.000 A 
ATOM      9  C   UNL     1       5.478   5.951  16.464  0.00  0.00    +0.000 A 
ATOM     10  O   UNL     1       6.200   6.848  16.039  0.00  0.00    +0.000 OA
ENDROOT
BRANCH   6  11
ATOM     11  C   UNL     1       1.756   8.347  19.069  0.00  0.00    +0.000 A 
ATOM     12  C   UNL     1       1.229   9.404  18.310  0.00  0.00    +0.000 A 
ATOM     13  C   UNL     1       0.402  10.368  18.896  0.00  0.00    +0.000 A 
ATOM     14  C   UNL     1       0.094  10.292  20.251  0.00  0.00    +0.000 A 
ATOM     15  C   UNL     1       0.616   9.260  21.024  0.00  0.00    +0.000 A 
ATOM     16  C   UNL     1       1.442   8.297  20.436  0.00  0.00    +0.000 A 
ENDBRANCH   6  11
BRANCH   1  17
ATOM     17  C   UNL     1       6.996   4.184  15.672  0.00  0.00    +0.000 C 
BRANCH  17  18
ATOM     18  C   UNL     1       6.988   4.315  14.138  0.00  0.00    +0.000 C 
BRANCH  18  19
ATOM     19  O   UNL     1       7.501   5.607  13.786  0.00  0.00    +0.000 OA
ATOM     20  H   UNL     1       7.311   5.767  12.846  0.00  0.00    +0.000 HD
ENDBRANCH  18  19
BRANCH  18  21
ATOM     21  C   UNL     1       5.540   4.117  13.599  0.00  0.00    +0.000 C 
BRANCH  21  22
ATOM     22  N   UNL     1       5.403   3.248  12.408  0.00  0.00    +0.000 NA
BRANCH  22  24
ATOM     23  C   UNL     1       3.387   2.923  10.916  0.00  0.00    +0.000 C 
ATOM     24  C   UNL     1       4.505   3.842  11.401  0.00  0.00    +0.000 C 
ENDBRANCH  22  24
BRANCH  22  25
ATOM     25  C   UNL     1       6.715   2.842  11.870  0.00  0.00    +0.000 C 
ATOM     26  C   UNL     1       6.761   1.534  11.082  0.00  0.00    +0.000 C 
ENDBRANCH  22  25
ENDBRANCH  21  22
ENDBRANCH  18  21
ENDBRANCH  17  18
ENDBRANCH   1  17
TORSDOF 8
ENDMDL
MODEL 6
REMARK VINA RESULT:      -6.9      2.676      4.441
REMARK  Name = 
REMARK  10 active torsions:
REMARK  status: ('A' for Active; 'I' for Inactive)
REMARK    1  A    between atoms: C_1  and  C_2
REMARK    2  A    between atoms: C_2  and  N_3
REMARK    3  A    between atoms: N_3  and  C_4
REMARK    4  A    between atoms: N_3  and  C_6
REMARK    5  A    between atoms: C_4  and  C_5
REMARK    6  A    between atoms: C_6  and  C_7
REMARK    7  A    between atoms: C_7  and  O_8
REMARK    8  A    between atoms: C_7  and  C_9
REMARK    9  A    between atoms: C_9  and  N_10
REMARK   10  A    between atoms: C_15  and  C_16
REMARK                            x       y       z     vdW  Elec       q    Type
REMARK                         _______ _______ _______ _____ _____    ______ ____
ROOT
ATOM      1  N   UNL     1       3.176   5.825  18.891  0.00  0.00    +0.000 N 
ATOM      2  C   UNL     1       3.393   6.757  17.887  0.00  0.00    +0.000 A 
ATOM      3  N   UNL     1       2.905   7.955  17.847  0.00  0.00    +0.000 NA
ATOM      4  C   UNL     1       2.121   8.268  18.906  0.00  0.00    +0.000 A 
ATOM      5  S   UNL     1       1.291   9.750  18.998  0.00  0.00    +0.000 S 
ATOM      6  C   UNL     1       0.607   9.373  20.532  0.00  0.00    +0.000 A 
ATOM      7  C   UNL     1       1.008   8.111  20.943  0.00  0.00    +0.000 A 
ATOM      8  C   UNL     1       1.873   7.475  20.005  0.00  0.00    +0.000 A 
ATOM      9  C   UNL     1       2.470   6.152  20.044  0.00  0.00    +0.000 A 
ATOM     10  O   UNL     1       2.335   5.399  21.004  0.00  0.00    +0.000 OA
ENDROOT
BRANCH   6  11
ATOM     11  C   UNL     1      -0.281  10.329  21.216  0.00  0.00    +0.000 A 
ATOM     12  C   UNL     1      -0.898  11.363  20.495  0.00  0.00    +0.000 A 
ATOM     13  C   UNL     1      -1.781  12.249  21.121  0.00  0.00    +0.000 A 
ATOM     14  C   UNL     1      -2.056  12.116  22.479  0.00  0.00    +0.000 A 
ATOM     15  C   UNL     1      -1.444  11.106  23.215  0.00  0.00    +0.000 A 
ATOM     16  C   UNL     1      -0.563  10.221  22.587  0.00  0.00    +0.000 A 
ENDBRANCH   6  11
BRANCH   1  17
ATOM     17  C   UNL     1       3.701   4.468  18.738  0.00  0.00    +0.000 C 
BRANCH  17  18
ATOM     18  C   UNL     1       3.579   3.928  17.302  0.00  0.00    +0.000 C 
BRANCH  18  19
ATOM     19  O   UNL     1       2.696   2.797  17.312  0.00  0.00    +0.000 OA
ATOM     20  H   UNL     1       2.898   2.245  16.538  0.00  0.00    +0.000 HD
ENDBRANCH  18  19
BRANCH  18  21
ATOM     21  C   UNL     1       4.988   3.540  16.762  0.00  0.00    +0.000 C 
BRANCH  21  22
ATOM     22  N   UNL     1       5.652   4.543  15.900  0.00  0.00    +0.000 NA
BRANCH  22  24
ATOM     23  C   UNL     1       7.405   4.708  17.716  0.00  0.00    +0.000 C 
ATOM     24  C   UNL     1       7.084   4.677  16.224  0.00  0.00    +0.000 C 
ENDBRANCH  22  24
BRANCH  22  25
ATOM     25  C   UNL     1       5.386   4.301  14.469  0.00  0.00    +0.000 C 
ATOM     26  C   UNL     1       6.602   4.161  13.556  0.00  0.00    +0.000 C 
ENDBRANCH  22  25
ENDBRANCH  21  22
ENDBRANCH  18  21
ENDBRANCH  17  18
ENDBRANCH   1  17
TORSDOF 8
ENDMDL
MODEL 7
REMARK VINA RESULT:      -6.9      4.938      7.232
REMARK  Name = 
REMARK  10 active torsions:
REMARK  status: ('A' for Active; 'I' for Inactive)
REMARK    1  A    between atoms: C_1  and  C_2
REMARK    2  A    between atoms: C_2  and  N_3
REMARK    3  A    between atoms: N_3  and  C_4
REMARK    4  A    between atoms: N_3  and  C_6
REMARK    5  A    between atoms: C_4  and  C_5
REMARK    6  A    between atoms: C_6  and  C_7
REMARK    7  A    between atoms: C_7  and  O_8
REMARK    8  A    between atoms: C_7  and  C_9
REMARK    9  A    between atoms: C_9  and  N_10
REMARK   10  A    between atoms: C_15  and  C_16
REMARK                            x       y       z     vdW  Elec       q    Type
REMARK                         _______ _______ _______ _____ _____    ______ ____
ROOT
ATOM      1  N   UNL     1       6.502   5.315  17.701  0.00  0.00    +0.000 N 
ATOM      2  C   UNL     1       5.967   6.132  16.716  0.00  0.00    +0.000 A 
ATOM      3  N   UNL     1       6.260   7.377  16.524  0.00  0.00    +0.000 NA
ATOM      4  C   UNL     1       7.176   7.871  17.391  0.00  0.00    +0.000 A 
ATOM      5  S   UNL     1       7.621   9.512  17.386  0.00  0.00    +0.000 S 
ATOM      6  C   UNL     1       8.742   9.304  18.675  0.00  0.00    +0.000 A 
ATOM      7  C   UNL     1       8.745   7.986  19.104  0.00  0.00    +0.000 A 
ATOM      8  C   UNL     1       7.840   7.164  18.370  0.00  0.00    +0.000 A 
ATOM      9  C   UNL     1       7.524   5.757  18.534  0.00  0.00    +0.000 A 
ATOM     10  O   UNL     1       8.100   5.046  19.353  0.00  0.00    +0.000 OA
ENDROOT
BRANCH   6  11
ATOM     11  C   UNL     1       9.526  10.443  19.183  0.00  0.00    +0.000 A 
ATOM     12  C   UNL     1       9.387  10.860  20.516  0.00  0.00    +0.000 A 
ATOM     13  C   UNL     1      10.158  11.908  21.026  0.00  0.00    +0.000 A 
ATOM     14  C   UNL     1      11.078  12.560  20.209  0.00  0.00    +0.000 A 
ATOM     15  C   UNL     1      11.221  12.171  18.881  0.00  0.00    +0.000 A 
ATOM     16  C   UNL     1      10.449  11.122  18.373  0.00  0.00    +0.000 A 
ENDBRANCH   6  11
BRANCH   1  17
ATOM     17  C   UNL     1       5.984   3.957  17.869  0.00  0.00    +0.000 C 
BRANCH  17  18
ATOM     18  C   UNL     1       4.935   3.842  18.990  0.00  0.00    +0.000 C 
BRANCH  18  19
ATOM     19  O   UNL     1       5.257   2.706  19.804  0.00  0.00    +0.000 OA
ATOM     20  H   UNL     1       4.428   2.271  20.065  0.00  0.00    +0.000 HD
ENDBRANCH  18  19
BRANCH  18  21
ATOM     21  C   UNL     1       3.512   3.706  18.370  0.00  0.00    +0.000 C 
BRANCH  21  22
ATOM     22  N   UNL     1       2.467   4.585  18.942  0.00  0.00    +0.000 NA
BRANCH  22  24
ATOM     23  C   UNL     1       2.815   7.043  18.458  0.00  0.00    +0.000 C 
ATOM     24  C   UNL     1       2.165   5.722  18.054  0.00  0.00    +0.000 C 
ENDBRANCH  22  24
BRANCH  22  25
ATOM     25  C   UNL     1       1.275   3.823  19.360  0.00  0.00    +0.000 C 
ATOM     26  C   UNL     1       1.207   3.398  20.825  0.00  0.00    +0.000 C 
ENDBRANCH  22  25
ENDBRANCH  21  22
ENDBRANCH  18  21
ENDBRANCH  17  18
ENDBRANCH   1  17
TORSDOF 8
ENDMDL
MODEL 8
REMARK VINA RESULT:      -6.8      4.854      7.253
REMARK  Name = 
REMARK  10 active torsions:
REMARK  status: ('A' for Active; 'I' for Inactive)
REMARK    1  A    between atoms: C_1  and  C_2
REMARK    2  A    between atoms: C_2  and  N_3
REMARK    3  A    between atoms: N_3  and  C_4
REMARK    4  A    between atoms: N_3  and  C_6
REMARK    5  A    between atoms: C_4  and  C_5
REMARK    6  A    between atoms: C_6  and  C_7
REMARK    7  A    between atoms: C_7  and  O_8
REMARK    8  A    between atoms: C_7  and  C_9
REMARK    9  A    between atoms: C_9  and  N_10
REMARK   10  A    between atoms: C_15  and  C_16
REMARK                            x       y       z     vdW  Elec       q    Type
REMARK                         _______ _______ _______ _____ _____    ______ ____
ROOT
ATOM      1  N   UNL     1       6.310   5.211  17.598  0.00  0.00    +0.000 N 
ATOM      2  C   UNL     1       5.708   6.054  16.675  0.00  0.00    +0.000 A 
ATOM      3  N   UNL     1       5.984   7.306  16.500  0.00  0.00    +0.000 NA
ATOM      4  C   UNL     1       6.955   7.778  17.318  0.00  0.00    +0.000 A 
ATOM      5  S   UNL     1       7.394   9.421  17.330  0.00  0.00    +0.000 S 
ATOM      6  C   UNL     1       8.601   9.181  18.534  0.00  0.00    +0.000 A 
ATOM      7  C   UNL     1       8.637   7.851  18.923  0.00  0.00    +0.000 A 
ATOM      8  C   UNL     1       7.686   7.047  18.228  0.00  0.00    +0.000 A 
ATOM      9  C   UNL     1       7.385   5.634  18.373  0.00  0.00    +0.000 A 
ATOM     10  O   UNL     1       8.018   4.903  19.130  0.00  0.00    +0.000 OA
ENDROOT
BRANCH   6  11
ATOM     11  C   UNL     1       9.414  10.308  19.021  0.00  0.00    +0.000 A 
ATOM     12  C   UNL     1       9.386  10.667  20.377  0.00  0.00    +0.000 A 
ATOM     13  C   UNL     1      10.189  11.704  20.863  0.00  0.00    +0.000 A 
ATOM     14  C   UNL     1      11.028  12.402  19.999  0.00  0.00    +0.000 A 
ATOM     15  C   UNL     1      11.060  12.070  18.648  0.00  0.00    +0.000 A 
ATOM     16  C   UNL     1      10.258  11.032  18.164  0.00  0.00    +0.000 A 
ENDBRANCH   6  11
BRANCH   1  17
ATOM     17  C   UNL     1       5.808   3.847  17.761  0.00  0.00    +0.000 C 
BRANCH  17  18
ATOM     18  C   UNL     1       4.792   3.708  18.908  0.00  0.00    +0.000 C 
BRANCH  18  19
ATOM     19  O   UNL     1       5.165   2.583  19.717  0.00  0.00    +0.000 OA
ATOM     20  H   UNL     1       6.025   2.773  20.129  0.00  0.00    +0.000 HD
ENDBRANCH  18  19
BRANCH  18  21
ATOM     21  C   UNL     1       3.358   3.532  18.325  0.00  0.00    +0.000 C 
BRANCH  21  22
ATOM     22  N   UNL     1       2.248   4.035  19.166  0.00  0.00    +0.000 NA
BRANCH  22  24
ATOM     23  C   UNL     1       2.073   3.258  21.566  0.00  0.00    +0.000 C 
ATOM     24  C   UNL     1       1.757   3.002  20.095  0.00  0.00    +0.000 C 
ENDBRANCH  22  24
BRANCH  22  25
ATOM     25  C   UNL     1       2.590   5.311  19.822  0.00  0.00    +0.000 C 
ATOM     26  C   UNL     1       2.754   6.530  18.917  0.00  0.00    +0.000 C 
ENDBRANCH  22  25
ENDBRANCH  21  22
ENDBRANCH  18  21
ENDBRANCH  17  18
ENDBRANCH   1  17
TORSDOF 8
ENDMDL
MODEL 9
REMARK VINA RESULT:      -6.8      2.855      4.779
REMARK  Name = 
REMARK  10 active torsions:
REMARK  status: ('A' for Active; 'I' for Inactive)
REMARK    1  A    between atoms: C_1  and  C_2
REMARK    2  A    between atoms: C_2  and  N_3
REMARK    3  A    between atoms: N_3  and  C_4
REMARK    4  A    between atoms: N_3  and  C_6
REMARK    5  A    between atoms: C_4  and  C_5
REMARK    6  A    between atoms: C_6  and  C_7
REMARK    7  A    between atoms: C_7  and  O_8
REMARK    8  A    between atoms: C_7  and  C_9
REMARK    9  A    between atoms: C_9  and  N_10
REMARK   10  A    between atoms: C_15  and  C_16
REMARK                            x       y       z     vdW  Elec       q    Type
REMARK                         _______ _______ _______ _____ _____    ______ ____
ROOT
ATOM      1  N   UNL     1       2.936   5.886  18.926  0.00  0.00    +0.000 N 
ATOM      2  C   UNL     1       3.226   6.820  17.942  0.00  0.00    +0.000 A 
ATOM      3  N   UNL     1       2.788   8.037  17.901  0.00  0.00    +0.000 NA
ATOM      4  C   UNL     1       1.980   8.370  18.936  0.00  0.00    +0.000 A 
ATOM      5  S   UNL     1       1.208   9.882  19.019  0.00  0.00    +0.000 S 
ATOM      6  C   UNL     1       0.456   9.516  20.524  0.00  0.00    +0.000 A 
ATOM      7  C   UNL     1       0.791   8.234  20.931  0.00  0.00    +0.000 A 
ATOM      8  C   UNL     1       1.663   7.574  20.015  0.00  0.00    +0.000 A 
ATOM      9  C   UNL     1       2.204   6.228  20.058  0.00  0.00    +0.000 A 
ATOM     10  O   UNL     1       2.005   5.470  21.003  0.00  0.00    +0.000 OA
ENDROOT
BRANCH   6  11
ATOM     11  C   UNL     1      -0.416  10.499  21.189  0.00  0.00    +0.000 A 
ATOM     12  C   UNL     1      -0.629  10.433  22.575  0.00  0.00    +0.000 A 
ATOM     13  C   UNL     1      -1.416  11.387  23.228  0.00  0.00    +0.000 A 
ATOM     14  C   UNL     1      -2.007  12.418  22.504  0.00  0.00    +0.000 A 
ATOM     15  C   UNL     1      -1.820  12.494  21.127  0.00  0.00    +0.000 A 
ATOM     16  C   UNL     1      -1.031  11.539  20.477  0.00  0.00    +0.000 A 
ENDBRANCH   6  11
BRANCH   1  17
ATOM     17  C   UNL     1       3.412   4.511  18.774  0.00  0.00    +0.000 C 
BRANCH  17  18
ATOM     18  C   UNL     1       3.401   4.023  17.314  0.00  0.00    +0.000 C 
BRANCH  18  19
ATOM     19  O   UNL     1       2.440   2.965  17.191  0.00  0.00    +0.000 OA
ATOM     20  H   UNL     1       2.918   2.118  17.173  0.00  0.00    +0.000 HD
ENDBRANCH  18  19
BRANCH  18  21
ATOM     21  C   UNL     1       4.826   3.541  16.908  0.00  0.00    +0.000 C 
BRANCH  21  22
ATOM     22  N   UNL     1       5.695   4.552  16.265  0.00  0.00    +0.000 NA
BRANCH  22  24
ATOM     23  C   UNL     1       7.198   5.205  18.192  0.00  0.00    +0.000 C 
ATOM     24  C   UNL     1       7.058   4.536  16.827  0.00  0.00    +0.000 C 
ENDBRANCH  22  24
BRANCH  22  25
ATOM     25  C   UNL     1       5.657   4.456  14.794  0.00  0.00    +0.000 C 
ATOM     26  C   UNL     1       6.954   4.765  14.049  0.00  0.00    +0.000 C 
ENDBRANCH  22  25
ENDBRANCH  21  22
ENDBRANCH  18  21
ENDBRANCH  17  18
ENDBRANCH   1  17
TORSDOF 8
ENDMDL
