MODEL 1
REMARK VINA RESULT:      -7.5      0.000      0.000
REMARK  Name = 
REMARK  10 active torsions:
REMARK  status: ('A' for Active; 'I' for Inactive)
REMARK    1  A    between atoms: C_1  and  C_2
REMARK    2  A    between atoms: C_2  and  O_3
REMARK    3  A    between atoms: O_3  and  C_4
REMARK    4  A    between atoms: C_4  and  C_5
REMARK    5  A    between atoms: C_5  and  N_6
REMARK    6  A    between atoms: C_7  and  C_9
REMARK    7  A    between atoms: C_12  and  C_13
REMARK    8  A    between atoms: N_17  and  C_18
REMARK    9  A    between atoms: C_18  and  C_19
REMARK   10  A    between atoms: C_18  and  C_20
REMARK                            x       y       z     vdW  Elec       q    Type
REMARK                         _______ _______ _______ _____ _____    ______ ____
ROOT
ATOM      1  C   UNL     1       5.220   5.246  15.874  0.00  0.00    +0.000 A 
ATOM      2  C   UNL     1       4.492   4.246  16.518  0.00  0.00    +0.000 A 
ATOM      3  C   UNL     1       3.638   4.566  17.577  0.00  0.00    +0.000 A 
ATOM      4  C   UNL     1       3.467   5.887  18.000  0.00  0.00    +0.000 A 
ATOM      5  C   UNL     1       4.211   6.886  17.343  0.00  0.00    +0.000 A 
ATOM      6  C   UNL     1       5.089   6.569  16.296  0.00  0.00    +0.000 A 
ENDROOT
BRANCH   4   7
ATOM      7  C   UNL     1       2.625   6.262  19.149  0.00  0.00    +0.000 A 
ATOM      8  N   UNL     1       2.345   7.521  19.451  0.00  0.00    +0.000 NA
ATOM      9  C   UNL     1       1.635   7.444  20.603  0.00  0.00    +0.000 A 
ATOM     10  N   UNL     1       1.390   6.211  21.031  0.00  0.00    +0.000 NA
ATOM     11  N   UNL     1       2.010   5.452  20.095  0.00  0.00    +0.000 N 
BRANCH  11  12
ATOM     12  C   UNL     1       2.037   4.003  20.271  0.00  0.00    +0.000 C 
ATOM     13  C   UNL     1       2.202   3.559  21.734  0.00  0.00    +0.000 C 
ATOM     14  C   UNL     1       0.816   3.289  19.682  0.00  0.00    +0.000 C 
ENDBRANCH  11  12
ENDBRANCH   4   7
BRANCH   1  16
ATOM     15  N   UNL     1       5.759   3.980  13.873  0.00  0.00    +0.000 N 
ATOM     16  C   UNL     1       6.200   4.888  14.811  0.00  0.00    +0.000 C 
ATOM     17  O   UNL     1       7.319   5.391  14.805  0.00  0.00    +0.000 OA
ATOM     18  H   UNL     1       4.761   3.902  13.721  0.00  0.00    +0.000 HD
BRANCH  15  19
ATOM     19  C   UNL     1       6.608   3.591  12.764  0.00  0.00    +0.000 C 
BRANCH  19  20
ATOM     20  C   UNL     1       5.787   3.129  11.563  0.00  0.00    +0.000 C 
BRANCH  20  21
ATOM     21  O   UNL     1       4.485   3.725  11.629  0.00  0.00    +0.000 OA
BRANCH  21  23
ATOM     22  C   UNL     1       2.999   4.091   9.790  0.00  0.00    +0.000 C 
ATOM     23  C   UNL     1       3.563   3.070  10.759  0.00  0.00    +0.000 C 
ENDBRANCH  21  23
ENDBRANCH  20  21
ENDBRANCH  19  20
ENDBRANCH  15  19
ENDBRANCH   1  16
TORSDOF 7
ENDMDL
MODEL 2
REMARK VINA RESULT:      -7.5      0.417      1.107
REMARK  Name = 
REMARK  10 active torsions:
REMARK  status: ('A' for Active; 'I' for Inactive)
REMARK    1  A    between atoms: C_1  and  C_2
REMARK    2  A    between atoms: C_2  and  O_3
REMARK    3  A    between atoms: O_3  and  C_4
REMARK    4  A    between atoms: C_4  and  C_5
REMARK    5  A    between atoms: C_5  and  N_6
REMARK    6  A    between atoms: C_7  and  C_9
REMARK    7  A    between atoms: C_12  and  C_13
REMARK    8  A    between atoms: N_17  and  C_18
REMARK    9  A    between atoms: C_18  and  C_19
REMARK   10  A    between atoms: C_18  and  C_20
REMARK                            x       y       z     vdW  Elec       q    Type
REMARK                         _______ _______ _______ _____ _____    ______ ____
ROOT
ATOM      1  C   UNL     1       5.533   5.021  15.786  0.00  0.00    +0.000 A 
ATOM      2  C   UNL     1       5.377   6.343  16.203  0.00  0.00    +0.000 A 
ATOM      3  C   UNL     1       4.518   6.650  17.262  0.00  0.00    +0.000 A 
ATOM      4  C   UNL     1       3.821   5.652  17.948  0.00  0.00    +0.000 A 
ATOM      5  C   UNL     1       3.985   4.323  17.514  0.00  0.00    +0.000 A 
ATOM      6  C   UNL     1       4.825   4.009  16.435  0.00  0.00    +0.000 A 
ENDROOT
BRANCH   4   7
ATOM      7  C   UNL     1       2.862   5.938  19.029  0.00  0.00    +0.000 A 
ATOM      8  N   UNL     1       2.503   7.168  19.362  0.00  0.00    +0.000 NA
ATOM      9  C   UNL     1       1.694   7.008  20.437  0.00  0.00    +0.000 A 
ATOM     10  N   UNL     1       1.460   5.747  20.781  0.00  0.00    +0.000 NA
ATOM     11  N   UNL     1       2.196   5.059  19.874  0.00  0.00    +0.000 N 
BRANCH  11  12
ATOM     12  C   UNL     1       2.266   3.604  19.984  0.00  0.00    +0.000 C 
ATOM     13  C   UNL     1       2.380   3.097  21.431  0.00  0.00    +0.000 C 
ATOM     14  C   UNL     1       1.098   2.879  19.306  0.00  0.00    +0.000 C 
ENDBRANCH  11  12
ENDBRANCH   4   7
BRANCH   1  16
ATOM     15  N   UNL     1       5.906   3.698  13.785  0.00  0.00    +0.000 N 
ATOM     16  C   UNL     1       6.372   4.709  14.596  0.00  0.00    +0.000 C 
ATOM     17  O   UNL     1       7.406   5.335  14.386  0.00  0.00    +0.000 OA
ATOM     18  H   UNL     1       4.913   3.497  13.800  0.00  0.00    +0.000 HD
BRANCH  15  19
ATOM     19  C   UNL     1       6.614   3.336  12.572  0.00  0.00    +0.000 C 
BRANCH  19  20
ATOM     20  C   UNL     1       5.652   2.931  11.459  0.00  0.00    +0.000 C 
BRANCH  20  21
ATOM     21  O   UNL     1       4.348   3.451  11.755  0.00  0.00    +0.000 OA
BRANCH  21  23
ATOM     22  C   UNL     1       3.098   4.167   9.845  0.00  0.00    +0.000 C 
ATOM     23  C   UNL     1       3.382   3.021  10.797  0.00  0.00    +0.000 C 
ENDBRANCH  21  23
ENDBRANCH  20  21
ENDBRANCH  19  20
ENDBRANCH  15  19
ENDBRANCH   1  16
TORSDOF 7
ENDMDL
MODEL 3
REMARK VINA RESULT:      -7.1      5.131      7.191
REMARK  Name = 
REMARK  10 active torsions:
REMARK  status: ('A' for Active; 'I' for Inactive)
REMARK    1  A    between atoms: C_1  and  C_2
REMARK    2  A    between atoms: C_2  and  O_3
REMARK    3  A    between atoms: O_3  and  C_4
REMARK    4  A    between atoms: C_4  and  C_5
REMARK    5  A    between atoms: C_5  and  N_6
REMARK    6  A    between atoms: C_7  and  C_9
REMARK    7  A    between atoms: C_12  and  C_13
REMARK    8  A    between atoms: N_17  and  C_18
REMARK    9  A    between atoms: C_18  and  C_19
REMARK   10  A    between atoms: C_18  and  C_20
REMARK                            x       y       z     vdW  Elec       q    Type
REMARK                         _______ _______ _______ _____ _____    ______ ____
ROOT
ATOM      1  C   UNL     1       1.533   9.149  18.779  0.00  0.00    +0.000 A 
ATOM      2  C   UNL     1       2.254   8.587  17.725  0.00  0.00    +0.000 A 
ATOM      3  C   UNL     1       2.879   7.347  17.881  0.00  0.00    +0.000 A 
ATOM      4  C   UNL     1       2.778   6.626  19.073  0.00  0.00    +0.000 A 
ATOM      5  C   UNL     1       2.051   7.206  20.130  0.00  0.00    +0.000 A 
ATOM      6  C   UNL     1       1.442   8.462  19.989  0.00  0.00    +0.000 A 
ENDROOT
BRANCH   4   7
ATOM      7  C   UNL     1       3.470   5.345  19.301  0.00  0.00    +0.000 A 
ATOM      8  N   UNL     1       4.784   5.212  19.194  0.00  0.00    +0.000 NA
ATOM      9  C   UNL     1       5.009   3.890  19.387  0.00  0.00    +0.000 A 
ATOM     10  N   UNL     1       3.929   3.172  19.671  0.00  0.00    +0.000 NA
ATOM     11  N   UNL     1       2.944   4.103  19.630  0.00  0.00    +0.000 N 
BRANCH  11  12
ATOM     12  C   UNL     1       1.561   3.671  19.811  0.00  0.00    +0.000 C 
ATOM     13  C   UNL     1       1.013   2.839  18.639  0.00  0.00    +0.000 C 
ATOM     14  C   UNL     1       1.324   2.894  21.110  0.00  0.00    +0.000 C 
ENDBRANCH  11  12
ENDBRANCH   4   7
BRANCH   1  16
ATOM     15  N   UNL     1      -0.379  10.560  18.285  0.00  0.00    +0.000 N 
ATOM     16  C   UNL     1       0.950  10.512  18.641  0.00  0.00    +0.000 C 
ATOM     17  O   UNL     1       1.643  11.505  18.840  0.00  0.00    +0.000 OA
ATOM     18  H   UNL     1      -0.957   9.756  18.500  0.00  0.00    +0.000 HD
BRANCH  15  19
ATOM     19  C   UNL     1      -1.069  11.830  18.166  0.00  0.00    +0.000 C 
BRANCH  19  20
ATOM     20  C   UNL     1      -2.508  11.647  17.693  0.00  0.00    +0.000 C 
BRANCH  20  21
ATOM     21  O   UNL     1      -2.542  10.632  16.680  0.00  0.00    +0.000 OA
BRANCH  21  23
ATOM     22  C   UNL     1      -3.190  10.028  14.458  0.00  0.00    +0.000 C 
ATOM     23  C   UNL     1      -3.417  10.988  15.611  0.00  0.00    +0.000 C 
ENDBRANCH  21  23
ENDBRANCH  20  21
ENDBRANCH  19  20
ENDBRANCH  15  19
ENDBRANCH   1  16
TORSDOF 7
ENDMDL
MODEL 4
REMARK VINA RESULT:      -7.0      1.180      2.381
REMARK  Name = 
REMARK  10 active torsions:
REMARK  status: ('A' for Active; 'I' for Inactive)
REMARK    1  A    between atoms: C_1  and  C_2
REMARK    2  A    between atoms: C_2  and  O_3
REMARK    3  A    between atoms: O_3  and  C_4
REMARK    4  A    between atoms: C_4  and  C_5
REMARK    5  A    between atoms: C_5  and  N_6
REMARK    6  A    between atoms: C_7  and  C_9
REMARK    7  A    between atoms: C_12  and  C_13
REMARK    8  A    between atoms: N_17  and  C_18
REMARK    9  A    between atoms: C_18  and  C_19
REMARK   10  A    between atoms: C_18  and  C_20
REMARK                            x       y       z     vdW  Elec       q    Type
REMARK                         _______ _______ _______ _____ _____    ______ ____
ROOT
ATOM      1  C   UNL     1       5.818   4.372  16.146  0.00  0.00    +0.000 A 
ATOM      2  C   UNL     1       6.336   4.837  17.355  0.00  0.00    +0.000 A 
ATOM      3  C   UNL     1       5.543   4.845  18.505  0.00  0.00    +0.000 A 
ATOM      4  C   UNL     1       4.231   4.364  18.488  0.00  0.00    +0.000 A 
ATOM      5  C   UNL     1       3.720   3.901  17.261  0.00  0.00    +0.000 A 
ATOM      6  C   UNL     1       4.501   3.913  16.097  0.00  0.00    +0.000 A 
ENDROOT
BRANCH   4   7
ATOM      7  C   UNL     1       3.342   4.410  19.662  0.00  0.00    +0.000 A 
ATOM      8  N   UNL     1       3.051   3.337  20.383  0.00  0.00    +0.000 NA
ATOM      9  C   UNL     1       2.151   3.775  21.296  0.00  0.00    +0.000 A 
ATOM     10  N   UNL     1       1.888   5.075  21.248  0.00  0.00    +0.000 NA
ATOM     11  N   UNL     1       2.659   5.487  20.212  0.00  0.00    +0.000 N 
BRANCH  11  12
ATOM     12  C   UNL     1       2.574   6.881  19.784  0.00  0.00    +0.000 C 
ATOM     13  C   UNL     1       2.179   7.052  18.307  0.00  0.00    +0.000 C 
ATOM     14  C   UNL     1       1.630   7.731  20.641  0.00  0.00    +0.000 C 
ENDBRANCH  11  12
ENDBRANCH   4   7
BRANCH   1  16
ATOM     15  N   UNL     1       6.256   3.609  13.884  0.00  0.00    +0.000 N 
ATOM     16  C   UNL     1       6.634   4.455  14.903  0.00  0.00    +0.000 C 
ATOM     17  O   UNL     1       7.573   5.240  14.830  0.00  0.00    +0.000 OA
ATOM     18  H   UNL     1       5.297   3.284  13.867  0.00  0.00    +0.000 HD
BRANCH  15  19
ATOM     19  C   UNL     1       6.946   3.633  12.608  0.00  0.00    +0.000 C 
BRANCH  19  20
ATOM     20  C   UNL     1       6.015   3.262  11.458  0.00  0.00    +0.000 C 
BRANCH  20  21
ATOM     21  O   UNL     1       4.666   3.579  11.827  0.00  0.00    +0.000 OA
BRANCH  21  23
ATOM     22  C   UNL     1       3.237   3.974   9.949  0.00  0.00    +0.000 C 
ATOM     23  C   UNL     1       3.724   2.952  10.958  0.00  0.00    +0.000 C 
ENDBRANCH  21  23
ENDBRANCH  20  21
ENDBRANCH  19  20
ENDBRANCH  15  19
ENDBRANCH   1  16
TORSDOF 7
ENDMDL
MODEL 5
REMARK VINA RESULT:      -7.0      4.159      8.637
REMARK  Name = 
REMARK  10 active torsions:
REMARK  status: ('A' for Active; 'I' for Inactive)
REMARK    1  A    between atoms: C_1  and  C_2
REMARK    2  A    between atoms: C_2  and  O_3
REMARK    3  A    between atoms: O_3  and  C_4
REMARK    4  A    between atoms: C_4  and  C_5
REMARK    5  A    between atoms: C_5  and  N_6
REMARK    6  A    between atoms: C_7  and  C_9
REMARK    7  A    between atoms: C_12  and  C_13
REMARK    8  A    between atoms: N_17  and  C_18
REMARK    9  A    between atoms: C_18  and  C_19
REMARK   10  A    between atoms: C_18  and  C_20
REMARK                            x       y       z     vdW  Elec       q    Type
REMARK                         _______ _______ _______ _____ _____    ______ ____
ROOT
ATOM      1  C   UNL     1       2.475   7.399  19.169  0.00  0.00    +0.000 A 
ATOM      2  C   UNL     1       2.928   7.962  17.976  0.00  0.00    +0.000 A 
ATOM      3  C   UNL     1       3.849   7.277  17.178  0.00  0.00    +0.000 A 
ATOM      4  C   UNL     1       4.316   6.008  17.531  0.00  0.00    +0.000 A 
ATOM      5  C   UNL     1       3.853   5.454  18.740  0.00  0.00    +0.000 A 
ATOM      6  C   UNL     1       2.949   6.146  19.558  0.00  0.00    +0.000 A 
ENDROOT
BRANCH   4   7
ATOM      7  C   UNL     1       5.330   5.278  16.752  0.00  0.00    +0.000 A 
ATOM      8  N   UNL     1       5.016   4.388  15.822  0.00  0.00    +0.000 NA
ATOM      9  C   UNL     1       6.207   3.888  15.413  0.00  0.00    +0.000 A 
ATOM     10  N   UNL     1       7.273   4.443  15.978  0.00  0.00    +0.000 NA
ATOM     11  N   UNL     1       6.716   5.342  16.825  0.00  0.00    +0.000 N 
BRANCH  11  12
ATOM     12  C   UNL     1       7.589   6.108  17.711  0.00  0.00    +0.000 C 
ATOM     13  C   UNL     1       7.450   7.631  17.553  0.00  0.00    +0.000 C 
ATOM     14  C   UNL     1       7.422   5.756  19.193  0.00  0.00    +0.000 C 
ENDBRANCH  11  12
ENDBRANCH   4   7
BRANCH   1  16
ATOM     15  N   UNL     1       1.108   9.367  19.554  0.00  0.00    +0.000 N 
ATOM     16  C   UNL     1       1.570   8.173  20.062  0.00  0.00    +0.000 C 
ATOM     17  O   UNL     1       1.277   7.741  21.173  0.00  0.00    +0.000 OA
ATOM     18  H   UNL     1       1.077   9.475  18.548  0.00  0.00    +0.000 HD
BRANCH  15  19
ATOM     19  C   UNL     1       0.183  10.186  20.314  0.00  0.00    +0.000 C 
BRANCH  19  20
ATOM     20  C   UNL     1       0.861  11.438  20.864  0.00  0.00    +0.000 C 
BRANCH  20  21
ATOM     21  O   UNL     1       0.137  11.895  22.014  0.00  0.00    +0.000 OA
BRANCH  21  23
ATOM     22  C   UNL     1      -1.898  11.510  23.212  0.00  0.00    +0.000 C 
ATOM     23  C   UNL     1      -0.692  10.867  22.555  0.00  0.00    +0.000 C 
ENDBRANCH  21  23
ENDBRANCH  20  21
ENDBRANCH  19  20
ENDBRANCH  15  19
ENDBRANCH   1  16
TORSDOF 7
ENDMDL
MODEL 6
REMARK VINA RESULT:      -7.0      5.102      7.477
REMARK  Name = 
REMARK  10 active torsions:
REMARK  status: ('A' for Active; 'I' for Inactive)
REMARK    1  A    between atoms: C_1  and  C_2
REMARK    2  A    between atoms: C_2  and  O_3
REMARK    3  A    between atoms: O_3  and  C_4
REMARK    4  A    between atoms: C_4  and  C_5
REMARK    5  A    between atoms: C_5  and  N_6
REMARK    6  A    between atoms: C_7  and  C_9
REMARK    7  A    between atoms: C_12  and  C_13
REMARK    8  A    between atoms: N_17  and  C_18
REMARK    9  A    between atoms: C_18  and  C_19
REMARK   10  A    between atoms: C_18  and  C_20
REMARK                            x       y       z     vdW  Elec       q    Type
REMARK                         _______ _______ _______ _____ _____    ______ ____
ROOT
ATOM      1  C   UNL     1       1.456   9.041  19.228  0.00  0.00    +0.000 A 
ATOM      2  C   UNL     1       1.410   8.279  20.395  0.00  0.00    +0.000 A 
ATOM      3  C   UNL     1       2.047   7.037  20.451  0.00  0.00    +0.000 A 
ATOM      4  C   UNL     1       2.767   6.538  19.363  0.00  0.00    +0.000 A 
ATOM      5  C   UNL     1       2.803   7.316  18.190  0.00  0.00    +0.000 A 
ATOM      6  C   UNL     1       2.145   8.552  18.118  0.00  0.00    +0.000 A 
ENDROOT
BRANCH   4   7
ATOM      7  C   UNL     1       3.402   5.209  19.358  0.00  0.00    +0.000 A 
ATOM      8  N   UNL     1       4.688   5.030  19.094  0.00  0.00    +0.000 NA
ATOM      9  C   UNL     1       4.852   3.684  19.102  0.00  0.00    +0.000 A 
ATOM     10  N   UNL     1       3.767   2.987  19.413  0.00  0.00    +0.000 NA
ATOM     11  N   UNL     1       2.840   3.960  19.592  0.00  0.00    +0.000 N 
BRANCH  11  12
ATOM     12  C   UNL     1       1.459   3.573  19.868  0.00  0.00    +0.000 C 
ATOM     13  C   UNL     1       0.860   2.623  18.819  0.00  0.00    +0.000 C 
ATOM     14  C   UNL     1       1.261   2.953  21.255  0.00  0.00    +0.000 C 
ENDBRANCH  11  12
ENDBRANCH   4   7
BRANCH   1  16
ATOM     15  N   UNL     1      -0.515  10.338  19.795  0.00  0.00    +0.000 N 
ATOM     16  C   UNL     1       0.696  10.319  19.140  0.00  0.00    +0.000 C 
ATOM     17  O   UNL     1       1.153  11.271  18.516  0.00  0.00    +0.000 OA
ATOM     18  H   UNL     1      -0.649   9.694  20.565  0.00  0.00    +0.000 HD
BRANCH  15  19
ATOM     19  C   UNL     1      -1.324  11.542  19.820  0.00  0.00    +0.000 C 
BRANCH  19  20
ATOM     20  C   UNL     1      -2.470  11.470  18.814  0.00  0.00    +0.000 C 
BRANCH  20  21
ATOM     21  O   UNL     1      -1.998  11.912  17.535  0.00  0.00    +0.000 OA
BRANCH  21  23
ATOM     22  C   UNL     1      -2.346   9.694  16.708  0.00  0.00    +0.000 C 
ATOM     23  C   UNL     1      -2.594  11.171  16.471  0.00  0.00    +0.000 C 
ENDBRANCH  21  23
ENDBRANCH  20  21
ENDBRANCH  19  20
ENDBRANCH  15  19
ENDBRANCH   1  16
TORSDOF 7
ENDMDL
MODEL 7
REMARK VINA RESULT:      -7.0      5.039      7.187
REMARK  Name = 
REMARK  10 active torsions:
REMARK  status: ('A' for Active; 'I' for Inactive)
REMARK    1  A    between atoms: C_1  and  C_2
REMARK    2  A    between atoms: C_2  and  O_3
REMARK    3  A    between atoms: O_3  and  C_4
REMARK    4  A    between atoms: C_4  and  C_5
REMARK    5  A    between atoms: C_5  and  N_6
REMARK    6  A    between atoms: C_7  and  C_9
REMARK    7  A    between atoms: C_12  and  C_13
REMARK    8  A    between atoms: N_17  and  C_18
REMARK    9  A    between atoms: C_18  and  C_19
REMARK   10  A    between atoms: C_18  and  C_20
REMARK                            x       y       z     vdW  Elec       q    Type
REMARK                         _______ _______ _______ _____ _____    ______ ____
ROOT
ATOM      1  C   UNL     1       1.320   9.053  19.112  0.00  0.00    +0.000 A 
ATOM      2  C   UNL     1       1.384   8.281  20.272  0.00  0.00    +0.000 A 
ATOM      3  C   UNL     1       2.165   7.123  20.305  0.00  0.00    +0.000 A 
ATOM      4  C   UNL     1       2.921   6.722  19.200  0.00  0.00    +0.000 A 
ATOM      5  C   UNL     1       2.844   7.509  18.035  0.00  0.00    +0.000 A 
ATOM      6  C   UNL     1       2.043   8.659  17.986  0.00  0.00    +0.000 A 
ENDROOT
BRANCH   4   7
ATOM      7  C   UNL     1       3.709   5.478  19.172  0.00  0.00    +0.000 A 
ATOM      8  N   UNL     1       5.029   5.464  19.277  0.00  0.00    +0.000 NA
ATOM      9  C   UNL     1       5.369   4.161  19.118  0.00  0.00    +0.000 A 
ATOM     10  N   UNL     1       4.346   3.327  18.977  0.00  0.00    +0.000 NA
ATOM     11  N   UNL     1       3.282   4.165  19.025  0.00  0.00    +0.000 N 
BRANCH  11  12
ATOM     12  C   UNL     1       1.945   3.615  18.814  0.00  0.00    +0.000 C 
ATOM     13  C   UNL     1       1.018   3.754  20.033  0.00  0.00    +0.000 C 
ATOM     14  C   UNL     1       1.228   4.196  17.590  0.00  0.00    +0.000 C 
ENDBRANCH  11  12
ENDBRANCH   4   7
BRANCH   1  16
ATOM     15  N   UNL     1      -0.466  10.253  17.989  0.00  0.00    +0.000 N 
ATOM     16  C   UNL     1       0.412  10.232  19.050  0.00  0.00    +0.000 C 
ATOM     17  O   UNL     1       0.473  11.107  19.907  0.00  0.00    +0.000 OA
ATOM     18  H   UNL     1      -0.715   9.370  17.561  0.00  0.00    +0.000 HD
BRANCH  15  19
ATOM     19  C   UNL     1      -1.431  11.327  17.848  0.00  0.00    +0.000 C 
BRANCH  19  20
ATOM     20  C   UNL     1      -2.842  10.790  17.624  0.00  0.00    +0.000 C 
BRANCH  20  21
ATOM     21  O   UNL     1      -2.866  10.034  16.405  0.00  0.00    +0.000 OA
BRANCH  21  23
ATOM     22  C   UNL     1      -3.579   9.991  14.122  0.00  0.00    +0.000 C 
ATOM     23  C   UNL     1      -3.132  10.867  15.277  0.00  0.00    +0.000 C 
ENDBRANCH  21  23
ENDBRANCH  20  21
ENDBRANCH  19  20
ENDBRANCH  15  19
ENDBRANCH   1  16
TORSDOF 7
ENDMDL
MODEL 8
REMARK VINA RESULT:      -7.0      4.994      7.260
REMARK  Name = 
REMARK  10 active torsions:
REMARK  status: ('A' for Active; 'I' for Inactive)
REMARK    1  A    between atoms: C_1  and  C_2
REMARK    2  A    between atoms: C_2  and  O_3
REMARK    3  A    between atoms: O_3  and  C_4
REMARK    4  A    between atoms: C_4  and  C_5
REMARK    5  A    between atoms: C_5  and  N_6
REMARK    6  A    between atoms: C_7  and  C_9
REMARK    7  A    between atoms: C_12  and  C_13
REMARK    8  A    between atoms: N_17  and  C_18
REMARK    9  A    between atoms: C_18  and  C_19
REMARK   10  A    between atoms: C_18  and  C_20
REMARK                            x       y       z     vdW  Elec       q    Type
REMARK                         _______ _______ _______ _____ _____    ______ ____
ROOT
ATOM      1  C   UNL     1       1.404   9.154  18.866  0.00  0.00    +0.000 A 
ATOM      2  C   UNL     1       2.145   8.742  17.758  0.00  0.00    +0.000 A 
ATOM      3  C   UNL     1       2.903   7.569  17.814  0.00  0.00    +0.000 A 
ATOM      4  C   UNL     1       2.918   6.765  18.958  0.00  0.00    +0.000 A 
ATOM      5  C   UNL     1       2.168   7.195  20.069  0.00  0.00    +0.000 A 
ATOM      6  C   UNL     1       1.425   8.384  20.029  0.00  0.00    +0.000 A 
ENDROOT
BRANCH   4   7
ATOM      7  C   UNL     1       3.748   5.555  19.081  0.00  0.00    +0.000 A 
ATOM      8  N   UNL     1       5.067   5.600  19.198  0.00  0.00    +0.000 NA
ATOM      9  C   UNL     1       5.453   4.301  19.193  0.00  0.00    +0.000 A 
ATOM     10  N   UNL     1       4.462   3.420  19.140  0.00  0.00    +0.000 NA
ATOM     11  N   UNL     1       3.369   4.219  19.082  0.00  0.00    +0.000 N 
BRANCH  11  12
ATOM     12  C   UNL     1       2.054   3.601  18.923  0.00  0.00    +0.000 C 
ATOM     13  C   UNL     1       1.138   3.770  20.146  0.00  0.00    +0.000 C 
ATOM     14  C   UNL     1       1.297   4.079  17.679  0.00  0.00    +0.000 C 
ENDBRANCH  11  12
ENDBRANCH   4   7
BRANCH   1  16
ATOM     15  N   UNL     1      -0.692  10.373  18.973  0.00  0.00    +0.000 N 
ATOM     16  C   UNL     1       0.676  10.453  18.835  0.00  0.00    +0.000 C 
ATOM     17  O   UNL     1       1.291  11.504  18.695  0.00  0.00    +0.000 OA
ATOM     18  H   UNL     1      -1.076   9.562  19.442  0.00  0.00    +0.000 HD
BRANCH  15  19
ATOM     19  C   UNL     1      -1.504  11.575  19.005  0.00  0.00    +0.000 C 
BRANCH  19  20
ATOM     20  C   UNL     1      -2.589  11.550  17.932  0.00  0.00    +0.000 C 
BRANCH  20  21
ATOM     21  O   UNL     1      -2.092  10.858  16.779  0.00  0.00    +0.000 OA
BRANCH  21  23
ATOM     22  C   UNL     1      -3.016  10.120  14.700  0.00  0.00    +0.000 C 
ATOM     23  C   UNL     1      -3.084  10.004  16.211  0.00  0.00    +0.000 C 
ENDBRANCH  21  23
ENDBRANCH  20  21
ENDBRANCH  19  20
ENDBRANCH  15  19
ENDBRANCH   1  16
TORSDOF 7
ENDMDL
MODEL 9
REMARK VINA RESULT:      -6.9      5.046      8.344
REMARK  Name = 
REMARK  10 active torsions:
REMARK  status: ('A' for Active; 'I' for Inactive)
REMARK    1  A    between atoms: C_1  and  C_2
REMARK    2  A    between atoms: C_2  and  O_3
REMARK    3  A    between atoms: O_3  and  C_4
REMARK    4  A    between atoms: C_4  and  C_5
REMARK    5  A    between atoms: C_5  and  N_6
REMARK    6  A    between atoms: C_7  and  C_9
REMARK    7  A    between atoms: C_12  and  C_13
REMARK    8  A    between atoms: N_17  and  C_18
REMARK    9  A    between atoms: C_18  and  C_19
REMARK   10  A    between atoms: C_18  and  C_20
REMARK                            x       y       z     vdW  Elec       q    Type
REMARK                         _______ _______ _______ _____ _____    ______ ____
ROOT
ATOM      1  C   UNL     1       1.372   9.198  19.065  0.00  0.00    +0.000 A 
ATOM      2  C   UNL     1       1.386   8.432  20.231  0.00  0.00    +0.000 A 
ATOM      3  C   UNL     1       2.074   7.217  20.268  0.00  0.00    +0.000 A 
ATOM      4  C   UNL     1       2.788   6.750  19.161  0.00  0.00    +0.000 A 
ATOM      5  C   UNL     1       2.763   7.531  17.990  0.00  0.00    +0.000 A 
ATOM      6  C   UNL     1       2.052   8.740  17.937  0.00  0.00    +0.000 A 
ENDROOT
BRANCH   4   7
ATOM      7  C   UNL     1       3.477   5.448  19.137  0.00  0.00    +0.000 A 
ATOM      8  N   UNL     1       4.784   5.333  18.958  0.00  0.00    +0.000 NA
ATOM      9  C   UNL     1       5.004   3.996  18.912  0.00  0.00    +0.000 A 
ATOM     10  N   UNL     1       3.929   3.243  19.109  0.00  0.00    +0.000 NA
ATOM     11  N   UNL     1       2.953   4.169  19.268  0.00  0.00    +0.000 N 
BRANCH  11  12
ATOM     12  C   UNL     1       1.573   3.716  19.424  0.00  0.00    +0.000 C 
ATOM     13  C   UNL     1       1.214   2.508  18.543  0.00  0.00    +0.000 C 
ATOM     14  C   UNL     1       1.194   3.389  20.873  0.00  0.00    +0.000 C 
ENDBRANCH  11  12
ENDBRANCH   4   7
BRANCH   1  16
ATOM     15  N   UNL     1      -0.708  10.357  19.535  0.00  0.00    +0.000 N 
ATOM     16  C   UNL     1       0.558  10.443  19.000  0.00  0.00    +0.000 C 
ATOM     17  O   UNL     1       1.021  11.460  18.494  0.00  0.00    +0.000 OA
ATOM     18  H   UNL     1      -0.879   9.649  20.238  0.00  0.00    +0.000 HD
BRANCH  15  19
ATOM     19  C   UNL     1      -1.577  11.517  19.571  0.00  0.00    +0.000 C 
BRANCH  19  20
ATOM     20  C   UNL     1      -1.642  12.129  20.967  0.00  0.00    +0.000 C 
BRANCH  20  21
ATOM     21  O   UNL     1      -0.621  11.540  21.784  0.00  0.00    +0.000 OA
BRANCH  21  23
ATOM     22  C   UNL     1      -0.355   9.728  23.323  0.00  0.00    +0.000 C 
ATOM     23  C   UNL     1      -1.167  10.958  22.967  0.00  0.00    +0.000 C 
ENDBRANCH  21  23
ENDBRANCH  20  21
ENDBRANCH  19  20
ENDBRANCH  15  19
ENDBRANCH   1  16
TORSDOF 7
ENDMDL
