MODEL 1
REMARK VINA RESULT:      -6.2      0.000      0.000
REMARK  Name = 
REMARK  10 active torsions:
REMARK  status: ('A' for Active; 'I' for Inactive)
REMARK    1  A    between atoms: C_1  and  O_2
REMARK    2  A    between atoms: O_2  and  C_3
REMARK    3  A    between atoms: C_4  and  O_5
REMARK    4  A    between atoms: O_5  and  C_6
REMARK    5  A    between atoms: C_7  and  O_8
REMARK    6  A    between atoms: O_8  and  C_9
REMARK    7  A    between atoms: C_11  and  O_12
REMARK    8  A    between atoms: O_12  and  C_13
REMARK    9  A    between atoms: C_21  and  O_22
REMARK   10  A    between atoms: O_22  and  C_23
REMARK                            x       y       z     vdW  Elec       q    Type
REMARK                         _______ _______ _______ _____ _____    ______ ____
ROOT
ATOM      1  C   UNL     1       5.069   4.842  18.076  0.00  0.00    +0.000 A 
ATOM      2  C   UNL     1       4.498   4.440  19.286  0.00  0.00    +0.000 A 
ATOM      3  C   UNL     1       3.421   5.175  19.849  0.00  0.00    +0.000 A 
ATOM      4  C   UNL     1       2.975   6.453  19.312  0.00  0.00    +0.000 A 
ATOM      5  C   UNL     1       1.936   7.371  19.802  0.00  0.00    +0.000 A 
ATOM      6  C   UNL     1       1.709   8.563  19.083  0.00  0.00    +0.000 A 
ATOM      7  C   UNL     1       0.844   9.690  19.229  0.00  0.00    +0.000 A 
ATOM      8  C   UNL     1       1.133  10.532  18.178  0.00  0.00    +0.000 A 
ATOM      9  O   UNL     1       2.115  10.000  17.402  0.00  0.00    +0.000 OA
ATOM     10  C   UNL     1       2.465   8.805  17.960  0.00  0.00    +0.000 A 
ATOM     11  N   UNL     1       3.407   8.015  17.463  0.00  0.00    +0.000 NA
ATOM     12  C   UNL     1       3.651   6.871  18.122  0.00  0.00    +0.000 A 
ATOM     13  C   UNL     1       4.661   6.069  17.521  0.00  0.00    +0.000 A 
ENDROOT
BRANCH   1  15
ATOM     14  C   UNL     1       7.424   4.510  17.663  0.00  0.00    +0.000 C 
ATOM     15  O   UNL     1       6.063   4.143  17.443  0.00  0.00    +0.000 OA
ENDBRANCH   1  15
BRANCH   2  16
ATOM     16  O   UNL     1       4.927   3.288  19.904  0.00  0.00    +0.000 OA
ATOM     17  C   UNL     1       4.256   2.109  19.454  0.00  0.00    +0.000 C 
ENDBRANCH   2  16
BRANCH   3  18
ATOM     18  O   UNL     1       2.717   4.744  20.937  0.00  0.00    +0.000 OA
ATOM     19  C   UNL     1       1.561   3.928  20.850  0.00  0.00    +0.000 C 
ENDBRANCH   3  18
BRANCH   5  20
ATOM     20  O   UNL     1       1.089   7.328  20.855  0.00  0.00    +0.000 OA
ATOM     21  C   UNL     1       0.970   8.244  21.911  0.00  0.00    +0.000 C 
ENDBRANCH   5  20
BRANCH  13  22
ATOM     22  O   UNL     1       5.163   6.631  16.359  0.00  0.00    +0.000 OA
ATOM     23  C   UNL     1       5.249   5.909  15.147  0.00  0.00    +0.000 C 
ENDBRANCH  13  22
TORSDOF 5
ENDMDL
MODEL 2
REMARK VINA RESULT:      -5.7      5.130      8.080
REMARK  Name = 
REMARK  10 active torsions:
REMARK  status: ('A' for Active; 'I' for Inactive)
REMARK    1  A    between atoms: C_1  and  O_2
REMARK    2  A    between atoms: O_2  and  C_3
REMARK    3  A    between atoms: C_4  and  O_5
REMARK    4  A    between atoms: O_5  and  C_6
REMARK    5  A    between atoms: C_7  and  O_8
REMARK    6  A    between atoms: O_8  and  C_9
REMARK    7  A    between atoms: C_11  and  O_12
REMARK    8  A    between atoms: O_12  and  C_13
REMARK    9  A    between atoms: C_21  and  O_22
REMARK   10  A    between atoms: O_22  and  C_23
REMARK                            x       y       z     vdW  Elec       q    Type
REMARK                         _______ _______ _______ _____ _____    ______ ____
ROOT
ATOM      1  C   UNL     1      -0.022  10.945  20.805  0.00  0.00    +0.000 A 
ATOM      2  C   UNL     1      -1.014  11.811  21.271  0.00  0.00    +0.000 A 
ATOM      3  C   UNL     1      -2.204  12.008  20.521  0.00  0.00    +0.000 A 
ATOM      4  C   UNL     1      -2.384  11.476  19.178  0.00  0.00    +0.000 A 
ATOM      5  C   UNL     1      -3.506  11.638  18.241  0.00  0.00    +0.000 A 
ATOM      6  C   UNL     1      -3.418  11.011  16.981  0.00  0.00    +0.000 A 
ATOM      7  C   UNL     1      -4.245  10.940  15.820  0.00  0.00    +0.000 A 
ATOM      8  C   UNL     1      -3.563  10.161  14.912  0.00  0.00    +0.000 A 
ATOM      9  O   UNL     1      -2.376   9.752  15.436  0.00  0.00    +0.000 OA
ATOM     10  C   UNL     1      -2.291  10.277  16.693  0.00  0.00    +0.000 A 
ATOM     11  N   UNL     1      -1.252  10.086  17.495  0.00  0.00    +0.000 NA
ATOM     12  C   UNL     1      -1.302  10.669  18.703  0.00  0.00    +0.000 A 
ATOM     13  C   UNL     1      -0.162  10.406  19.512  0.00  0.00    +0.000 A 
ENDROOT
BRANCH   1  15
ATOM     14  C   UNL     1       1.184   9.451  22.268  0.00  0.00    +0.000 C 
ATOM     15  O   UNL     1       1.118  10.657  21.508  0.00  0.00    +0.000 OA
ENDBRANCH   1  15
BRANCH   2  16
ATOM     16  O   UNL     1      -0.877  12.425  22.495  0.00  0.00    +0.000 OA
ATOM     17  C   UNL     1      -0.240  13.703  22.431  0.00  0.00    +0.000 C 
ENDBRANCH   2  16
BRANCH   3  18
ATOM     18  O   UNL     1      -3.274  12.710  20.998  0.00  0.00    +0.000 OA
ATOM     19  C   UNL     1      -3.390  14.119  20.911  0.00  0.00    +0.000 C 
ENDBRANCH   3  18
BRANCH   5  20
ATOM     20  O   UNL     1      -4.686  12.294  18.321  0.00  0.00    +0.000 OA
ATOM     21  C   UNL     1      -5.876  11.867  18.932  0.00  0.00    +0.000 C 
ENDBRANCH   5  20
BRANCH  13  22
ATOM     22  O   UNL     1       0.753   9.574  18.887  0.00  0.00    +0.000 OA
ATOM     23  C   UNL     1       1.875  10.075  18.189  0.00  0.00    +0.000 C 
ENDBRANCH  13  22
TORSDOF 5
ENDMDL
MODEL 3
REMARK VINA RESULT:      -5.6      7.145     11.027
REMARK  Name = 
REMARK  10 active torsions:
REMARK  status: ('A' for Active; 'I' for Inactive)
REMARK    1  A    between atoms: C_1  and  O_2
REMARK    2  A    between atoms: O_2  and  C_3
REMARK    3  A    between atoms: C_4  and  O_5
REMARK    4  A    between atoms: O_5  and  C_6
REMARK    5  A    between atoms: C_7  and  O_8
REMARK    6  A    between atoms: O_8  and  C_9
REMARK    7  A    between atoms: C_11  and  O_12
REMARK    8  A    between atoms: O_12  and  C_13
REMARK    9  A    between atoms: C_21  and  O_22
REMARK   10  A    between atoms: O_22  and  C_23
REMARK                            x       y       z     vdW  Elec       q    Type
REMARK                         _______ _______ _______ _____ _____    ______ ____
ROOT
ATOM      1  C   UNL     1      -5.803  13.074  21.832  0.00  0.00    +0.000 A 
ATOM      2  C   UNL     1      -4.511  13.036  22.361  0.00  0.00    +0.000 A 
ATOM      3  C   UNL     1      -3.403  12.738  21.524  0.00  0.00    +0.000 A 
ATOM      4  C   UNL     1      -3.556  12.292  20.146  0.00  0.00    +0.000 A 
ATOM      5  C   UNL     1      -2.537  11.878  19.170  0.00  0.00    +0.000 A 
ATOM      6  C   UNL     1      -2.967  11.481  17.887  0.00  0.00    +0.000 A 
ATOM      7  C   UNL     1      -2.328  11.004  16.702  0.00  0.00    +0.000 A 
ATOM      8  C   UNL     1      -3.334  10.779  15.790  0.00  0.00    +0.000 A 
ATOM      9  O   UNL     1      -4.543  11.082  16.334  0.00  0.00    +0.000 OA
ATOM     10  C   UNL     1      -4.314  11.503  17.612  0.00  0.00    +0.000 A 
ATOM     11  N   UNL     1      -5.279  11.873  18.443  0.00  0.00    +0.000 NA
ATOM     12  C   UNL     1      -4.906  12.258  19.674  0.00  0.00    +0.000 A 
ATOM     13  C   UNL     1      -5.992  12.656  20.502  0.00  0.00    +0.000 A 
ENDROOT
BRANCH   1  15
ATOM     14  C   UNL     1      -7.752  12.395  23.085  0.00  0.00    +0.000 C 
ATOM     15  O   UNL     1      -6.908  13.421  22.566  0.00  0.00    +0.000 OA
ENDBRANCH   1  15
BRANCH   2  16
ATOM     16  O   UNL     1      -4.294  13.359  23.681  0.00  0.00    +0.000 OA
ATOM     17  C   UNL     1      -4.486  12.264  24.580  0.00  0.00    +0.000 C 
ENDBRANCH   2  16
BRANCH   3  18
ATOM     18  O   UNL     1      -2.107  12.845  21.942  0.00  0.00    +0.000 OA
ATOM     19  C   UNL     1      -1.458  11.873  22.743  0.00  0.00    +0.000 C 
ENDBRANCH   3  18
BRANCH   5  20
ATOM     20  O   UNL     1      -1.189  11.791  19.226  0.00  0.00    +0.000 OA
ATOM     21  C   UNL     1      -0.405  10.672  19.549  0.00  0.00    +0.000 C 
ENDBRANCH   5  20
BRANCH  13  22
ATOM     22  O   UNL     1      -7.212  12.587  19.848  0.00  0.00    +0.000 OA
ATOM     23  C   UNL     1      -7.916  13.743  19.441  0.00  0.00    +0.000 C 
ENDBRANCH  13  22
TORSDOF 5
ENDMDL
MODEL 4
REMARK VINA RESULT:      -5.5      7.650     10.609
REMARK  Name = 
REMARK  10 active torsions:
REMARK  status: ('A' for Active; 'I' for Inactive)
REMARK    1  A    between atoms: C_1  and  O_2
REMARK    2  A    between atoms: O_2  and  C_3
REMARK    3  A    between atoms: C_4  and  O_5
REMARK    4  A    between atoms: O_5  and  C_6
REMARK    5  A    between atoms: C_7  and  O_8
REMARK    6  A    between atoms: O_8  and  C_9
REMARK    7  A    between atoms: C_11  and  O_12
REMARK    8  A    between atoms: O_12  and  C_13
REMARK    9  A    between atoms: C_21  and  O_22
REMARK   10  A    between atoms: O_22  and  C_23
REMARK                            x       y       z     vdW  Elec       q    Type
REMARK                         _______ _______ _______ _____ _____    ______ ____
ROOT
ATOM      1  C   UNL     1      -3.218  12.937  22.288  0.00  0.00    +0.000 A 
ATOM      2  C   UNL     1      -4.589  13.136  22.114  0.00  0.00    +0.000 A 
ATOM      3  C   UNL     1      -5.224  12.728  20.910  0.00  0.00    +0.000 A 
ATOM      4  C   UNL     1      -4.482  12.256  19.750  0.00  0.00    +0.000 A 
ATOM      5  C   UNL     1      -4.965  11.864  18.417  0.00  0.00    +0.000 A 
ATOM      6  C   UNL     1      -4.015  11.445  17.462  0.00  0.00    +0.000 A 
ATOM      7  C   UNL     1      -4.061  11.020  16.100  0.00  0.00    +0.000 A 
ATOM      8  C   UNL     1      -2.759  10.760  15.736  0.00  0.00    +0.000 A 
ATOM      9  O   UNL     1      -1.920  10.997  16.780  0.00  0.00    +0.000 OA
ATOM     10  C   UNL     1      -2.688  11.419  17.826  0.00  0.00    +0.000 A 
ATOM     11  N   UNL     1      -2.193  11.750  19.010  0.00  0.00    +0.000 NA
ATOM     12  C   UNL     1      -3.068  12.155  19.944  0.00  0.00    +0.000 A 
ATOM     13  C   UNL     1      -2.466  12.476  21.192  0.00  0.00    +0.000 A 
ENDROOT
BRANCH   1  15
ATOM     14  C   UNL     1      -1.929  14.519  23.578  0.00  0.00    +0.000 C 
ATOM     15  O   UNL     1      -2.554  13.243  23.447  0.00  0.00    +0.000 OA
ENDBRANCH   1  15
BRANCH   2  16
ATOM     16  O   UNL     1      -5.348  13.662  23.134  0.00  0.00    +0.000 OA
ATOM     17  C   UNL     1      -5.569  15.070  23.020  0.00  0.00    +0.000 C 
ENDBRANCH   2  16
BRANCH   3  18
ATOM     18  O   UNL     1      -6.580  12.745  20.744  0.00  0.00    +0.000 OA
ATOM     19  C   UNL     1      -7.439  11.714  21.201  0.00  0.00    +0.000 C 
ENDBRANCH   3  18
BRANCH   5  20
ATOM     20  O   UNL     1      -6.196  11.807  17.862  0.00  0.00    +0.000 OA
ATOM     21  C   UNL     1      -6.971  12.864  17.358  0.00  0.00    +0.000 C 
ENDBRANCH   5  20
BRANCH  13  22
ATOM     22  O   UNL     1      -1.095  12.276  21.186  0.00  0.00    +0.000 OA
ATOM     23  C   UNL     1      -0.481  11.236  21.921  0.00  0.00    +0.000 C 
ENDBRANCH  13  22
TORSDOF 5
ENDMDL
MODEL 5
REMARK VINA RESULT:      -5.5      1.563      3.944
REMARK  Name = 
REMARK  10 active torsions:
REMARK  status: ('A' for Active; 'I' for Inactive)
REMARK    1  A    between atoms: C_1  and  O_2
REMARK    2  A    between atoms: O_2  and  C_3
REMARK    3  A    between atoms: C_4  and  O_5
REMARK    4  A    between atoms: O_5  and  C_6
REMARK    5  A    between atoms: C_7  and  O_8
REMARK    6  A    between atoms: O_8  and  C_9
REMARK    7  A    between atoms: C_11  and  O_12
REMARK    8  A    between atoms: O_12  and  C_13
REMARK    9  A    between atoms: C_21  and  O_22
REMARK   10  A    between atoms: O_22  and  C_23
REMARK                            x       y       z     vdW  Elec       q    Type
REMARK                         _______ _______ _______ _____ _____    ______ ____
ROOT
ATOM      1  C   UNL     1       3.932   3.779  19.278  0.00  0.00    +0.000 A 
ATOM      2  C   UNL     1       4.396   4.545  18.206  0.00  0.00    +0.000 A 
ATOM      3  C   UNL     1       4.031   5.912  18.091  0.00  0.00    +0.000 A 
ATOM      4  C   UNL     1       3.040   6.537  18.956  0.00  0.00    +0.000 A 
ATOM      5  C   UNL     1       2.497   7.904  18.935  0.00  0.00    +0.000 A 
ATOM      6  C   UNL     1       1.527   8.249  19.899  0.00  0.00    +0.000 A 
ATOM      7  C   UNL     1       0.760   9.416  20.198  0.00  0.00    +0.000 A 
ATOM      8  C   UNL     1      -0.031   9.088  21.276  0.00  0.00    +0.000 A 
ATOM      9  O   UNL     1       0.197   7.802  21.656  0.00  0.00    +0.000 OA
ATOM     10  C   UNL     1       1.141   7.294  20.811  0.00  0.00    +0.000 A 
ATOM     11  N   UNL     1       1.598   6.053  20.888  0.00  0.00    +0.000 NA
ATOM     12  C   UNL     1       2.523   5.688  19.986  0.00  0.00    +0.000 A 
ATOM     13  C   UNL     1       2.977   4.349  20.140  0.00  0.00    +0.000 A 
ENDROOT
BRANCH   1  15
ATOM     14  C   UNL     1       3.681   1.445  18.718  0.00  0.00    +0.000 C 
ATOM     15  O   UNL     1       4.298   2.476  19.487  0.00  0.00    +0.000 OA
ENDBRANCH   1  15
BRANCH   2  16
ATOM     16  O   UNL     1       5.268   3.999  17.292  0.00  0.00    +0.000 OA
ATOM     17  C   UNL     1       4.694   3.798  15.997  0.00  0.00    +0.000 C 
ENDBRANCH   2  16
BRANCH   3  18
ATOM     18  O   UNL     1       4.579   6.752  17.163  0.00  0.00    +0.000 OA
ATOM     19  C   UNL     1       5.932   7.173  17.190  0.00  0.00    +0.000 C 
ENDBRANCH   3  18
BRANCH   5  20
ATOM     20  O   UNL     1       2.736   8.979  18.151  0.00  0.00    +0.000 OA
ATOM     21  C   UNL     1       1.817   9.929  17.678  0.00  0.00    +0.000 C 
ENDBRANCH   5  20
BRANCH  13  22
ATOM     22  O   UNL     1       2.383   3.708  21.216  0.00  0.00    +0.000 OA
ATOM     23  C   UNL     1       1.287   2.830  21.060  0.00  0.00    +0.000 C 
ENDBRANCH  13  22
TORSDOF 5
ENDMDL
MODEL 6
REMARK VINA RESULT:      -5.5      6.344     10.212
REMARK  Name = 
REMARK  10 active torsions:
REMARK  status: ('A' for Active; 'I' for Inactive)
REMARK    1  A    between atoms: C_1  and  O_2
REMARK    2  A    between atoms: O_2  and  C_3
REMARK    3  A    between atoms: C_4  and  O_5
REMARK    4  A    between atoms: O_5  and  C_6
REMARK    5  A    between atoms: C_7  and  O_8
REMARK    6  A    between atoms: O_8  and  C_9
REMARK    7  A    between atoms: C_11  and  O_12
REMARK    8  A    between atoms: O_12  and  C_13
REMARK    9  A    between atoms: C_21  and  O_22
REMARK   10  A    between atoms: O_22  and  C_23
REMARK                            x       y       z     vdW  Elec       q    Type
REMARK                         _______ _______ _______ _____ _____    ______ ____
ROOT
ATOM      1  C   UNL     1      -3.708  13.125  22.118  0.00  0.00    +0.000 A 
ATOM      2  C   UNL     1      -2.348  12.819  22.211  0.00  0.00    +0.000 A 
ATOM      3  C   UNL     1      -1.636  12.368  21.068  0.00  0.00    +0.000 A 
ATOM      4  C   UNL     1      -2.294  12.035  19.812  0.00  0.00    +0.000 A 
ATOM      5  C   UNL     1      -1.729  11.495  18.566  0.00  0.00    +0.000 A 
ATOM      6  C   UNL     1      -2.606  11.256  17.487  0.00  0.00    +0.000 A 
ATOM      7  C   UNL     1      -2.472  10.736  16.164  0.00  0.00    +0.000 A 
ATOM      8  C   UNL     1      -3.737  10.752  15.618  0.00  0.00    +0.000 A 
ATOM      9  O   UNL     1      -4.633  11.243  16.515  0.00  0.00    +0.000 OA
ATOM     10  C   UNL     1      -3.941  11.542  17.653  0.00  0.00    +0.000 A 
ATOM     11  N   UNL     1      -4.508  12.038  18.744  0.00  0.00    +0.000 NA
ATOM     12  C   UNL     1      -3.703  12.278  19.791  0.00  0.00    +0.000 A 
ATOM     13  C   UNL     1      -4.379  12.823  20.918  0.00  0.00    +0.000 A 
ENDROOT
BRANCH   1  15
ATOM     14  C   UNL     1      -4.742  15.023  23.194  0.00  0.00    +0.000 C 
ATOM     15  O   UNL     1      -4.440  13.629  23.161  0.00  0.00    +0.000 OA
ENDBRANCH   1  15
BRANCH   2  16
ATOM     16  O   UNL     1      -1.672  13.022  23.392  0.00  0.00    +0.000 OA
ATOM     17  C   UNL     1      -1.184  14.356  23.554  0.00  0.00    +0.000 C 
ENDBRANCH   2  16
BRANCH   3  18
ATOM     18  O   UNL     1      -0.279  12.211  21.053  0.00  0.00    +0.000 OA
ATOM     19  C   UNL     1       0.628  13.252  20.733  0.00  0.00    +0.000 C 
ENDBRANCH   3  18
BRANCH   5  20
ATOM     20  O   UNL     1      -0.475  11.157  18.192  0.00  0.00    +0.000 OA
ATOM     21  C   UNL     1       0.247  10.000  18.525  0.00  0.00    +0.000 C 
ENDBRANCH   5  20
BRANCH  13  22
ATOM     22  O   UNL     1      -5.731  13.018  20.684  0.00  0.00    +0.000 OA
ATOM     23  C   UNL     1      -6.722  12.183  21.248  0.00  0.00    +0.000 C 
ENDBRANCH  13  22
TORSDOF 5
ENDMDL
MODEL 7
REMARK VINA RESULT:      -5.5      8.139     10.041
REMARK  Name = 
REMARK  10 active torsions:
REMARK  status: ('A' for Active; 'I' for Inactive)
REMARK    1  A    between atoms: C_1  and  O_2
REMARK    2  A    between atoms: O_2  and  C_3
REMARK    3  A    between atoms: C_4  and  O_5
REMARK    4  A    between atoms: O_5  and  C_6
REMARK    5  A    between atoms: C_7  and  O_8
REMARK    6  A    between atoms: O_8  and  C_9
REMARK    7  A    between atoms: C_11  and  O_12
REMARK    8  A    between atoms: O_12  and  C_13
REMARK    9  A    between atoms: C_21  and  O_22
REMARK   10  A    between atoms: O_22  and  C_23
REMARK                            x       y       z     vdW  Elec       q    Type
REMARK                         _______ _______ _______ _____ _____    ______ ____
ROOT
ATOM      1  C   UNL     1      -2.098  12.936  22.102  0.00  0.00    +0.000 A 
ATOM      2  C   UNL     1      -3.477  13.094  22.259  0.00  0.00    +0.000 A 
ATOM      3  C   UNL     1      -4.366  12.686  21.229  0.00  0.00    +0.000 A 
ATOM      4  C   UNL     1      -3.905  12.256  19.916  0.00  0.00    +0.000 A 
ATOM      5  C   UNL     1      -4.677  11.871  18.725  0.00  0.00    +0.000 A 
ATOM      6  C   UNL     1      -3.968  11.497  17.565  0.00  0.00    +0.000 A 
ATOM      7  C   UNL     1      -4.322  11.093  16.242  0.00  0.00    +0.000 A 
ATOM      8  C   UNL     1      -3.135  10.880  15.577  0.00  0.00    +0.000 A 
ATOM      9  O   UNL     1      -2.081  11.127  16.399  0.00  0.00    +0.000 OA
ATOM     10  C   UNL     1      -2.593  11.508  17.606  0.00  0.00    +0.000 A 
ATOM     11  N   UNL     1      -1.842  11.835  18.648  0.00  0.00    +0.000 NA
ATOM     12  C   UNL     1      -2.483  12.197  19.771  0.00  0.00    +0.000 A 
ATOM     13  C   UNL     1      -1.613  12.518  20.849  0.00  0.00    +0.000 A 
ENDROOT
BRANCH   1  15
ATOM     14  C   UNL     1      -0.890  14.614  23.348  0.00  0.00    +0.000 C 
ATOM     15  O   UNL     1      -1.189  13.245  23.079  0.00  0.00    +0.000 OA
ENDBRANCH   1  15
BRANCH   2  16
ATOM     16  O   UNL     1      -3.988  13.580  23.440  0.00  0.00    +0.000 OA
ATOM     17  C   UNL     1      -4.211  12.571  24.429  0.00  0.00    +0.000 C 
ENDBRANCH   2  16
BRANCH   3  18
ATOM     18  O   UNL     1      -5.723  12.662  21.387  0.00  0.00    +0.000 OA
ATOM     19  C   UNL     1      -6.546  13.810  21.273  0.00  0.00    +0.000 C 
ENDBRANCH   3  18
BRANCH   5  20
ATOM     20  O   UNL     1      -6.003  11.783  18.474  0.00  0.00    +0.000 OA
ATOM     21  C   UNL     1      -6.871  10.717  18.757  0.00  0.00    +0.000 C 
ENDBRANCH   5  20
BRANCH  13  22
ATOM     22  O   UNL     1      -0.277  12.361  20.517  0.00  0.00    +0.000 OA
ATOM     23  C   UNL     1       0.557  13.459  20.204  0.00  0.00    +0.000 C 
ENDBRANCH  13  22
TORSDOF 5
ENDMDL
MODEL 8
REMARK VINA RESULT:      -5.4      1.233      5.336
REMARK  Name = 
REMARK  10 active torsions:
REMARK  status: ('A' for Active; 'I' for Inactive)
REMARK    1  A    between atoms: C_1  and  O_2
REMARK    2  A    between atoms: O_2  and  C_3
REMARK    3  A    between atoms: C_4  and  O_5
REMARK    4  A    between atoms: O_5  and  C_6
REMARK    5  A    between atoms: C_7  and  O_8
REMARK    6  A    between atoms: O_8  and  C_9
REMARK    7  A    between atoms: C_11  and  O_12
REMARK    8  A    between atoms: O_12  and  C_13
REMARK    9  A    between atoms: C_21  and  O_22
REMARK   10  A    between atoms: O_22  and  C_23
REMARK                            x       y       z     vdW  Elec       q    Type
REMARK                         _______ _______ _______ _____ _____    ______ ____
ROOT
ATOM      1  C   UNL     1       1.376   9.004  19.462  0.00  0.00    +0.000 A 
ATOM      2  C   UNL     1       1.293   7.873  20.278  0.00  0.00    +0.000 A 
ATOM      3  C   UNL     1       2.122   6.748  20.027  0.00  0.00    +0.000 A 
ATOM      4  C   UNL     1       2.956   6.634  18.839  0.00  0.00    +0.000 A 
ATOM      5  C   UNL     1       3.812   5.525  18.390  0.00  0.00    +0.000 A 
ATOM      6  C   UNL     1       4.517   5.678  17.178  0.00  0.00    +0.000 A 
ATOM      7  C   UNL     1       5.402   4.865  16.407  0.00  0.00    +0.000 A 
ATOM      8  C   UNL     1       5.737   5.610  15.298  0.00  0.00    +0.000 A 
ATOM      9  O   UNL     1       5.117   6.820  15.337  0.00  0.00    +0.000 OA
ATOM     10  C   UNL     1       4.372   6.854  16.480  0.00  0.00    +0.000 A 
ATOM     11  N   UNL     1       3.625   7.890  16.835  0.00  0.00    +0.000 NA
ATOM     12  C   UNL     1       2.939   7.781  17.984  0.00  0.00    +0.000 A 
ATOM     13  C   UNL     1       2.175   8.936  18.306  0.00  0.00    +0.000 A 
ENDROOT
BRANCH   1  15
ATOM     14  C   UNL     1      -0.664  10.259  19.155  0.00  0.00    +0.000 C 
ATOM     15  O   UNL     1       0.656  10.149  19.686  0.00  0.00    +0.000 OA
ENDBRANCH   1  15
BRANCH   2  16
ATOM     16  O   UNL     1       0.459   7.869  21.372  0.00  0.00    +0.000 OA
ATOM     17  C   UNL     1       0.810   8.834  22.367  0.00  0.00    +0.000 C 
ENDBRANCH   2  16
BRANCH   3  18
ATOM     18  O   UNL     1       2.205   5.683  20.880  0.00  0.00    +0.000 OA
ATOM     19  C   UNL     1       1.329   4.571  20.833  0.00  0.00    +0.000 C 
ENDBRANCH   3  18
BRANCH   5  20
ATOM     20  O   UNL     1       4.100   4.312  18.914  0.00  0.00    +0.000 OA
ATOM     21  C   UNL     1       3.526   3.071  18.595  0.00  0.00    +0.000 C 
ENDBRANCH   5  20
BRANCH  13  22
ATOM     22  O   UNL     1       2.324   9.949  17.372  0.00  0.00    +0.000 OA
ATOM     23  C   UNL     1       2.608  11.282  17.744  0.00  0.00    +0.000 C 
ENDBRANCH  13  22
TORSDOF 5
ENDMDL
MODEL 9
REMARK VINA RESULT:      -5.4      8.059     10.419
REMARK  Name = 
REMARK  10 active torsions:
REMARK  status: ('A' for Active; 'I' for Inactive)
REMARK    1  A    between atoms: C_1  and  O_2
REMARK    2  A    between atoms: O_2  and  C_3
REMARK    3  A    between atoms: C_4  and  O_5
REMARK    4  A    between atoms: O_5  and  C_6
REMARK    5  A    between atoms: C_7  and  O_8
REMARK    6  A    between atoms: O_8  and  C_9
REMARK    7  A    between atoms: C_11  and  O_12
REMARK    8  A    between atoms: O_12  and  C_13
REMARK    9  A    between atoms: C_21  and  O_22
REMARK   10  A    between atoms: O_22  and  C_23
REMARK                            x       y       z     vdW  Elec       q    Type
REMARK                         _______ _______ _______ _____ _____    ______ ____
ROOT
ATOM      1  C   UNL     1      -3.169  11.841  18.532  0.00  0.00    +0.000 A 
ATOM      2  C   UNL     1      -2.164  12.204  19.432  0.00  0.00    +0.000 A 
ATOM      3  C   UNL     1      -2.486  12.499  20.783  0.00  0.00    +0.000 A 
ATOM      4  C   UNL     1      -3.857  12.612  21.259  0.00  0.00    +0.000 A 
ATOM      5  C   UNL     1      -4.367  12.973  22.590  0.00  0.00    +0.000 A 
ATOM      6  C   UNL     1      -5.764  13.014  22.779  0.00  0.00    +0.000 A 
ATOM      7  C   UNL     1      -6.635  13.329  23.866  0.00  0.00    +0.000 A 
ATOM      8  C   UNL     1      -7.916  13.186  23.383  0.00  0.00    +0.000 A 
ATOM      9  O   UNL     1      -7.890  12.808  22.076  0.00  0.00    +0.000 OA
ATOM     10  C   UNL     1      -6.578  12.711  21.713  0.00  0.00    +0.000 A 
ATOM     11  N   UNL     1      -6.181  12.370  20.495  0.00  0.00    +0.000 NA
ATOM     12  C   UNL     1      -4.857  12.321  20.278  0.00  0.00    +0.000 A 
ATOM     13  C   UNL     1      -4.508  11.932  18.955  0.00  0.00    +0.000 A 
ENDROOT
BRANCH   1  15
ATOM     14  C   UNL     1      -2.652  10.112  16.929  0.00  0.00    +0.000 C 
ATOM     15  O   UNL     1      -2.923  11.479  17.233  0.00  0.00    +0.000 OA
ENDBRANCH   1  15
BRANCH   2  16
ATOM     16  O   UNL     1      -0.847  12.208  19.034  0.00  0.00    +0.000 OA
ATOM     17  C   UNL     1      -0.398  13.474  18.542  0.00  0.00    +0.000 C 
ENDBRANCH   2  16
BRANCH   3  18
ATOM     18  O   UNL     1      -1.536  12.698  21.745  0.00  0.00    +0.000 OA
ATOM     19  C   UNL     1      -0.911  11.646  22.460  0.00  0.00    +0.000 C 
ENDBRANCH   3  18
BRANCH   5  20
ATOM     20  O   UNL     1      -3.759  13.293  23.755  0.00  0.00    +0.000 OA
ATOM     21  C   UNL     1      -3.206  14.526  24.135  0.00  0.00    +0.000 C 
ENDBRANCH   5  20
BRANCH  13  22
ATOM     22  O   UNL     1      -5.618  11.658  18.172  0.00  0.00    +0.000 OA
ATOM     23  C   UNL     1      -6.077  12.548  17.175  0.00  0.00    +0.000 C 
ENDBRANCH  13  22
TORSDOF 5
ENDMDL
