MODEL 1
REMARK VINA RESULT:      -6.3      0.000      0.000
REMARK  Name = 
REMARK  9 active torsions:
REMARK  status: ('A' for Active; 'I' for Inactive)
REMARK    1  A    between atoms: C_1  and  C_2
REMARK    2  A    between atoms: C_2  and  N_3
REMARK    3  A    between atoms: N_6  and  C_7
REMARK    4  A    between atoms: C_8  and  C_9
REMARK    5  A    between atoms: C_9  and  N_10
REMARK    6  A    between atoms: N_10  and  C_20
REMARK    7  A    between atoms: N_13  and  C_14
REMARK    8  A    between atoms: C_23  and  C_24
REMARK    9  A    between atoms: N_26  and  C_27
REMARK                            x       y       z     vdW  Elec       q    Type
REMARK                         _______ _______ _______ _____ _____    ______ ____
ROOT
ATOM      1  C   UNL     1      -0.264  12.538  18.823  0.00  0.00    +0.000 A 
ATOM      2  C   UNL     1       0.277  13.846  18.688  0.00  0.00    +0.000 A 
ATOM      3  C   UNL     1       1.688  13.666  18.823  0.00  0.00    +0.000 A 
ATOM      4  C   UNL     1       2.794  14.658  18.831  0.00  0.00    +0.000 C 
ATOM      5  N   UNL     1       2.024  12.392  18.982  0.00  0.00    +0.000 NA
ATOM      6  N   UNL     1       0.861  11.717  19.124  0.00  0.00    +0.000 N 
ENDROOT
BRANCH   1  10
ATOM      7  N   UNL     1      -4.400  11.732  18.010  0.00  0.00    +0.000 NA
ATOM      8  C   UNL     1      -3.390  10.837  17.415  0.00  0.00    +0.000 C 
ATOM      9  C   UNL     1      -2.030  11.578  17.361  0.00  0.00    +0.000 C 
ATOM     10  N   UNL     1      -1.560  12.007  18.730  0.00  0.00    +0.000 N 
ATOM     11  C   UNL     1      -2.653  12.651  19.494  0.00  0.00    +0.000 C 
ATOM     12  C   UNL     1      -4.010  11.903  19.419  0.00  0.00    +0.000 C 
BRANCH   7  14
ATOM     13  C   UNL     1      -6.626  11.005  18.957  0.00  0.00    +0.000 C 
ATOM     14  C   UNL     1      -5.766  11.298  17.727  0.00  0.00    +0.000 C 
ENDBRANCH   7  14
ENDBRANCH   1  10
BRANCH   6  15
ATOM     15  C   UNL     1       0.939  10.327  19.473  0.00  0.00    +0.000 A 
ATOM     16  C   UNL     1       1.546   9.383  18.637  0.00  0.00    +0.000 A 
ATOM     17  C   UNL     1       1.924   8.129  19.150  0.00  0.00    +0.000 A 
ATOM     18  C   UNL     1       1.638   7.802  20.475  0.00  0.00    +0.000 A 
ATOM     19  C   UNL     1       0.885   8.674  21.257  0.00  0.00    +0.000 A 
ATOM     20  C   UNL     1       0.518   9.928  20.752  0.00  0.00    +0.000 A 
ENDBRANCH   6  15
BRANCH   2  21
ATOM     21  C   UNL     1      -0.385  15.205  18.561  0.00  0.00    +0.000 C 
BRANCH  21  22
ATOM     22  N   UNL     1      -0.163  16.183  19.653  0.00  0.00    +0.000 N 
ATOM     23  C   UNL     1      -0.615  16.095  20.975  0.00  0.00    +0.000 C 
ATOM     24  O   UNL     1      -0.344  16.964  21.808  0.00  0.00    +0.000 OA
ATOM     25  N   UNL     1      -1.313  14.970  21.354  0.00  0.00    +0.000 N 
ATOM     26  H   UNL     1      -1.977  14.595  20.696  0.00  0.00    +0.000 HD
BRANCH  25  27
ATOM     27  C   UNL     1      -1.593  14.757  22.784  0.00  0.00    +0.000 C 
ATOM     28  C   UNL     1      -3.087  14.874  23.145  0.00  0.00    +0.000 C 
ATOM     29  C   UNL     1      -3.897  13.619  22.825  0.00  0.00    +0.000 C 
ATOM     30  C   UNL     1      -3.264  12.374  23.434  0.00  0.00    +0.000 C 
ATOM     31  C   UNL     1      -1.821  12.213  22.969  0.00  0.00    +0.000 C 
ATOM     32  C   UNL     1      -0.984  13.445  23.296  0.00  0.00    +0.000 C 
ENDBRANCH  25  27
BRANCH  22  33
ATOM     33  C   UNL     1       0.535  17.426  19.348  0.00  0.00    +0.000 C 
ATOM     34  C   UNL     1       1.057  17.893  18.025  0.00  0.00    +0.000 C 
ATOM     35  C   UNL     1      -0.205  18.490  18.558  0.00  0.00    +0.000 C 
ENDBRANCH  22  33
ENDBRANCH  21  22
ENDBRANCH   2  21
TORSDOF 7
ENDMDL
MODEL 2
REMARK VINA RESULT:      -6.2      1.946      6.661
REMARK  Name = 
REMARK  9 active torsions:
REMARK  status: ('A' for Active; 'I' for Inactive)
REMARK    1  A    between atoms: C_1  and  C_2
REMARK    2  A    between atoms: C_2  and  N_3
REMARK    3  A    between atoms: N_6  and  C_7
REMARK    4  A    between atoms: C_8  and  C_9
REMARK    5  A    between atoms: C_9  and  N_10
REMARK    6  A    between atoms: N_10  and  C_20
REMARK    7  A    between atoms: N_13  and  C_14
REMARK    8  A    between atoms: C_23  and  C_24
REMARK    9  A    between atoms: N_26  and  C_27
REMARK                            x       y       z     vdW  Elec       q    Type
REMARK                         _______ _______ _______ _____ _____    ______ ____
ROOT
ATOM      1  C   UNL     1      -3.015  12.477  19.897  0.00  0.00    +0.000 A 
ATOM      2  C   UNL     1      -2.093  11.865  19.005  0.00  0.00    +0.000 A 
ATOM      3  C   UNL     1      -2.897  11.409  17.915  0.00  0.00    +0.000 A 
ATOM      4  C   UNL     1      -2.530  10.644  16.695  0.00  0.00    +0.000 C 
ATOM      5  N   UNL     1      -4.177  11.723  18.063  0.00  0.00    +0.000 NA
ATOM      6  N   UNL     1      -4.291  12.240  19.307  0.00  0.00    +0.000 N 
ENDROOT
BRANCH   1  10
ATOM      7  N   UNL     1      -3.577  14.746  23.496  0.00  0.00    +0.000 NA
ATOM      8  C   UNL     1      -3.196  13.327  23.624  0.00  0.00    +0.000 C 
ATOM      9  C   UNL     1      -3.572  12.584  22.317  0.00  0.00    +0.000 C 
ATOM     10  N   UNL     1      -2.881  13.171  21.110  0.00  0.00    +0.000 N 
ATOM     11  C   UNL     1      -2.979  14.648  21.102  0.00  0.00    +0.000 C 
ATOM     12  C   UNL     1      -2.686  15.314  22.472  0.00  0.00    +0.000 C 
BRANCH   7  14
ATOM     13  C   UNL     1      -2.324  15.558  25.533  0.00  0.00    +0.000 C 
ATOM     14  C   UNL     1      -3.653  15.422  24.788  0.00  0.00    +0.000 C 
ENDBRANCH   7  14
ENDBRANCH   1  10
BRANCH   6  15
ATOM     15  C   UNL     1      -5.613  12.520  19.791  0.00  0.00    +0.000 A 
ATOM     16  C   UNL     1      -6.399  11.546  20.416  0.00  0.00    +0.000 A 
ATOM     17  C   UNL     1      -7.512  11.927  21.186  0.00  0.00    +0.000 A 
ATOM     18  C   UNL     1      -7.872  13.272  21.274  0.00  0.00    +0.000 A 
ATOM     19  C   UNL     1      -7.193  14.222  20.518  0.00  0.00    +0.000 A 
ATOM     20  C   UNL     1      -6.076  13.846  19.760  0.00  0.00    +0.000 A 
ENDBRANCH   6  15
BRANCH   2  21
ATOM     21  C   UNL     1      -0.607  11.584  19.124  0.00  0.00    +0.000 C 
BRANCH  21  22
ATOM     22  N   UNL     1       0.082  12.039  20.356  0.00  0.00    +0.000 N 
ATOM     23  C   UNL     1       0.567  13.324  20.630  0.00  0.00    +0.000 C 
ATOM     24  O   UNL     1       1.104  13.594  21.707  0.00  0.00    +0.000 OA
ATOM     25  N   UNL     1       0.364  14.312  19.694  0.00  0.00    +0.000 N 
ATOM     26  H   UNL     1       0.472  14.061  18.725  0.00  0.00    +0.000 HD
BRANCH  25  27
ATOM     27  C   UNL     1       0.659  15.709  20.061  0.00  0.00    +0.000 C 
ATOM     28  C   UNL     1       2.062  16.177  19.629  0.00  0.00    +0.000 C 
ATOM     29  C   UNL     1       2.153  16.572  18.156  0.00  0.00    +0.000 C 
ATOM     30  C   UNL     1       1.078  17.584  17.780  0.00  0.00    +0.000 C 
ATOM     31  C   UNL     1      -0.312  17.051  18.107  0.00  0.00    +0.000 C 
ATOM     32  C   UNL     1      -0.436  16.669  19.579  0.00  0.00    +0.000 C 
ENDBRANCH  25  27
BRANCH  22  33
ATOM     33  C   UNL     1       0.378  11.061  21.395  0.00  0.00    +0.000 C 
ATOM     34  C   UNL     1      -0.543  10.517  22.442  0.00  0.00    +0.000 C 
ATOM     35  C   UNL     1      -0.210   9.668  21.258  0.00  0.00    +0.000 C 
ENDBRANCH  22  33
ENDBRANCH  21  22
ENDBRANCH   2  21
TORSDOF 7
ENDMDL
MODEL 3
REMARK VINA RESULT:      -6.1      1.202      1.719
REMARK  Name = 
REMARK  9 active torsions:
REMARK  status: ('A' for Active; 'I' for Inactive)
REMARK    1  A    between atoms: C_1  and  C_2
REMARK    2  A    between atoms: C_2  and  N_3
REMARK    3  A    between atoms: N_6  and  C_7
REMARK    4  A    between atoms: C_8  and  C_9
REMARK    5  A    between atoms: C_9  and  N_10
REMARK    6  A    between atoms: N_10  and  C_20
REMARK    7  A    between atoms: N_13  and  C_14
REMARK    8  A    between atoms: C_23  and  C_24
REMARK    9  A    between atoms: N_26  and  C_27
REMARK                            x       y       z     vdW  Elec       q    Type
REMARK                         _______ _______ _______ _____ _____    ______ ____
ROOT
ATOM      1  C   UNL     1      -0.447  12.920  19.668  0.00  0.00    +0.000 A 
ATOM      2  C   UNL     1       0.192  14.139  19.314  0.00  0.00    +0.000 A 
ATOM      3  C   UNL     1       1.485  14.055  19.917  0.00  0.00    +0.000 A 
ATOM      4  C   UNL     1       2.600  15.035  19.959  0.00  0.00    +0.000 C 
ATOM      5  N   UNL     1       1.675  12.904  20.550  0.00  0.00    +0.000 NA
ATOM      6  N   UNL     1       0.482  12.268  20.530  0.00  0.00    +0.000 N 
ENDROOT
BRANCH   1  10
ATOM      7  N   UNL     1      -4.342  11.967  18.138  0.00  0.00    +0.000 NA
ATOM      8  C   UNL     1      -3.213  11.099  17.750  0.00  0.00    +0.000 C 
ATOM      9  C   UNL     1      -1.890  11.885  17.929  0.00  0.00    +0.000 C 
ATOM     10  N   UNL     1      -1.688  12.345  19.352  0.00  0.00    +0.000 N 
ATOM     11  C   UNL     1      -2.920  12.960  19.896  0.00  0.00    +0.000 C 
ATOM     12  C   UNL     1      -4.217  12.167  19.592  0.00  0.00    +0.000 C 
BRANCH   7  14
ATOM     13  C   UNL     1      -6.716  12.543  17.499  0.00  0.00    +0.000 C 
ATOM     14  C   UNL     1      -5.620  11.484  17.622  0.00  0.00    +0.000 C 
ENDBRANCH   7  14
ENDBRANCH   1  10
BRANCH   6  15
ATOM     15  C   UNL     1       0.363  11.057  21.291  0.00  0.00    +0.000 A 
ATOM     16  C   UNL     1      -0.335  11.004  22.502  0.00  0.00    +0.000 A 
ATOM     17  C   UNL     1      -0.736   9.763  23.029  0.00  0.00    +0.000 A 
ATOM     18  C   UNL     1      -0.384   8.582  22.378  0.00  0.00    +0.000 A 
ATOM     19  C   UNL     1       0.452   8.625  21.267  0.00  0.00    +0.000 A 
ATOM     20  C   UNL     1       0.843   9.860  20.733  0.00  0.00    +0.000 A 
ENDBRANCH   6  15
BRANCH   2  21
ATOM     21  C   UNL     1      -0.313  15.371  18.586  0.00  0.00    +0.000 C 
BRANCH  21  22
ATOM     22  N   UNL     1      -0.218  16.672  19.290  0.00  0.00    +0.000 N 
ATOM     23  C   UNL     1      -0.828  17.028  20.499  0.00  0.00    +0.000 C 
ATOM     24  O   UNL     1      -0.656  18.140  21.005  0.00  0.00    +0.000 OA
ATOM     25  N   UNL     1      -1.575  16.078  21.159  0.00  0.00    +0.000 N 
ATOM     26  H   UNL     1      -2.156  15.476  20.599  0.00  0.00    +0.000 HD
BRANCH  25  27
ATOM     27  C   UNL     1      -2.029  16.361  22.532  0.00  0.00    +0.000 C 
ATOM     28  C   UNL     1      -3.518  16.041  22.767  0.00  0.00    +0.000 C 
ATOM     29  C   UNL     1      -3.798  14.558  23.007  0.00  0.00    +0.000 C 
ATOM     30  C   UNL     1      -2.916  13.993  24.113  0.00  0.00    +0.000 C 
ATOM     31  C   UNL     1      -1.441  14.216  23.802  0.00  0.00    +0.000 C 
ATOM     32  C   UNL     1      -1.129  15.692  23.580  0.00  0.00    +0.000 C 
ENDBRANCH  25  27
BRANCH  22  33
ATOM     33  C   UNL     1       0.520  17.758  18.658  0.00  0.00    +0.000 C 
ATOM     34  C   UNL     1       1.195  17.763  17.322  0.00  0.00    +0.000 C 
ATOM     35  C   UNL     1      -0.116  18.464  17.473  0.00  0.00    +0.000 C 
ENDBRANCH  22  33
ENDBRANCH  21  22
ENDBRANCH   2  21
TORSDOF 7
ENDMDL
MODEL 4
REMARK VINA RESULT:      -6.1      1.997      6.942
REMARK  Name = 
REMARK  9 active torsions:
REMARK  status: ('A' for Active; 'I' for Inactive)
REMARK    1  A    between atoms: C_1  and  C_2
REMARK    2  A    between atoms: C_2  and  N_3
REMARK    3  A    between atoms: N_6  and  C_7
REMARK    4  A    between atoms: C_8  and  C_9
REMARK    5  A    between atoms: C_9  and  N_10
REMARK    6  A    between atoms: N_10  and  C_20
REMARK    7  A    between atoms: N_13  and  C_14
REMARK    8  A    between atoms: C_23  and  C_24
REMARK    9  A    between atoms: N_26  and  C_27
REMARK                            x       y       z     vdW  Elec       q    Type
REMARK                         _______ _______ _______ _____ _____    ______ ____
ROOT
ATOM      1  C   UNL     1      -2.478  12.749  19.925  0.00  0.00    +0.000 A 
ATOM      2  C   UNL     1      -1.820  11.881  19.011  0.00  0.00    +0.000 A 
ATOM      3  C   UNL     1      -2.874  11.328  18.220  0.00  0.00    +0.000 A 
ATOM      4  C   UNL     1      -2.841  10.315  17.134  0.00  0.00    +0.000 C 
ATOM      5  N   UNL     1      -4.065  11.811  18.552  0.00  0.00    +0.000 NA
ATOM      6  N   UNL     1      -3.865  12.558  19.662  0.00  0.00    +0.000 N 
ENDROOT
BRANCH   1  10
ATOM      7  N   UNL     1      -2.055  15.418  23.259  0.00  0.00    +0.000 NA
ATOM      8  C   UNL     1      -1.358  14.120  23.318  0.00  0.00    +0.000 C 
ATOM      9  C   UNL     1      -2.048  13.133  22.342  0.00  0.00    +0.000 C 
ATOM     10  N   UNL     1      -2.031  13.634  20.919  0.00  0.00    +0.000 N 
ATOM     11  C   UNL     1      -2.440  15.055  20.846  0.00  0.00    +0.000 C 
ATOM     12  C   UNL     1      -1.783  15.963  21.918  0.00  0.00    +0.000 C 
BRANCH   7  14
ATOM     13  C   UNL     1      -1.236  15.526  25.645  0.00  0.00    +0.000 C 
ATOM     14  C   UNL     1      -1.761  16.263  24.413  0.00  0.00    +0.000 C 
ENDBRANCH   7  14
ENDBRANCH   1  10
BRANCH   6  15
ATOM     15  C   UNL     1      -5.025  13.074  20.331  0.00  0.00    +0.000 A 
ATOM     16  C   UNL     1      -5.848  14.047  19.753  0.00  0.00    +0.000 A 
ATOM     17  C   UNL     1      -7.143  14.263  20.256  0.00  0.00    +0.000 A 
ATOM     18  C   UNL     1      -7.586  13.554  21.372  0.00  0.00    +0.000 A 
ATOM     19  C   UNL     1      -6.710  12.710  22.049  0.00  0.00    +0.000 A 
ATOM     20  C   UNL     1      -5.424  12.484  21.542  0.00  0.00    +0.000 A 
ENDBRANCH   6  15
BRANCH   2  21
ATOM     21  C   UNL     1      -0.370  11.455  18.888  0.00  0.00    +0.000 C 
BRANCH  21  22
ATOM     22  N   UNL     1       0.501  11.630  20.075  0.00  0.00    +0.000 N 
ATOM     23  C   UNL     1       1.406  12.671  20.316  0.00  0.00    +0.000 C 
ATOM     24  O   UNL     1       2.064  12.725  21.358  0.00  0.00    +0.000 OA
ATOM     25  N   UNL     1       1.496  13.686  19.390  0.00  0.00    +0.000 N 
ATOM     26  H   UNL     1       1.458  13.429  18.417  0.00  0.00    +0.000 HD
BRANCH  25  27
ATOM     27  C   UNL     1       2.266  14.895  19.735  0.00  0.00    +0.000 C 
ATOM     28  C   UNL     1       3.609  15.004  18.988  0.00  0.00    +0.000 C 
ATOM     29  C   UNL     1       3.477  15.527  17.559  0.00  0.00    +0.000 C 
ATOM     30  C   UNL     1       2.694  16.833  17.510  0.00  0.00    +0.000 C 
ATOM     31  C   UNL     1       1.320  16.669  18.148  0.00  0.00    +0.000 C 
ATOM     32  C   UNL     1       1.424  16.169  19.586  0.00  0.00    +0.000 C 
ENDBRANCH  25  27
BRANCH  22  33
ATOM     33  C   UNL     1       0.509  10.592  21.098  0.00  0.00    +0.000 C 
ATOM     34  C   UNL     1      -0.384   9.395  21.206  0.00  0.00    +0.000 C 
ATOM     35  C   UNL     1       1.017   9.212  20.717  0.00  0.00    +0.000 C 
ENDBRANCH  22  33
ENDBRANCH  21  22
ENDBRANCH   2  21
TORSDOF 7
ENDMDL
MODEL 5
REMARK VINA RESULT:      -6.0      1.881      6.948
REMARK  Name = 
REMARK  9 active torsions:
REMARK  status: ('A' for Active; 'I' for Inactive)
REMARK    1  A    between atoms: C_1  and  C_2
REMARK    2  A    between atoms: C_2  and  N_3
REMARK    3  A    between atoms: N_6  and  C_7
REMARK    4  A    between atoms: C_8  and  C_9
REMARK    5  A    between atoms: C_9  and  N_10
REMARK    6  A    between atoms: N_10  and  C_20
REMARK    7  A    between atoms: N_13  and  C_14
REMARK    8  A    between atoms: C_23  and  C_24
REMARK    9  A    between atoms: N_26  and  C_27
REMARK                            x       y       z     vdW  Elec       q    Type
REMARK                         _______ _______ _______ _____ _____    ______ ____
ROOT
ATOM      1  C   UNL     1      -2.529  12.673  19.773  0.00  0.00    +0.000 A 
ATOM      2  C   UNL     1      -1.763  11.835  18.918  0.00  0.00    +0.000 A 
ATOM      3  C   UNL     1      -2.735  11.091  18.181  0.00  0.00    +0.000 A 
ATOM      4  C   UNL     1      -2.568  10.014  17.171  0.00  0.00    +0.000 C 
ATOM      5  N   UNL     1      -3.979  11.434  18.490  0.00  0.00    +0.000 NA
ATOM      6  N   UNL     1      -3.879  12.281  19.540  0.00  0.00    +0.000 N 
ENDROOT
BRANCH   1  10
ATOM      7  N   UNL     1      -0.607  15.467  22.404  0.00  0.00    +0.000 NA
ATOM      8  C   UNL     1      -1.318  16.000  21.227  0.00  0.00    +0.000 C 
ATOM      9  C   UNL     1      -1.450  14.877  20.166  0.00  0.00    +0.000 C 
ATOM     10  N   UNL     1      -2.204  13.681  20.695  0.00  0.00    +0.000 N 
ATOM     11  C   UNL     1      -1.717  13.291  22.038  0.00  0.00    +0.000 C 
ATOM     12  C   UNL     1      -1.515  14.480  23.013  0.00  0.00    +0.000 C 
BRANCH   7  14
ATOM     13  C   UNL     1       1.439  16.730  23.173  0.00  0.00    +0.000 C 
ATOM     14  C   UNL     1      -0.073  16.523  23.259  0.00  0.00    +0.000 C 
ENDBRANCH   7  14
ENDBRANCH   1  10
BRANCH   6  15
ATOM     15  C   UNL     1      -5.097  12.686  20.183  0.00  0.00    +0.000 A 
ATOM     16  C   UNL     1      -6.258  12.982  19.460  0.00  0.00    +0.000 A 
ATOM     17  C   UNL     1      -7.503  13.020  20.113  0.00  0.00    +0.000 A 
ATOM     18  C   UNL     1      -7.574  12.826  21.492  0.00  0.00    +0.000 A 
ATOM     19  C   UNL     1      -6.404  12.700  22.235  0.00  0.00    +0.000 A 
ATOM     20  C   UNL     1      -5.164  12.649  21.586  0.00  0.00    +0.000 A 
ENDBRANCH   6  15
BRANCH   2  21
ATOM     21  C   UNL     1      -0.269  11.598  18.810  0.00  0.00    +0.000 C 
BRANCH  21  22
ATOM     22  N   UNL     1       0.543  11.759  20.039  0.00  0.00    +0.000 N 
ATOM     23  C   UNL     1       1.547  12.707  20.274  0.00  0.00    +0.000 C 
ATOM     24  O   UNL     1       2.143  12.762  21.353  0.00  0.00    +0.000 OA
ATOM     25  N   UNL     1       1.810  13.637  19.293  0.00  0.00    +0.000 N 
ATOM     26  H   UNL     1       1.801  13.316  18.338  0.00  0.00    +0.000 HD
BRANCH  25  27
ATOM     27  C   UNL     1       2.694  14.773  19.611  0.00  0.00    +0.000 C 
ATOM     28  C   UNL     1       3.957  14.837  18.731  0.00  0.00    +0.000 C 
ATOM     29  C   UNL     1       3.715  15.444  17.350  0.00  0.00    +0.000 C 
ATOM     30  C   UNL     1       3.023  16.798  17.447  0.00  0.00    +0.000 C 
ATOM     31  C   UNL     1       1.715  16.688  18.221  0.00  0.00    +0.000 C 
ATOM     32  C   UNL     1       1.931  16.104  19.613  0.00  0.00    +0.000 C 
ENDBRANCH  25  27
BRANCH  22  33
ATOM     33  C   UNL     1       0.368  10.803  21.125  0.00  0.00    +0.000 C 
ATOM     34  C   UNL     1      -0.415   9.527  21.116  0.00  0.00    +0.000 C 
ATOM     35  C   UNL     1       1.075   9.463  21.024  0.00  0.00    +0.000 C 
ENDBRANCH  22  33
ENDBRANCH  21  22
ENDBRANCH   2  21
TORSDOF 7
ENDMDL
MODEL 6
REMARK VINA RESULT:      -5.9      1.786      6.016
REMARK  Name = 
REMARK  9 active torsions:
REMARK  status: ('A' for Active; 'I' for Inactive)
REMARK    1  A    between atoms: C_1  and  C_2
REMARK    2  A    between atoms: C_2  and  N_3
REMARK    3  A    between atoms: N_6  and  C_7
REMARK    4  A    between atoms: C_8  and  C_9
REMARK    5  A    between atoms: C_9  and  N_10
REMARK    6  A    between atoms: N_10  and  C_20
REMARK    7  A    between atoms: N_13  and  C_14
REMARK    8  A    between atoms: C_23  and  C_24
REMARK    9  A    between atoms: N_26  and  C_27
REMARK                            x       y       z     vdW  Elec       q    Type
REMARK                         _______ _______ _______ _____ _____    ______ ____
ROOT
ATOM      1  C   UNL     1      -3.500  12.552  19.789  0.00  0.00    +0.000 A 
ATOM      2  C   UNL     1      -4.451  13.166  20.648  0.00  0.00    +0.000 A 
ATOM      3  C   UNL     1      -5.711  12.650  20.214  0.00  0.00    +0.000 A 
ATOM      4  C   UNL     1      -7.091  12.951  20.677  0.00  0.00    +0.000 C 
ATOM      5  N   UNL     1      -5.588  11.777  19.223  0.00  0.00    +0.000 NA
ATOM      6  N   UNL     1      -4.286  11.809  18.861  0.00  0.00    +0.000 N 
ENDROOT
BRANCH   1  10
ATOM      7  N   UNL     1       0.649  11.891  18.911  0.00  0.00    +0.000 NA
ATOM      8  C   UNL     1       0.052  13.179  18.510  0.00  0.00    +0.000 C 
ATOM      9  C   UNL     1      -1.485  13.012  18.408  0.00  0.00    +0.000 C 
ATOM     10  N   UNL     1      -2.098  12.573  19.716  0.00  0.00    +0.000 N 
ATOM     11  C   UNL     1      -1.334  11.457  20.318  0.00  0.00    +0.000 C 
ATOM     12  C   UNL     1       0.204  11.651  20.294  0.00  0.00    +0.000 C 
BRANCH   7  14
ATOM     13  C   UNL     1       2.713  13.137  18.161  0.00  0.00    +0.000 C 
ATOM     14  C   UNL     1       2.081  11.828  18.632  0.00  0.00    +0.000 C 
ENDBRANCH   7  14
ENDBRANCH   1  10
BRANCH   6  15
ATOM     15  C   UNL     1      -3.904  11.068  17.692  0.00  0.00    +0.000 A 
ATOM     16  C   UNL     1      -4.232  11.494  16.401  0.00  0.00    +0.000 A 
ATOM     17  C   UNL     1      -3.552  10.962  15.290  0.00  0.00    +0.000 A 
ATOM     18  C   UNL     1      -2.597   9.962  15.470  0.00  0.00    +0.000 A 
ATOM     19  C   UNL     1      -2.391   9.419  16.735  0.00  0.00    +0.000 A 
ATOM     20  C   UNL     1      -3.058   9.957  17.844  0.00  0.00    +0.000 A 
ENDBRANCH   6  15
BRANCH   2  21
ATOM     21  C   UNL     1      -4.306  14.229  21.720  0.00  0.00    +0.000 C 
BRANCH  21  22
ATOM     22  N   UNL     1      -3.013  14.307  22.441  0.00  0.00    +0.000 N 
ATOM     23  C   UNL     1      -1.893  15.071  22.093  0.00  0.00    +0.000 C 
ATOM     24  O   UNL     1      -0.873  15.076  22.788  0.00  0.00    +0.000 OA
ATOM     25  N   UNL     1      -1.977  15.886  20.986  0.00  0.00    +0.000 N 
ATOM     26  H   UNL     1      -2.459  15.523  20.180  0.00  0.00    +0.000 HD
BRANCH  25  27
ATOM     27  C   UNL     1      -0.900  16.862  20.740  0.00  0.00    +0.000 C 
ATOM     28  C   UNL     1      -0.002  16.501  19.540  0.00  0.00    +0.000 C 
ATOM     29  C   UNL     1      -0.609  16.867  18.186  0.00  0.00    +0.000 C 
ATOM     30  C   UNL     1      -1.049  18.325  18.146  0.00  0.00    +0.000 C 
ATOM     31  C   UNL     1      -2.030  18.631  19.272  0.00  0.00    +0.000 C 
ATOM     32  C   UNL     1      -1.440  18.294  20.638  0.00  0.00    +0.000 C 
ENDBRANCH  25  27
BRANCH  22  33
ATOM     33  C   UNL     1      -2.808  13.456  23.607  0.00  0.00    +0.000 C 
ATOM     34  C   UNL     1      -3.764  12.480  24.219  0.00  0.00    +0.000 C 
ATOM     35  C   UNL     1      -2.637  11.963  23.385  0.00  0.00    +0.000 C 
ENDBRANCH  22  33
ENDBRANCH  21  22
ENDBRANCH   2  21
TORSDOF 7
ENDMDL
MODEL 7
REMARK VINA RESULT:      -5.9      1.556      2.137
REMARK  Name = 
REMARK  9 active torsions:
REMARK  status: ('A' for Active; 'I' for Inactive)
REMARK    1  A    between atoms: C_1  and  C_2
REMARK    2  A    between atoms: C_2  and  N_3
REMARK    3  A    between atoms: N_6  and  C_7
REMARK    4  A    between atoms: C_8  and  C_9
REMARK    5  A    between atoms: C_9  and  N_10
REMARK    6  A    between atoms: N_10  and  C_20
REMARK    7  A    between atoms: N_13  and  C_14
REMARK    8  A    between atoms: C_23  and  C_24
REMARK    9  A    between atoms: N_26  and  C_27
REMARK                            x       y       z     vdW  Elec       q    Type
REMARK                         _______ _______ _______ _____ _____    ______ ____
ROOT
ATOM      1  C   UNL     1      -0.362  12.993  19.819  0.00  0.00    +0.000 A 
ATOM      2  C   UNL     1       0.087  14.338  19.718  0.00  0.00    +0.000 A 
ATOM      3  C   UNL     1       1.114  14.448  20.706  0.00  0.00    +0.000 A 
ATOM      4  C   UNL     1       1.929  15.616  21.128  0.00  0.00    +0.000 C 
ATOM      5  N   UNL     1       1.333  13.304  21.340  0.00  0.00    +0.000 NA
ATOM      6  N   UNL     1       0.366  12.457  20.921  0.00  0.00    +0.000 N 
ENDROOT
BRANCH   1  10
ATOM      7  N   UNL     1      -3.334  11.469  17.124  0.00  0.00    +0.000 NA
ATOM      8  C   UNL     1      -1.971  10.911  17.040  0.00  0.00    +0.000 C 
ATOM      9  C   UNL     1      -0.974  11.921  17.662  0.00  0.00    +0.000 C 
ATOM     10  N   UNL     1      -1.293  12.222  19.106  0.00  0.00    +0.000 N 
ATOM     11  C   UNL     1      -2.737  12.494  19.290  0.00  0.00    +0.000 C 
ATOM     12  C   UNL     1      -3.672  11.498  18.556  0.00  0.00    +0.000 C 
BRANCH   7  14
ATOM     13  C   UNL     1      -3.649  10.281  14.918  0.00  0.00    +0.000 C 
ATOM     14  C   UNL     1      -4.265  10.807  16.215  0.00  0.00    +0.000 C 
ENDBRANCH   7  14
ENDBRANCH   1  10
BRANCH   6  15
ATOM     15  C   UNL     1       0.272  11.182  21.575  0.00  0.00    +0.000 A 
ATOM     16  C   UNL     1      -0.516  10.987  22.715  0.00  0.00    +0.000 A 
ATOM     17  C   UNL     1      -0.871   9.685  23.110  0.00  0.00    +0.000 A 
ATOM     18  C   UNL     1      -0.385   8.585  22.405  0.00  0.00    +0.000 A 
ATOM     19  C   UNL     1       0.533   8.771  21.375  0.00  0.00    +0.000 A 
ATOM     20  C   UNL     1       0.878  10.068  20.972  0.00  0.00    +0.000 A 
ENDBRANCH   6  15
BRANCH   2  21
ATOM     21  C   UNL     1      -0.411  15.509  18.894  0.00  0.00    +0.000 C 
BRANCH  21  22
ATOM     22  N   UNL     1      -0.850  16.725  19.621  0.00  0.00    +0.000 N 
ATOM     23  C   UNL     1      -1.812  16.805  20.635  0.00  0.00    +0.000 C 
ATOM     24  O   UNL     1      -2.078  17.875  21.189  0.00  0.00    +0.000 OA
ATOM     25  N   UNL     1      -2.412  15.641  21.060  0.00  0.00    +0.000 N 
ATOM     26  H   UNL     1      -2.651  14.961  20.357  0.00  0.00    +0.000 HD
BRANCH  25  27
ATOM     27  C   UNL     1      -3.250  15.676  22.272  0.00  0.00    +0.000 C 
ATOM     28  C   UNL     1      -4.437  14.694  22.230  0.00  0.00    +0.000 C 
ATOM     29  C   UNL     1      -4.056  13.254  22.566  0.00  0.00    +0.000 C 
ATOM     30  C   UNL     1      -3.297  13.168  23.884  0.00  0.00    +0.000 C 
ATOM     31  C   UNL     1      -2.059  14.056  23.860  0.00  0.00    +0.000 C 
ATOM     32  C   UNL     1      -2.414  15.507  23.548  0.00  0.00    +0.000 C 
ENDBRANCH  25  27
BRANCH  22  33
ATOM     33  C   UNL     1      -0.302  18.015  19.223  0.00  0.00    +0.000 C 
ATOM     34  C   UNL     1       0.661  18.309  18.115  0.00  0.00    +0.000 C 
ATOM     35  C   UNL     1      -0.786  18.630  17.921  0.00  0.00    +0.000 C 
ENDBRANCH  22  33
ENDBRANCH  21  22
ENDBRANCH   2  21
TORSDOF 7
ENDMDL
MODEL 8
REMARK VINA RESULT:      -5.8      4.689      8.523
REMARK  Name = 
REMARK  9 active torsions:
REMARK  status: ('A' for Active; 'I' for Inactive)
REMARK    1  A    between atoms: C_1  and  C_2
REMARK    2  A    between atoms: C_2  and  N_3
REMARK    3  A    between atoms: N_6  and  C_7
REMARK    4  A    between atoms: C_8  and  C_9
REMARK    5  A    between atoms: C_9  and  N_10
REMARK    6  A    between atoms: N_10  and  C_20
REMARK    7  A    between atoms: N_13  and  C_14
REMARK    8  A    between atoms: C_23  and  C_24
REMARK    9  A    between atoms: N_26  and  C_27
REMARK                            x       y       z     vdW  Elec       q    Type
REMARK                         _______ _______ _______ _____ _____    ______ ____
ROOT
ATOM      1  C   UNL     1       3.008  15.566  19.853  0.00  0.00    +0.000 A 
ATOM      2  C   UNL     1       4.398  15.544  20.148  0.00  0.00    +0.000 A 
ATOM      3  C   UNL     1       4.939  16.636  19.402  0.00  0.00    +0.000 A 
ATOM      4  C   UNL     1       6.341  17.102  19.247  0.00  0.00    +0.000 C 
ATOM      5  N   UNL     1       4.008  17.309  18.738  0.00  0.00    +0.000 NA
ATOM      6  N   UNL     1       2.865  16.601  18.885  0.00  0.00    +0.000 N 
ENDROOT
BRANCH   1  10
ATOM      7  N   UNL     1       0.297  12.913  21.862  0.00  0.00    +0.000 NA
ATOM      8  C   UNL     1       0.071  14.365  21.994  0.00  0.00    +0.000 C 
ATOM      9  C   UNL     1       1.395  15.110  21.689  0.00  0.00    +0.000 C 
ATOM     10  N   UNL     1       1.907  14.817  20.299  0.00  0.00    +0.000 N 
ATOM     11  C   UNL     1       1.863  13.366  20.007  0.00  0.00    +0.000 C 
ATOM     12  C   UNL     1       0.544  12.670  20.431  0.00  0.00    +0.000 C 
BRANCH   7  14
ATOM     13  C   UNL     1      -0.566  10.609  22.429  0.00  0.00    +0.000 C 
ATOM     14  C   UNL     1      -0.741  12.125  22.520  0.00  0.00    +0.000 C 
ENDBRANCH   7  14
ENDBRANCH   1  10
BRANCH   6  15
ATOM     15  C   UNL     1       1.721  17.024  18.127  0.00  0.00    +0.000 A 
ATOM     16  C   UNL     1       0.415  16.886  18.611  0.00  0.00    +0.000 A 
ATOM     17  C   UNL     1      -0.632  17.620  18.026  0.00  0.00    +0.000 A 
ATOM     18  C   UNL     1      -0.382  18.437  16.924  0.00  0.00    +0.000 A 
ATOM     19  C   UNL     1       0.880  18.443  16.338  0.00  0.00    +0.000 A 
ATOM     20  C   UNL     1       1.928  17.723  16.926  0.00  0.00    +0.000 A 
ENDBRANCH   6  15
BRANCH   2  21
ATOM     21  C   UNL     1       5.247  14.571  20.943  0.00  0.00    +0.000 C 
BRANCH  21  22
ATOM     22  N   UNL     1       6.323  15.133  21.794  0.00  0.00    +0.000 N 
ATOM     23  C   UNL     1       7.689  14.828  21.744  0.00  0.00    +0.000 C 
ATOM     24  O   UNL     1       8.501  15.381  22.490  0.00  0.00    +0.000 OA
ATOM     25  N   UNL     1       8.127  13.942  20.785  0.00  0.00    +0.000 N 
ATOM     26  H   UNL     1       7.548  13.139  20.599  0.00  0.00    +0.000 HD
BRANCH  25  27
ATOM     27  C   UNL     1       9.577  13.787  20.571  0.00  0.00    +0.000 C 
ATOM     28  C   UNL     1      10.125  12.420  21.024  0.00  0.00    +0.000 C 
ATOM     29  C   UNL     1       9.882  11.296  20.019  0.00  0.00    +0.000 C 
ATOM     30  C   UNL     1      10.378  11.672  18.628  0.00  0.00    +0.000 C 
ATOM     31  C   UNL     1       9.731  12.966  18.149  0.00  0.00    +0.000 C 
ATOM     32  C   UNL     1       9.977  14.112  19.126  0.00  0.00    +0.000 C 
ENDBRANCH  25  27
BRANCH  22  33
ATOM     33  C   UNL     1       5.962  16.053  22.864  0.00  0.00    +0.000 C 
ATOM     34  C   UNL     1       4.596  16.369  23.390  0.00  0.00    +0.000 C 
ATOM     35  C   UNL     1       5.487  15.470  24.183  0.00  0.00    +0.000 C 
ENDBRANCH  22  33
ENDBRANCH  21  22
ENDBRANCH   2  21
TORSDOF 7
ENDMDL
MODEL 9
REMARK VINA RESULT:      -5.8      1.960      7.172
REMARK  Name = 
REMARK  9 active torsions:
REMARK  status: ('A' for Active; 'I' for Inactive)
REMARK    1  A    between atoms: C_1  and  C_2
REMARK    2  A    between atoms: C_2  and  N_3
REMARK    3  A    between atoms: N_6  and  C_7
REMARK    4  A    between atoms: C_8  and  C_9
REMARK    5  A    between atoms: C_9  and  N_10
REMARK    6  A    between atoms: N_10  and  C_20
REMARK    7  A    between atoms: N_13  and  C_14
REMARK    8  A    between atoms: C_23  and  C_24
REMARK    9  A    between atoms: N_26  and  C_27
REMARK                            x       y       z     vdW  Elec       q    Type
REMARK                         _______ _______ _______ _____ _____    ______ ____
ROOT
ATOM      1  C   UNL     1      -2.725  13.069  20.312  0.00  0.00    +0.000 A 
ATOM      2  C   UNL     1      -2.163  12.285  19.268  0.00  0.00    +0.000 A 
ATOM      3  C   UNL     1      -3.281  11.616  18.681  0.00  0.00    +0.000 A 
ATOM      4  C   UNL     1      -3.343  10.616  17.584  0.00  0.00    +0.000 C 
ATOM      5  N   UNL     1      -4.431  11.956  19.248  0.00  0.00    +0.000 NA
ATOM      6  N   UNL     1      -4.106  12.719  20.316  0.00  0.00    +0.000 N 
ENDROOT
BRANCH   1  10
ATOM      7  N   UNL     1      -0.248  15.614  22.722  0.00  0.00    +0.000 NA
ATOM      8  C   UNL     1      -1.145  16.249  21.738  0.00  0.00    +0.000 C 
ATOM      9  C   UNL     1      -1.512  15.212  20.647  0.00  0.00    +0.000 C 
ATOM     10  N   UNL     1      -2.198  13.997  21.224  0.00  0.00    +0.000 N 
ATOM     11  C   UNL     1      -1.485  13.498  22.422  0.00  0.00    +0.000 C 
ATOM     12  C   UNL     1      -1.063  14.606  23.421  0.00  0.00    +0.000 C 
BRANCH   7  14
ATOM     13  C   UNL     1       1.903  16.889  23.078  0.00  0.00    +0.000 C 
ATOM     14  C   UNL     1       0.474  16.591  23.532  0.00  0.00    +0.000 C 
ENDBRANCH   7  14
ENDBRANCH   1  10
BRANCH   6  15
ATOM     15  C   UNL     1      -5.166  13.095  21.209  0.00  0.00    +0.000 A 
ATOM     16  C   UNL     1      -5.128  12.799  22.575  0.00  0.00    +0.000 A 
ATOM     17  C   UNL     1      -5.979  13.478  23.466  0.00  0.00    +0.000 A 
ATOM     18  C   UNL     1      -6.905  14.401  22.981  0.00  0.00    +0.000 A 
ATOM     19  C   UNL     1      -7.058  14.571  21.608  0.00  0.00    +0.000 A 
ATOM     20  C   UNL     1      -6.204  13.905  20.720  0.00  0.00    +0.000 A 
ENDBRANCH   6  15
BRANCH   2  21
ATOM     21  C   UNL     1      -0.725  12.031  18.858  0.00  0.00    +0.000 C 
BRANCH  21  22
ATOM     22  N   UNL     1       0.301  12.003  19.928  0.00  0.00    +0.000 N 
ATOM     23  C   UNL     1       1.348  12.913  20.122  0.00  0.00    +0.000 C 
ATOM     24  O   UNL     1       2.131  12.802  21.069  0.00  0.00    +0.000 OA
ATOM     25  N   UNL     1       1.445  13.989  19.269  0.00  0.00    +0.000 N 
ATOM     26  H   UNL     1       1.256  13.824  18.294  0.00  0.00    +0.000 HD
BRANCH  25  27
ATOM     27  C   UNL     1       2.392  15.070  19.595  0.00  0.00    +0.000 C 
ATOM     28  C   UNL     1       3.722  14.980  18.822  0.00  0.00    +0.000 C 
ATOM     29  C   UNL     1       3.640  15.518  17.394  0.00  0.00    +0.000 C 
ATOM     30  C   UNL     1       3.058  16.925  17.358  0.00  0.00    +0.000 C 
ATOM     31  C   UNL     1       1.688  16.966  18.025  0.00  0.00    +0.000 C 
ATOM     32  C   UNL     1       1.745  16.455  19.461  0.00  0.00    +0.000 C 
ENDBRANCH  25  27
BRANCH  22  33
ATOM     33  C   UNL     1       0.308  10.885  20.863  0.00  0.00    +0.000 C 
ATOM     34  C   UNL     1      -0.503   9.628  20.808  0.00  0.00    +0.000 C 
ATOM     35  C   UNL     1       0.938   9.578  20.414  0.00  0.00    +0.000 C 
ENDBRANCH  22  33
ENDBRANCH  21  22
ENDBRANCH   2  21
TORSDOF 7
ENDMDL
