MODEL 1
REMARK VINA RESULT:      -8.0      0.000      0.000
REMARK  Name = 
REMARK  8 active torsions:
REMARK  status: ('A' for Active; 'I' for Inactive)
REMARK    1  A    between atoms: C_1  and  O_2
REMARK    2  A    between atoms: O_2  and  C_3
REMARK    3  A    between atoms: C_5  and  C_6
REMARK    4  A    between atoms: C_10  and  C_11
REMARK    5  A    between atoms: C_22  and  O_23
REMARK    6  A    between atoms: O_23  and  C_24
REMARK    7  A    between atoms: C_25  and  O_26
REMARK    8  A    between atoms: O_26  and  C_27
REMARK                            x       y       z     vdW  Elec       q    Type
REMARK                         _______ _______ _______ _____ _____    ______ ____
ROOT
ATOM      1  C   UNL     1       3.828   4.004  17.596  0.00  0.00    +0.000 A 
ATOM      2  N   UNL     1       3.534   2.689  17.635  0.00  0.00    +0.000 NA
ATOM      3  N   UNL     1       2.552   2.656  18.543  0.00  0.00    +0.000 N 
ATOM      4  N   UNL     1       2.171   3.800  19.114  0.00  0.00    +0.000 NA
ATOM      5  C   UNL     1       2.945   4.707  18.485  0.00  0.00    +0.000 A 
ATOM      6  H   UNL     1       2.080   1.785  18.773  0.00  0.00    +0.000 HD
ENDROOT
BRANCH   5   7
ATOM      7  C   UNL     1       2.703   6.143  18.684  0.00  0.00    +0.000 A 
ATOM      8  C   UNL     1       2.589   7.037  17.604  0.00  0.00    +0.000 A 
ATOM      9  C   UNL     1       2.118   8.339  17.792  0.00  0.00    +0.000 A 
ATOM     10  C   UNL     1       1.684   8.732  19.051  0.00  0.00    +0.000 A 
ATOM     11  C   UNL     1       1.865   7.879  20.139  0.00  0.00    +0.000 A 
ATOM     12  C   UNL     1       2.411   6.610  19.971  0.00  0.00    +0.000 A 
ATOM     13  O   UNL     1       1.411   8.205  21.391  0.00  0.00    +0.000 OA
ATOM     14  C   UNL     1       0.160   8.871  21.221  0.00  0.00    +0.000 C 
ATOM     15  C   UNL     1       0.332  10.124  20.374  0.00  0.00    +0.000 C 
ATOM     16  O   UNL     1       1.006   9.917  19.126  0.00  0.00    +0.000 OA
ENDBRANCH   5   7
BRANCH   1  19
ATOM     17  C   UNL     1       6.864   5.780  16.332  0.00  0.00    +0.000 A 
ATOM     18  C   UNL     1       5.706   5.513  17.084  0.00  0.00    +0.000 A 
ATOM     19  C   UNL     1       4.796   4.555  16.662  0.00  0.00    +0.000 A 
ATOM     20  C   UNL     1       4.946   3.988  15.396  0.00  0.00    +0.000 A 
ATOM     21  C   UNL     1       6.074   4.253  14.614  0.00  0.00    +0.000 A 
ATOM     22  C   UNL     1       7.054   5.155  15.079  0.00  0.00    +0.000 A 
BRANCH  17  24
ATOM     23  C   UNL     1       7.333   7.766  17.561  0.00  0.00    +0.000 C 
ATOM     24  O   UNL     1       7.811   6.646  16.811  0.00  0.00    +0.000 OA
ENDBRANCH  17  24
BRANCH  21  25
ATOM     25  O   UNL     1       6.059   3.484  13.479  0.00  0.00    +0.000 OA
ATOM     26  C   UNL     1       4.958   3.560  12.592  0.00  0.00    +0.000 C 
ENDBRANCH  21  25
BRANCH  22  27
ATOM     27  O   UNL     1       8.125   5.345  14.241  0.00  0.00    +0.000 OA
ATOM     28  C   UNL     1       7.927   5.655  12.872  0.00  0.00    +0.000 C 
ENDBRANCH  22  27
ENDBRANCH   1  19
TORSDOF 5
ENDMDL
MODEL 2
REMARK VINA RESULT:      -7.9      1.447      7.411
REMARK  Name = 
REMARK  8 active torsions:
REMARK  status: ('A' for Active; 'I' for Inactive)
REMARK    1  A    between atoms: C_1  and  O_2
REMARK    2  A    between atoms: O_2  and  C_3
REMARK    3  A    between atoms: C_5  and  C_6
REMARK    4  A    between atoms: C_10  and  C_11
REMARK    5  A    between atoms: C_22  and  O_23
REMARK    6  A    between atoms: O_23  and  C_24
REMARK    7  A    between atoms: C_25  and  O_26
REMARK    8  A    between atoms: O_26  and  C_27
REMARK                            x       y       z     vdW  Elec       q    Type
REMARK                         _______ _______ _______ _____ _____    ______ ____
ROOT
ATOM      1  C   UNL     1       2.490   5.430  20.134  0.00  0.00    +0.000 A 
ATOM      2  N   UNL     1       2.015   4.579  21.065  0.00  0.00    +0.000 NA
ATOM      3  N   UNL     1       2.695   3.461  20.785  0.00  0.00    +0.000 N 
ATOM      4  N   UNL     1       3.559   3.477  19.768  0.00  0.00    +0.000 NA
ATOM      5  C   UNL     1       3.490   4.757  19.352  0.00  0.00    +0.000 A 
ATOM      6  H   UNL     1       2.584   2.624  21.352  0.00  0.00    +0.000 HD
ENDROOT
BRANCH   5   7
ATOM      7  C   UNL     1       4.444   5.257  18.352  0.00  0.00    +0.000 A 
ATOM      8  C   UNL     1       5.674   5.834  18.718  0.00  0.00    +0.000 A 
ATOM      9  C   UNL     1       6.668   6.076  17.767  0.00  0.00    +0.000 A 
ATOM     10  C   UNL     1       6.470   5.670  16.455  0.00  0.00    +0.000 A 
ATOM     11  C   UNL     1       5.228   5.168  16.069  0.00  0.00    +0.000 A 
ATOM     12  C   UNL     1       4.204   5.002  16.996  0.00  0.00    +0.000 A 
ATOM     13  O   UNL     1       5.001   4.712  14.796  0.00  0.00    +0.000 OA
ATOM     14  C   UNL     1       6.189   4.045  14.373  0.00  0.00    +0.000 C 
ATOM     15  C   UNL     1       7.374   5.001  14.392  0.00  0.00    +0.000 C 
ATOM     16  O   UNL     1       7.560   5.700  15.630  0.00  0.00    +0.000 OA
ENDBRANCH   5   7
BRANCH   1  19
ATOM     17  C   UNL     1       1.726   8.822  18.762  0.00  0.00    +0.000 A 
ATOM     18  C   UNL     1       2.395   7.605  18.982  0.00  0.00    +0.000 A 
ATOM     19  C   UNL     1       2.107   6.832  20.097  0.00  0.00    +0.000 A 
ATOM     20  C   UNL     1       1.279   7.356  21.090  0.00  0.00    +0.000 A 
ATOM     21  C   UNL     1       0.618   8.574  20.912  0.00  0.00    +0.000 A 
ATOM     22  C   UNL     1       0.832   9.323  19.736  0.00  0.00    +0.000 A 
BRANCH  17  24
ATOM     23  C   UNL     1       2.489  10.835  17.744  0.00  0.00    +0.000 C 
ATOM     24  O   UNL     1       1.936   9.524  17.605  0.00  0.00    +0.000 OA
ENDBRANCH  17  24
BRANCH  21  25
ATOM     25  O   UNL     1      -0.235   8.813  21.959  0.00  0.00    +0.000 OA
ATOM     26  C   UNL     1       0.213   9.564  23.073  0.00  0.00    +0.000 C 
ENDBRANCH  21  25
BRANCH  22  27
ATOM     27  O   UNL     1       0.134  10.503  19.653  0.00  0.00    +0.000 OA
ATOM     28  C   UNL     1      -1.107  10.564  18.972  0.00  0.00    +0.000 C 
ENDBRANCH  22  27
ENDBRANCH   1  19
TORSDOF 5
ENDMDL
MODEL 3
REMARK VINA RESULT:      -7.6      1.337      2.857
REMARK  Name = 
REMARK  8 active torsions:
REMARK  status: ('A' for Active; 'I' for Inactive)
REMARK    1  A    between atoms: C_1  and  O_2
REMARK    2  A    between atoms: O_2  and  C_3
REMARK    3  A    between atoms: C_5  and  C_6
REMARK    4  A    between atoms: C_10  and  C_11
REMARK    5  A    between atoms: C_22  and  O_23
REMARK    6  A    between atoms: O_23  and  C_24
REMARK    7  A    between atoms: C_25  and  O_26
REMARK    8  A    between atoms: O_26  and  C_27
REMARK                            x       y       z     vdW  Elec       q    Type
REMARK                         _______ _______ _______ _____ _____    ______ ____
ROOT
ATOM      1  C   UNL     1       2.918   3.501  19.028  0.00  0.00    +0.000 A 
ATOM      2  N   UNL     1       2.336   2.299  19.213  0.00  0.00    +0.000 NA
ATOM      3  N   UNL     1       1.239   2.630  19.904  0.00  0.00    +0.000 N 
ATOM      4  N   UNL     1       1.036   3.914  20.202  0.00  0.00    +0.000 NA
ATOM      5  C   UNL     1       2.084   4.518  19.604  0.00  0.00    +0.000 A 
ATOM      6  H   UNL     1       0.555   1.927  20.170  0.00  0.00    +0.000 HD
ENDROOT
BRANCH   5   7
ATOM      7  C   UNL     1       2.139   5.984  19.525  0.00  0.00    +0.000 A 
ATOM      8  C   UNL     1       2.389   6.657  18.315  0.00  0.00    +0.000 A 
ATOM      9  C   UNL     1       2.197   8.036  18.204  0.00  0.00    +0.000 A 
ATOM     10  C   UNL     1       1.676   8.741  19.280  0.00  0.00    +0.000 A 
ATOM     11  C   UNL     1       1.497   8.098  20.504  0.00  0.00    +0.000 A 
ATOM     12  C   UNL     1       1.767   6.740  20.644  0.00  0.00    +0.000 A 
ATOM     13  O   UNL     1       0.943   8.741  21.580  0.00  0.00    +0.000 OA
ATOM     14  C   UNL     1      -0.089   9.587  21.076  0.00  0.00    +0.000 C 
ATOM     15  C   UNL     1       0.483  10.596  20.089  0.00  0.00    +0.000 C 
ATOM     16  O   UNL     1       1.274  10.026  19.038  0.00  0.00    +0.000 OA
ENDBRANCH   5   7
BRANCH   1  19
ATOM     17  C   UNL     1       5.101   4.299  16.101  0.00  0.00    +0.000 A 
ATOM     18  C   UNL     1       4.031   3.776  16.848  0.00  0.00    +0.000 A 
ATOM     19  C   UNL     1       4.121   3.665  18.228  0.00  0.00    +0.000 A 
ATOM     20  C   UNL     1       5.345   3.908  18.849  0.00  0.00    +0.000 A 
ATOM     21  C   UNL     1       6.436   4.405  18.130  0.00  0.00    +0.000 A 
ATOM     22  C   UNL     1       6.323   4.612  16.739  0.00  0.00    +0.000 A 
BRANCH  17  24
ATOM     23  C   UNL     1       5.856   3.787  13.901  0.00  0.00    +0.000 C 
ATOM     24  O   UNL     1       4.964   4.507  14.754  0.00  0.00    +0.000 OA
ENDBRANCH  17  24
BRANCH  21  25
ATOM     25  O   UNL     1       7.478   4.686  18.975  0.00  0.00    +0.000 OA
ATOM     26  C   UNL     1       7.622   5.992  19.504  0.00  0.00    +0.000 C 
ENDBRANCH  21  25
BRANCH  22  27
ATOM     27  O   UNL     1       7.446   5.106  16.124  0.00  0.00    +0.000 OA
ATOM     28  C   UNL     1       7.620   6.502  15.948  0.00  0.00    +0.000 C 
ENDBRANCH  22  27
ENDBRANCH   1  19
TORSDOF 5
ENDMDL
MODEL 4
REMARK VINA RESULT:      -7.6      1.387      2.997
REMARK  Name = 
REMARK  8 active torsions:
REMARK  status: ('A' for Active; 'I' for Inactive)
REMARK    1  A    between atoms: C_1  and  O_2
REMARK    2  A    between atoms: O_2  and  C_3
REMARK    3  A    between atoms: C_5  and  C_6
REMARK    4  A    between atoms: C_10  and  C_11
REMARK    5  A    between atoms: C_22  and  O_23
REMARK    6  A    between atoms: O_23  and  C_24
REMARK    7  A    between atoms: C_25  and  O_26
REMARK    8  A    between atoms: O_26  and  C_27
REMARK                            x       y       z     vdW  Elec       q    Type
REMARK                         _______ _______ _______ _____ _____    ______ ____
ROOT
ATOM      1  C   UNL     1       3.220   4.113  18.762  0.00  0.00    +0.000 A 
ATOM      2  N   UNL     1       2.767   2.850  18.636  0.00  0.00    +0.000 NA
ATOM      3  N   UNL     1       1.552   2.940  19.188  0.00  0.00    +0.000 N 
ATOM      4  N   UNL     1       1.156   4.118  19.673  0.00  0.00    +0.000 NA
ATOM      5  C   UNL     1       2.197   4.919  19.367  0.00  0.00    +0.000 A 
ATOM      6  H   UNL     1       0.926   2.138  19.213  0.00  0.00    +0.000 HD
ENDROOT
BRANCH   5   7
ATOM      7  C   UNL     1       2.087   6.372  19.558  0.00  0.00    +0.000 A 
ATOM      8  C   UNL     1       2.212   7.276  18.488  0.00  0.00    +0.000 A 
ATOM      9  C   UNL     1       1.863   8.622  18.636  0.00  0.00    +0.000 A 
ATOM     10  C   UNL     1       1.312   9.055  19.834  0.00  0.00    +0.000 A 
ATOM     11  C   UNL     1       1.257   8.185  20.922  0.00  0.00    +0.000 A 
ATOM     12  C   UNL     1       1.680   6.864  20.804  0.00  0.00    +0.000 A 
ATOM     13  O   UNL     1       0.680   8.554  22.109  0.00  0.00    +0.000 OA
ATOM     14  C   UNL     1      -0.460   9.352  21.790  0.00  0.00    +0.000 C 
ATOM     15  C   UNL     1      -0.044  10.582  20.994  0.00  0.00    +0.000 C 
ATOM     16  O   UNL     1       0.761  10.306  19.841  0.00  0.00    +0.000 OA
ENDBRANCH   5   7
BRANCH   1  19
ATOM     17  C   UNL     1       5.710   5.452  16.316  0.00  0.00    +0.000 A 
ATOM     18  C   UNL     1       4.641   4.702  16.838  0.00  0.00    +0.000 A 
ATOM     19  C   UNL     1       4.496   4.538  18.208  0.00  0.00    +0.000 A 
ATOM     20  C   UNL     1       5.517   4.970  19.054  0.00  0.00    +0.000 A 
ATOM     21  C   UNL     1       6.605   5.696  18.563  0.00  0.00    +0.000 A 
ATOM     22  C   UNL     1       6.711   5.951  17.179  0.00  0.00    +0.000 A 
BRANCH  17  24
ATOM     23  C   UNL     1       6.304   4.650  14.153  0.00  0.00    +0.000 C 
ATOM     24  O   UNL     1       5.784   5.701  14.971  0.00  0.00    +0.000 OA
ENDBRANCH  17  24
BRANCH  21  25
ATOM     25  O   UNL     1       7.401   6.121  19.595  0.00  0.00    +0.000 OA
ATOM     26  C   UNL     1       8.402   5.261  20.111  0.00  0.00    +0.000 C 
ENDBRANCH  21  25
BRANCH  22  27
ATOM     27  O   UNL     1       7.812   6.676  16.797  0.00  0.00    +0.000 OA
ATOM     28  C   UNL     1       8.017   7.993  17.280  0.00  0.00    +0.000 C 
ENDBRANCH  22  27
ENDBRANCH   1  19
TORSDOF 5
ENDMDL
MODEL 5
REMARK VINA RESULT:      -7.5      0.919      2.566
REMARK  Name = 
REMARK  8 active torsions:
REMARK  status: ('A' for Active; 'I' for Inactive)
REMARK    1  A    between atoms: C_1  and  O_2
REMARK    2  A    between atoms: O_2  and  C_3
REMARK    3  A    between atoms: C_5  and  C_6
REMARK    4  A    between atoms: C_10  and  C_11
REMARK    5  A    between atoms: C_22  and  O_23
REMARK    6  A    between atoms: O_23  and  C_24
REMARK    7  A    between atoms: C_25  and  O_26
REMARK    8  A    between atoms: O_26  and  C_27
REMARK                            x       y       z     vdW  Elec       q    Type
REMARK                         _______ _______ _______ _____ _____    ______ ____
ROOT
ATOM      1  C   UNL     1       3.618   3.368  18.127  0.00  0.00    +0.000 A 
ATOM      2  N   UNL     1       3.157   2.105  18.228  0.00  0.00    +0.000 NA
ATOM      3  N   UNL     1       2.100   2.265  19.033  0.00  0.00    +0.000 N 
ATOM      4  N   UNL     1       1.818   3.489  19.481  0.00  0.00    +0.000 NA
ATOM      5  C   UNL     1       2.755   4.242  18.871  0.00  0.00    +0.000 A 
ATOM      6  H   UNL     1       1.502   1.478  19.276  0.00  0.00    +0.000 HD
ENDROOT
BRANCH   5   7
ATOM      7  C   UNL     1       2.680   5.708  18.944  0.00  0.00    +0.000 A 
ATOM      8  C   UNL     1       2.807   6.519  17.801  0.00  0.00    +0.000 A 
ATOM      9  C   UNL     1       2.492   7.879  17.844  0.00  0.00    +0.000 A 
ATOM     10  C   UNL     1       1.972   8.422  19.010  0.00  0.00    +0.000 A 
ATOM     11  C   UNL     1       1.916   7.645  20.167  0.00  0.00    +0.000 A 
ATOM     12  C   UNL     1       2.307   6.310  20.152  0.00  0.00    +0.000 A 
ATOM     13  O   UNL     1       1.368   8.125  21.328  0.00  0.00    +0.000 OA
ATOM     14  C   UNL     1       0.241   8.921  20.963  0.00  0.00    +0.000 C 
ATOM     15  C   UNL     1       0.671  10.071  20.062  0.00  0.00    +0.000 C 
ATOM     16  O   UNL     1       1.449   9.683  18.923  0.00  0.00    +0.000 OA
ENDBRANCH   5   7
BRANCH   1  19
ATOM     17  C   UNL     1       5.470   4.435  15.061  0.00  0.00    +0.000 A 
ATOM     18  C   UNL     1       4.554   3.753  15.882  0.00  0.00    +0.000 A 
ATOM     19  C   UNL     1       4.729   3.720  17.258  0.00  0.00    +0.000 A 
ATOM     20  C   UNL     1       5.914   4.213  17.803  0.00  0.00    +0.000 A 
ATOM     21  C   UNL     1       6.855   4.875  17.009  0.00  0.00    +0.000 A 
ATOM     22  C   UNL     1       6.639   4.998  15.621  0.00  0.00    +0.000 A 
BRANCH  17  24
ATOM     23  C   UNL     1       5.285   3.355  12.946  0.00  0.00    +0.000 C 
ATOM     24  O   UNL     1       5.232   4.557  13.717  0.00  0.00    +0.000 OA
ENDBRANCH  17  24
BRANCH  21  25
ATOM     25  O   UNL     1       7.864   5.381  17.787  0.00  0.00    +0.000 OA
ATOM     26  C   UNL     1       7.569   5.907  19.068  0.00  0.00    +0.000 C 
ENDBRANCH  21  25
BRANCH  22  27
ATOM     27  O   UNL     1       7.618   5.667  14.929  0.00  0.00    +0.000 OA
ATOM     28  C   UNL     1       7.918   5.326  13.586  0.00  0.00    +0.000 C 
ENDBRANCH  22  27
ENDBRANCH   1  19
TORSDOF 5
ENDMDL
MODEL 6
REMARK VINA RESULT:      -7.4      1.833      6.835
REMARK  Name = 
REMARK  8 active torsions:
REMARK  status: ('A' for Active; 'I' for Inactive)
REMARK    1  A    between atoms: C_1  and  O_2
REMARK    2  A    between atoms: O_2  and  C_3
REMARK    3  A    between atoms: C_5  and  C_6
REMARK    4  A    between atoms: C_10  and  C_11
REMARK    5  A    between atoms: C_22  and  O_23
REMARK    6  A    between atoms: O_23  and  C_24
REMARK    7  A    between atoms: C_25  and  O_26
REMARK    8  A    between atoms: O_26  and  C_27
REMARK                            x       y       z     vdW  Elec       q    Type
REMARK                         _______ _______ _______ _____ _____    ______ ____
ROOT
ATOM      1  C   UNL     1       1.880   4.422  20.377  0.00  0.00    +0.000 A 
ATOM      2  N   UNL     1       1.147   3.797  21.319  0.00  0.00    +0.000 NA
ATOM      3  N   UNL     1       1.476   2.516  21.115  0.00  0.00    +0.000 N 
ATOM      4  N   UNL     1       2.337   2.226  20.138  0.00  0.00    +0.000 NA
ATOM      5  C   UNL     1       2.662   3.448  19.668  0.00  0.00    +0.000 A 
ATOM      6  H   UNL     1       1.105   1.779  21.709  0.00  0.00    +0.000 HD
ENDROOT
BRANCH   5   7
ATOM      7  C   UNL     1       3.752   3.593  18.694  0.00  0.00    +0.000 A 
ATOM      8  C   UNL     1       3.529   3.510  17.307  0.00  0.00    +0.000 A 
ATOM      9  C   UNL     1       4.516   3.891  16.394  0.00  0.00    +0.000 A 
ATOM     10  C   UNL     1       5.705   4.433  16.862  0.00  0.00    +0.000 A 
ATOM     11  C   UNL     1       5.963   4.448  18.232  0.00  0.00    +0.000 A 
ATOM     12  C   UNL     1       5.016   3.992  19.144  0.00  0.00    +0.000 A 
ATOM     13  O   UNL     1       7.102   5.015  18.742  0.00  0.00    +0.000 OA
ATOM     14  C   UNL     1       7.375   6.180  17.964  0.00  0.00    +0.000 C 
ATOM     15  C   UNL     1       7.573   5.810  16.500  0.00  0.00    +0.000 C 
ATOM     16  O   UNL     1       6.522   5.017  15.934  0.00  0.00    +0.000 OA
ENDBRANCH   5   7
BRANCH   1  19
ATOM     17  C   UNL     1       2.309   7.813  18.862  0.00  0.00    +0.000 A 
ATOM     18  C   UNL     1       2.564   6.469  19.188  0.00  0.00    +0.000 A 
ATOM     19  C   UNL     1       1.928   5.871  20.267  0.00  0.00    +0.000 A 
ATOM     20  C   UNL     1       1.172   6.663  21.131  0.00  0.00    +0.000 A 
ATOM     21  C   UNL     1       0.921   8.008  20.847  0.00  0.00    +0.000 A 
ATOM     22  C   UNL     1       1.486   8.600  19.699  0.00  0.00    +0.000 A 
BRANCH  17  24
ATOM     23  C   UNL     1       3.944   7.652  17.137  0.00  0.00    +0.000 C 
ATOM     24  O   UNL     1       2.855   8.362  17.732  0.00  0.00    +0.000 OA
ENDBRANCH  17  24
BRANCH  21  25
ATOM     25  O   UNL     1       0.052   8.536  21.768  0.00  0.00    +0.000 OA
ATOM     26  C   UNL     1       0.546   9.355  22.812  0.00  0.00    +0.000 C 
ENDBRANCH  21  25
BRANCH  22  27
ATOM     27  O   UNL     1       1.177   9.924  19.505  0.00  0.00    +0.000 OA
ATOM     28  C   UNL     1       0.051  10.299  18.731  0.00  0.00    +0.000 C 
ENDBRANCH  22  27
ENDBRANCH   1  19
TORSDOF 5
ENDMDL
MODEL 7
REMARK VINA RESULT:      -7.4      1.365      6.923
REMARK  Name = 
REMARK  8 active torsions:
REMARK  status: ('A' for Active; 'I' for Inactive)
REMARK    1  A    between atoms: C_1  and  O_2
REMARK    2  A    between atoms: O_2  and  C_3
REMARK    3  A    between atoms: C_5  and  C_6
REMARK    4  A    between atoms: C_10  and  C_11
REMARK    5  A    between atoms: C_22  and  O_23
REMARK    6  A    between atoms: O_23  and  C_24
REMARK    7  A    between atoms: C_25  and  O_26
REMARK    8  A    between atoms: O_26  and  C_27
REMARK                            x       y       z     vdW  Elec       q    Type
REMARK                         _______ _______ _______ _____ _____    ______ ____
ROOT
ATOM      1  C   UNL     1       2.867   4.552  19.955  0.00  0.00    +0.000 A 
ATOM      2  N   UNL     1       2.530   3.697  20.941  0.00  0.00    +0.000 NA
ATOM      3  N   UNL     1       3.399   2.699  20.746  0.00  0.00    +0.000 N 
ATOM      4  N   UNL     1       4.266   2.795  19.737  0.00  0.00    +0.000 NA
ATOM      5  C   UNL     1       3.984   4.012  19.229  0.00  0.00    +0.000 A 
ATOM      6  H   UNL     1       3.424   1.896  21.370  0.00  0.00    +0.000 HD
ENDROOT
BRANCH   5   7
ATOM      7  C   UNL     1       4.856   4.601  18.203  0.00  0.00    +0.000 A 
ATOM      8  C   UNL     1       6.134   5.101  18.509  0.00  0.00    +0.000 A 
ATOM      9  C   UNL     1       7.042   5.428  17.498  0.00  0.00    +0.000 A 
ATOM     10  C   UNL     1       6.705   5.182  16.174  0.00  0.00    +0.000 A 
ATOM     11  C   UNL     1       5.414   4.759  15.859  0.00  0.00    +0.000 A 
ATOM     12  C   UNL     1       4.478   4.511  16.858  0.00  0.00    +0.000 A 
ATOM     13  O   UNL     1       5.051   4.459  14.571  0.00  0.00    +0.000 OA
ATOM     14  C   UNL     1       6.168   3.817  13.960  0.00  0.00    +0.000 C 
ATOM     15  C   UNL     1       7.383   4.735  13.970  0.00  0.00    +0.000 C 
ATOM     16  O   UNL     1       7.711   5.281  15.254  0.00  0.00    +0.000 OA
ENDBRANCH   5   7
BRANCH   1  19
ATOM     17  C   UNL     1       1.373   7.843  20.906  0.00  0.00    +0.000 A 
ATOM     18  C   UNL     1       1.640   6.463  20.908  0.00  0.00    +0.000 A 
ATOM     19  C   UNL     1       2.246   5.859  19.816  0.00  0.00    +0.000 A 
ATOM     20  C   UNL     1       2.424   6.597  18.646  0.00  0.00    +0.000 A 
ATOM     21  C   UNL     1       2.145   7.966  18.605  0.00  0.00    +0.000 A 
ATOM     22  C   UNL     1       1.618   8.609  19.744  0.00  0.00    +0.000 A 
BRANCH  17  24
ATOM     23  C   UNL     1      -0.547   8.542  22.131  0.00  0.00    +0.000 C 
ATOM     24  O   UNL     1       0.877   8.450  22.029  0.00  0.00    +0.000 OA
ENDBRANCH  17  24
BRANCH  21  25
ATOM     25  O   UNL     1       2.523   8.494  17.397  0.00  0.00    +0.000 OA
ATOM     26  C   UNL     1       3.689   8.014  16.752  0.00  0.00    +0.000 C 
ENDBRANCH  21  25
BRANCH  22  27
ATOM     27  O   UNL     1       1.381   9.954  19.604  0.00  0.00    +0.000 OA
ATOM     28  C   UNL     1       0.140  10.424  19.106  0.00  0.00    +0.000 C 
ENDBRANCH  22  27
ENDBRANCH   1  19
TORSDOF 5
ENDMDL
MODEL 8
REMARK VINA RESULT:      -7.3      1.572      7.676
REMARK  Name = 
REMARK  8 active torsions:
REMARK  status: ('A' for Active; 'I' for Inactive)
REMARK    1  A    between atoms: C_1  and  O_2
REMARK    2  A    between atoms: O_2  and  C_3
REMARK    3  A    between atoms: C_5  and  C_6
REMARK    4  A    between atoms: C_10  and  C_11
REMARK    5  A    between atoms: C_22  and  O_23
REMARK    6  A    between atoms: O_23  and  C_24
REMARK    7  A    between atoms: C_25  and  O_26
REMARK    8  A    between atoms: O_26  and  C_27
REMARK                            x       y       z     vdW  Elec       q    Type
REMARK                         _______ _______ _______ _____ _____    ______ ____
ROOT
ATOM      1  C   UNL     1       2.022   5.762  20.157  0.00  0.00    +0.000 A 
ATOM      2  N   UNL     1       1.256   4.967  20.930  0.00  0.00    +0.000 NA
ATOM      3  N   UNL     1       1.771   3.759  20.674  0.00  0.00    +0.000 N 
ATOM      4  N   UNL     1       2.785   3.667  19.812  0.00  0.00    +0.000 NA
ATOM      5  C   UNL     1       3.010   4.958  19.493  0.00  0.00    +0.000 A 
ATOM      6  H   UNL     1       1.422   2.929  21.147  0.00  0.00    +0.000 HD
ENDROOT
BRANCH   5   7
ATOM      7  C   UNL     1       4.192   5.324  18.702  0.00  0.00    +0.000 A 
ATOM      8  C   UNL     1       5.486   5.337  19.256  0.00  0.00    +0.000 A 
ATOM      9  C   UNL     1       6.617   5.444  18.443  0.00  0.00    +0.000 A 
ATOM     10  C   UNL     1       6.466   5.460  17.063  0.00  0.00    +0.000 A 
ATOM     11  C   UNL     1       5.188   5.525  16.510  0.00  0.00    +0.000 A 
ATOM     12  C   UNL     1       4.056   5.502  17.319  0.00  0.00    +0.000 A 
ATOM     13  O   UNL     1       4.989   5.495  15.154  0.00  0.00    +0.000 OA
ATOM     14  C   UNL     1       5.943   4.583  14.611  0.00  0.00    +0.000 C 
ATOM     15  C   UNL     1       7.360   5.039  14.932  0.00  0.00    +0.000 C 
ATOM     16  O   UNL     1       7.603   5.312  16.318  0.00  0.00    +0.000 OA
ENDBRANCH   5   7
BRANCH   1  19
ATOM     17  C   UNL     1       1.188   9.222  19.015  0.00  0.00    +0.000 A 
ATOM     18  C   UNL     1       1.677   7.904  18.991  0.00  0.00    +0.000 A 
ATOM     19  C   UNL     1       1.897   7.210  20.173  0.00  0.00    +0.000 A 
ATOM     20  C   UNL     1       1.800   7.891  21.386  0.00  0.00    +0.000 A 
ATOM     21  C   UNL     1       1.340   9.210  21.441  0.00  0.00    +0.000 A 
ATOM     22  C   UNL     1       1.022   9.892  20.248  0.00  0.00    +0.000 A 
BRANCH  17  24
ATOM     23  C   UNL     1      -0.507   9.840  17.460  0.00  0.00    +0.000 C 
ATOM     24  O   UNL     1       0.869   9.859  17.846  0.00  0.00    +0.000 OA
ENDBRANCH  17  24
BRANCH  21  25
ATOM     25  O   UNL     1       1.207   9.615  22.744  0.00  0.00    +0.000 OA
ATOM     26  C   UNL     1      -0.033   9.454  23.408  0.00  0.00    +0.000 C 
ENDBRANCH  21  25
BRANCH  22  27
ATOM     27  O   UNL     1       0.576  11.180  20.408  0.00  0.00    +0.000 OA
ATOM     28  C   UNL     1      -0.806  11.453  20.569  0.00  0.00    +0.000 C 
ENDBRANCH  22  27
ENDBRANCH   1  19
TORSDOF 5
ENDMDL
MODEL 9
REMARK VINA RESULT:      -7.3      1.551      3.427
REMARK  Name = 
REMARK  8 active torsions:
REMARK  status: ('A' for Active; 'I' for Inactive)
REMARK    1  A    between atoms: C_1  and  O_2
REMARK    2  A    between atoms: O_2  and  C_3
REMARK    3  A    between atoms: C_5  and  C_6
REMARK    4  A    between atoms: C_10  and  C_11
REMARK    5  A    between atoms: C_22  and  O_23
REMARK    6  A    between atoms: O_23  and  C_24
REMARK    7  A    between atoms: C_25  and  O_26
REMARK    8  A    between atoms: O_26  and  C_27
REMARK                            x       y       z     vdW  Elec       q    Type
REMARK                         _______ _______ _______ _____ _____    ______ ____
ROOT
ATOM      1  C   UNL     1       3.799   2.952  18.255  0.00  0.00    +0.000 A 
ATOM      2  N   UNL     1       3.695   1.640  17.962  0.00  0.00    +0.000 NA
ATOM      3  N   UNL     1       2.461   1.361  18.397  0.00  0.00    +0.000 N 
ATOM      4  N   UNL     1       1.743   2.339  18.952  0.00  0.00    +0.000 NA
ATOM      5  C   UNL     1       2.563   3.403  18.831  0.00  0.00    +0.000 A 
ATOM      6  H   UNL     1       2.062   0.433  18.281  0.00  0.00    +0.000 HD
ENDROOT
BRANCH   5   7
ATOM      7  C   UNL     1       2.070   4.750  19.150  0.00  0.00    +0.000 A 
ATOM      8  C   UNL     1       1.890   5.184  20.476  0.00  0.00    +0.000 A 
ATOM      9  C   UNL     1       1.661   6.530  20.769  0.00  0.00    +0.000 A 
ATOM     10  C   UNL     1       1.687   7.466  19.744  0.00  0.00    +0.000 A 
ATOM     11  C   UNL     1       1.788   7.035  18.421  0.00  0.00    +0.000 A 
ATOM     12  C   UNL     1       1.934   5.685  18.117  0.00  0.00    +0.000 A 
ATOM     13  O   UNL     1       1.864   7.924  17.380  0.00  0.00    +0.000 OA
ATOM     14  C   UNL     1       2.663   9.020  17.824  0.00  0.00    +0.000 C 
ATOM     15  C   UNL     1       2.033   9.681  19.043  0.00  0.00    +0.000 C 
ATOM     16  O   UNL     1       1.709   8.782  20.112  0.00  0.00    +0.000 OA
ENDBRANCH   5   7
BRANCH   1  19
ATOM     17  C   UNL     1       6.064   5.082  16.180  0.00  0.00    +0.000 A 
ATOM     18  C   UNL     1       5.193   4.038  16.539  0.00  0.00    +0.000 A 
ATOM     19  C   UNL     1       4.959   3.741  17.874  0.00  0.00    +0.000 A 
ATOM     20  C   UNL     1       5.730   4.368  18.853  0.00  0.00    +0.000 A 
ATOM     21  C   UNL     1       6.622   5.393  18.525  0.00  0.00    +0.000 A 
ATOM     22  C   UNL     1       6.796   5.767  17.176  0.00  0.00    +0.000 A 
BRANCH  17  24
ATOM     23  C   UNL     1       6.308   4.373  13.919  0.00  0.00    +0.000 C 
ATOM     24  O   UNL     1       6.204   5.440  14.865  0.00  0.00    +0.000 OA
ENDBRANCH  17  24
BRANCH  21  25
ATOM     25  O   UNL     1       7.162   5.938  19.661  0.00  0.00    +0.000 OA
ATOM     26  C   UNL     1       8.392   5.445  20.163  0.00  0.00    +0.000 C 
ENDBRANCH  21  25
BRANCH  22  27
ATOM     27  O   UNL     1       7.690   6.785  16.957  0.00  0.00    +0.000 OA
ATOM     28  C   UNL     1       7.448   8.085  17.470  0.00  0.00    +0.000 C 
ENDBRANCH  22  27
ENDBRANCH   1  19
TORSDOF 5
ENDMDL
