MODEL 1
REMARK VINA RESULT:      -7.3      0.000      0.000
REMARK  Name = 
REMARK  4 active torsions:
REMARK  status: ('A' for Active; 'I' for Inactive)
REMARK    1  A    between atoms: N_6  and  S_7
REMARK    2  A    between atoms: S_7  and  C_10
REMARK    3  A    between atoms: N_23  and  C_24
REMARK    4  A    between atoms: C_24  and  C_25
REMARK                            x       y       z     vdW  Elec       q    Type
REMARK                         _______ _______ _______ _____ _____    ______ ____
ROOT
ATOM      1  O   UNL     1       0.931   8.894  17.747  0.00  0.00    +0.000 OA
ATOM      2  C   UNL     1       0.988   9.125  18.953  0.00  0.00    +0.000 C 
ATOM      3  C   UNL     1       0.509  10.463  19.561  0.00  0.00    +0.000 C 
ATOM      4  C   UNL     1       1.709  11.418  19.396  0.00  0.00    +0.000 C 
ATOM      5  C   UNL     1       1.775  12.706  20.206  0.00  0.00    +0.000 C 
ATOM      6  N   UNL     1       0.477  13.296  20.572  0.00  0.00    +0.000 NA
ATOM      7  C   UNL     1      -0.122  12.682  21.792  0.00  0.00    +0.000 C 
ATOM      8  C   UNL     1      -0.847  11.369  21.477  0.00  0.00    +0.000 C 
ATOM      9  N   UNL     1       0.033  10.320  20.945  0.00  0.00    +0.000 N 
ATOM     10  C   UNL     1       0.679   9.465  21.828  0.00  0.00    +0.000 C 
ATOM     11  O   UNL     1       0.581   9.570  23.050  0.00  0.00    +0.000 OA
ATOM     12  C   UNL     1       1.256   8.208  21.174  0.00  0.00    +0.000 C 
ATOM     13  N   UNL     1       1.794   8.415  19.840  0.00  0.00    +0.000 N 
ENDROOT
BRANCH   6  14
ATOM     14  S   UNL     1      -0.568  13.906  19.384  0.00  0.00    +0.000 S 
ATOM     15  O   UNL     1      -0.301  13.244  18.125  0.00  0.00    +0.000 OA
ATOM     16  O   UNL     1      -1.904  13.875  19.949  0.00  0.00    +0.000 OA
BRANCH  14  17
ATOM     17  C   UNL     1      -0.156  15.612  19.186  0.00  0.00    +0.000 A 
ATOM     18  C   UNL     1      -1.127  16.591  19.444  0.00  0.00    +0.000 A 
ATOM     19  C   UNL     1      -0.868  17.930  19.141  0.00  0.00    +0.000 A 
ATOM     20  C   UNL     1       0.360  18.297  18.594  0.00  0.00    +0.000 A 
ATOM     21  C   UNL     1       1.324  17.322  18.339  0.00  0.00    +0.000 A 
ATOM     22  C   UNL     1       1.055  15.982  18.619  0.00  0.00    +0.000 A 
ATOM     23  F   UNL     1       1.987  15.076  18.297  0.00  0.00    +0.000 F 
ENDBRANCH  14  17
ENDBRANCH   6  14
BRANCH  13  24
ATOM     24  C   UNL     1       2.765   7.460  19.330  0.00  0.00    +0.000 C 
BRANCH  24  25
ATOM     25  C   UNL     1       2.208   6.050  19.316  0.00  0.00    +0.000 A 
ATOM     26  C   UNL     1       1.830   5.407  20.509  0.00  0.00    +0.000 A 
ATOM     27  C   UNL     1       1.271   4.127  20.480  0.00  0.00    +0.000 A 
ATOM     28  C   UNL     1       1.088   3.468  19.267  0.00  0.00    +0.000 A 
ATOM     29  C   UNL     1       1.480   4.083  18.081  0.00  0.00    +0.000 A 
ATOM     30  C   UNL     1       2.048   5.360  18.102  0.00  0.00    +0.000 A 
ENDBRANCH  24  25
ENDBRANCH  13  24
TORSDOF 4
ENDMDL
MODEL 2
REMARK VINA RESULT:      -7.3      4.040      6.343
REMARK  Name = 
REMARK  4 active torsions:
REMARK  status: ('A' for Active; 'I' for Inactive)
REMARK    1  A    between atoms: N_6  and  S_7
REMARK    2  A    between atoms: S_7  and  C_10
REMARK    3  A    between atoms: N_23  and  C_24
REMARK    4  A    between atoms: C_24  and  C_25
REMARK                            x       y       z     vdW  Elec       q    Type
REMARK                         _______ _______ _______ _____ _____    ______ ____
ROOT
ATOM      1  O   UNL     1      -0.710  10.280  21.160  0.00  0.00    +0.000 OA
ATOM      2  C   UNL     1      -0.395  11.316  20.578  0.00  0.00    +0.000 C 
ATOM      3  C   UNL     1      -0.588  12.712  21.214  0.00  0.00    +0.000 C 
ATOM      4  C   UNL     1      -2.057  13.077  20.915  0.00  0.00    +0.000 C 
ATOM      5  C   UNL     1      -2.524  14.521  21.037  0.00  0.00    +0.000 C 
ATOM      6  N   UNL     1      -1.803  15.342  22.024  0.00  0.00    +0.000 NA
ATOM      7  C   UNL     1      -0.528  15.908  21.496  0.00  0.00    +0.000 C 
ATOM      8  C   UNL     1       0.619  14.893  21.555  0.00  0.00    +0.000 C 
ATOM      9  N   UNL     1       0.392  13.697  20.734  0.00  0.00    +0.000 N 
ATOM     10  C   UNL     1       0.793  13.701  19.404  0.00  0.00    +0.000 C 
ATOM     11  O   UNL     1       1.297  14.684  18.863  0.00  0.00    +0.000 OA
ATOM     12  C   UNL     1       0.851  12.314  18.762  0.00  0.00    +0.000 C 
ATOM     13  N   UNL     1      -0.191  11.401  19.203  0.00  0.00    +0.000 N 
ENDROOT
BRANCH   6  14
ATOM     14  S   UNL     1      -1.904  14.999  23.682  0.00  0.00    +0.000 S 
ATOM     15  O   UNL     1      -0.928  13.986  24.022  0.00  0.00    +0.000 OA
ATOM     16  O   UNL     1      -1.894  16.275  24.372  0.00  0.00    +0.000 OA
BRANCH  14  17
ATOM     17  C   UNL     1      -3.506  14.307  23.950  0.00  0.00    +0.000 A 
ATOM     18  C   UNL     1      -3.620  12.972  24.367  0.00  0.00    +0.000 A 
ATOM     19  C   UNL     1      -4.877  12.364  24.431  0.00  0.00    +0.000 A 
ATOM     20  C   UNL     1      -6.020  13.086  24.091  0.00  0.00    +0.000 A 
ATOM     21  C   UNL     1      -5.903  14.413  23.677  0.00  0.00    +0.000 A 
ATOM     22  C   UNL     1      -4.646  15.011  23.591  0.00  0.00    +0.000 A 
ATOM     23  F   UNL     1      -4.581  16.265  23.126  0.00  0.00    +0.000 F 
ENDBRANCH  14  17
ENDBRANCH   6  14
BRANCH  13  24
ATOM     24  C   UNL     1      -0.527  10.271  18.350  0.00  0.00    +0.000 C 
BRANCH  24  25
ATOM     25  C   UNL     1      -1.821  10.506  17.597  0.00  0.00    +0.000 A 
ATOM     26  C   UNL     1      -2.067   9.877  16.362  0.00  0.00    +0.000 A 
ATOM     27  C   UNL     1      -3.284  10.060  15.701  0.00  0.00    +0.000 A 
ATOM     28  C   UNL     1      -4.267  10.877  16.253  0.00  0.00    +0.000 A 
ATOM     29  C   UNL     1      -4.027  11.527  17.462  0.00  0.00    +0.000 A 
ATOM     30  C   UNL     1      -2.810  11.354  18.126  0.00  0.00    +0.000 A 
ENDBRANCH  24  25
ENDBRANCH  13  24
TORSDOF 4
ENDMDL
MODEL 3
REMARK VINA RESULT:      -7.2      3.049      3.993
REMARK  Name = 
REMARK  4 active torsions:
REMARK  status: ('A' for Active; 'I' for Inactive)
REMARK    1  A    between atoms: N_6  and  S_7
REMARK    2  A    between atoms: S_7  and  C_10
REMARK    3  A    between atoms: N_23  and  C_24
REMARK    4  A    between atoms: C_24  and  C_25
REMARK                            x       y       z     vdW  Elec       q    Type
REMARK                         _______ _______ _______ _____ _____    ______ ____
ROOT
ATOM      1  O   UNL     1       2.594  11.808  18.327  0.00  0.00    +0.000 OA
ATOM      2  C   UNL     1       1.478  11.317  18.485  0.00  0.00    +0.000 C 
ATOM      3  C   UNL     1       0.418  11.955  19.411  0.00  0.00    +0.000 C 
ATOM      4  C   UNL     1       0.766  11.435  20.821  0.00  0.00    +0.000 C 
ATOM      5  C   UNL     1      -0.260  11.524  21.942  0.00  0.00    +0.000 C 
ATOM      6  N   UNL     1      -1.217  12.639  21.842  0.00  0.00    +0.000 NA
ATOM      7  C   UNL     1      -2.373  12.339  20.948  0.00  0.00    +0.000 C 
ATOM      8  C   UNL     1      -2.026  12.551  19.470  0.00  0.00    +0.000 C 
ATOM      9  N   UNL     1      -0.959  11.668  18.981  0.00  0.00    +0.000 N 
ATOM     10  C   UNL     1      -1.292  10.421  18.470  0.00  0.00    +0.000 C 
ATOM     11  O   UNL     1      -2.447   9.998  18.444  0.00  0.00    +0.000 OA
ATOM     12  C   UNL     1      -0.175   9.755  17.664  0.00  0.00    +0.000 C 
ATOM     13  N   UNL     1       1.164   9.995  18.176  0.00  0.00    +0.000 N 
ENDROOT
BRANCH   6  14
ATOM     14  S   UNL     1      -0.696  14.247  21.971  0.00  0.00    +0.000 S 
ATOM     15  O   UNL     1       0.653  14.274  22.492  0.00  0.00    +0.000 OA
ATOM     16  O   UNL     1      -0.995  14.884  20.701  0.00  0.00    +0.000 OA
BRANCH  14  17
ATOM     17  C   UNL     1      -1.744  15.016  23.166  0.00  0.00    +0.000 A 
ATOM     18  C   UNL     1      -1.378  14.996  24.520  0.00  0.00    +0.000 A 
ATOM     19  C   UNL     1      -2.269  15.458  25.493  0.00  0.00    +0.000 A 
ATOM     20  C   UNL     1      -3.518  15.950  25.118  0.00  0.00    +0.000 A 
ATOM     21  C   UNL     1      -3.880  15.969  23.770  0.00  0.00    +0.000 A 
ATOM     22  C   UNL     1      -2.999  15.485  22.803  0.00  0.00    +0.000 A 
ATOM     23  F   UNL     1      -3.417  15.464  21.531  0.00  0.00    +0.000 F 
ENDBRANCH  14  17
ENDBRANCH   6  14
BRANCH  13  24
ATOM     24  C   UNL     1       2.221   9.066  17.810  0.00  0.00    +0.000 C 
BRANCH  24  25
ATOM     25  C   UNL     1       2.192   7.819  18.672  0.00  0.00    +0.000 A 
ATOM     26  C   UNL     1       1.803   7.879  20.023  0.00  0.00    +0.000 A 
ATOM     27  C   UNL     1       1.731   6.716  20.794  0.00  0.00    +0.000 A 
ATOM     28  C   UNL     1       2.054   5.482  20.236  0.00  0.00    +0.000 A 
ATOM     29  C   UNL     1       2.465   5.411  18.907  0.00  0.00    +0.000 A 
ATOM     30  C   UNL     1       2.546   6.571  18.131  0.00  0.00    +0.000 A 
ENDBRANCH  24  25
ENDBRANCH  13  24
TORSDOF 4
ENDMDL
MODEL 4
REMARK VINA RESULT:      -7.2      2.929      4.539
REMARK  Name = 
REMARK  4 active torsions:
REMARK  status: ('A' for Active; 'I' for Inactive)
REMARK    1  A    between atoms: N_6  and  S_7
REMARK    2  A    between atoms: S_7  and  C_10
REMARK    3  A    between atoms: N_23  and  C_24
REMARK    4  A    between atoms: C_24  and  C_25
REMARK                            x       y       z     vdW  Elec       q    Type
REMARK                         _______ _______ _______ _____ _____    ______ ____
ROOT
ATOM      1  O   UNL     1       0.988   8.582  20.825  0.00  0.00    +0.000 OA
ATOM      2  C   UNL     1       1.113   9.578  20.115  0.00  0.00    +0.000 C 
ATOM      3  C   UNL     1       0.661  10.983  20.575  0.00  0.00    +0.000 C 
ATOM      4  C   UNL     1      -0.847  11.033  20.253  0.00  0.00    +0.000 C 
ATOM      5  C   UNL     1      -1.572  12.371  20.201  0.00  0.00    +0.000 C 
ATOM      6  N   UNL     1      -1.023  13.426  21.068  0.00  0.00    +0.000 NA
ATOM      7  C   UNL     1       0.131  14.145  20.457  0.00  0.00    +0.000 C 
ATOM      8  C   UNL     1       1.444  13.373  20.626  0.00  0.00    +0.000 C 
ATOM      9  N   UNL     1       1.448  12.063  19.963  0.00  0.00    +0.000 N 
ATOM     10  C   UNL     1       1.854  11.975  18.638  0.00  0.00    +0.000 C 
ATOM     11  O   UNL     1       2.174  12.959  17.971  0.00  0.00    +0.000 OA
ATOM     12  C   UNL     1       2.172  10.553  18.172  0.00  0.00    +0.000 C 
ATOM     13  N   UNL     1       1.312   9.527  18.737  0.00  0.00    +0.000 N 
ENDROOT
BRANCH   6  14
ATOM     14  S   UNL     1      -1.075  13.279  22.757  0.00  0.00    +0.000 S 
ATOM     15  O   UNL     1      -0.683  11.938  23.134  0.00  0.00    +0.000 OA
ATOM     16  O   UNL     1      -0.360  14.421  23.296  0.00  0.00    +0.000 OA
BRANCH  14  17
ATOM     17  C   UNL     1      -2.765  13.491  23.224  0.00  0.00    +0.000 A 
ATOM     18  C   UNL     1      -3.421  12.467  23.924  0.00  0.00    +0.000 A 
ATOM     19  C   UNL     1      -4.796  12.552  24.161  0.00  0.00    +0.000 A 
ATOM     20  C   UNL     1      -5.515  13.659  23.712  0.00  0.00    +0.000 A 
ATOM     21  C   UNL     1      -4.859  14.675  23.016  0.00  0.00    +0.000 A 
ATOM     22  C   UNL     1      -3.492  14.578  22.760  0.00  0.00    +0.000 A 
ATOM     23  F   UNL     1      -2.922  15.546  22.032  0.00  0.00    +0.000 F 
ENDBRANCH  14  17
ENDBRANCH   6  14
BRANCH  13  24
ATOM     24  C   UNL     1       1.197   8.258  18.036  0.00  0.00    +0.000 C 
BRANCH  24  25
ATOM     25  C   UNL     1       2.466   7.437  18.154  0.00  0.00    +0.000 A 
ATOM     26  C   UNL     1       2.595   6.436  19.133  0.00  0.00    +0.000 A 
ATOM     27  C   UNL     1       3.750   5.651  19.200  0.00  0.00    +0.000 A 
ATOM     28  C   UNL     1       4.792   5.858  18.300  0.00  0.00    +0.000 A 
ATOM     29  C   UNL     1       4.688   6.863  17.341  0.00  0.00    +0.000 A 
ATOM     30  C   UNL     1       3.540   7.656  17.273  0.00  0.00    +0.000 A 
ENDBRANCH  24  25
ENDBRANCH  13  24
TORSDOF 4
ENDMDL
MODEL 5
REMARK VINA RESULT:      -7.2      2.968      3.854
REMARK  Name = 
REMARK  4 active torsions:
REMARK  status: ('A' for Active; 'I' for Inactive)
REMARK    1  A    between atoms: N_6  and  S_7
REMARK    2  A    between atoms: S_7  and  C_10
REMARK    3  A    between atoms: N_23  and  C_24
REMARK    4  A    between atoms: C_24  and  C_25
REMARK                            x       y       z     vdW  Elec       q    Type
REMARK                         _______ _______ _______ _____ _____    ______ ____
ROOT
ATOM      1  O   UNL     1       2.694  11.636  18.247  0.00  0.00    +0.000 OA
ATOM      2  C   UNL     1       1.561  11.197  18.434  0.00  0.00    +0.000 C 
ATOM      3  C   UNL     1       0.556  11.885  19.385  0.00  0.00    +0.000 C 
ATOM      4  C   UNL     1       0.915  11.350  20.787  0.00  0.00    +0.000 C 
ATOM      5  C   UNL     1      -0.077  11.488  21.934  0.00  0.00    +0.000 C 
ATOM      6  N   UNL     1      -0.982  12.647  21.856  0.00  0.00    +0.000 NA
ATOM      7  C   UNL     1      -2.173  12.402  20.993  0.00  0.00    +0.000 C 
ATOM      8  C   UNL     1      -1.855  12.596  19.506  0.00  0.00    +0.000 C 
ATOM      9  N   UNL     1      -0.843  11.664  18.992  0.00  0.00    +0.000 N 
ATOM     10  C   UNL     1      -1.248  10.434  18.491  0.00  0.00    +0.000 C 
ATOM     11  O   UNL     1      -2.422  10.065  18.495  0.00  0.00    +0.000 OA
ATOM     12  C   UNL     1      -0.185   9.715  17.658  0.00  0.00    +0.000 C 
ATOM     13  N   UNL     1       1.177   9.891  18.136  0.00  0.00    +0.000 N 
ENDROOT
BRANCH   6  14
ATOM     14  S   UNL     1      -0.383  14.229  21.969  0.00  0.00    +0.000 S 
ATOM     15  O   UNL     1       1.044  14.186  22.201  0.00  0.00    +0.000 OA
ATOM     16  O   UNL     1      -0.909  14.955  20.828  0.00  0.00    +0.000 OA
BRANCH  14  17
ATOM     17  C   UNL     1      -1.134  14.946  23.397  0.00  0.00    +0.000 A 
ATOM     18  C   UNL     1      -2.140  14.241  24.076  0.00  0.00    +0.000 A 
ATOM     19  C   UNL     1      -2.852  14.857  25.108  0.00  0.00    +0.000 A 
ATOM     20  C   UNL     1      -2.557  16.170  25.472  0.00  0.00    +0.000 A 
ATOM     21  C   UNL     1      -1.556  16.869  24.796  0.00  0.00    +0.000 A 
ATOM     22  C   UNL     1      -0.863  16.260  23.750  0.00  0.00    +0.000 A 
ATOM     23  F   UNL     1       0.042  16.993  23.090  0.00  0.00    +0.000 F 
ENDBRANCH  14  17
ENDBRANCH   6  14
BRANCH  13  24
ATOM     24  C   UNL     1       2.179   8.913  17.745  0.00  0.00    +0.000 C 
BRANCH  24  25
ATOM     25  C   UNL     1       2.155   7.697  18.649  0.00  0.00    +0.000 A 
ATOM     26  C   UNL     1       1.814   7.810  20.009  0.00  0.00    +0.000 A 
ATOM     27  C   UNL     1       1.746   6.674  20.821  0.00  0.00    +0.000 A 
ATOM     28  C   UNL     1       2.024   5.416  20.295  0.00  0.00    +0.000 A 
ATOM     29  C   UNL     1       2.388   5.293  18.956  0.00  0.00    +0.000 A 
ATOM     30  C   UNL     1       2.466   6.424  18.139  0.00  0.00    +0.000 A 
ENDBRANCH  24  25
ENDBRANCH  13  24
TORSDOF 4
ENDMDL
MODEL 6
REMARK VINA RESULT:      -7.1      2.795      4.149
REMARK  Name = 
REMARK  4 active torsions:
REMARK  status: ('A' for Active; 'I' for Inactive)
REMARK    1  A    between atoms: N_6  and  S_7
REMARK    2  A    between atoms: S_7  and  C_10
REMARK    3  A    between atoms: N_23  and  C_24
REMARK    4  A    between atoms: C_24  and  C_25
REMARK                            x       y       z     vdW  Elec       q    Type
REMARK                         _______ _______ _______ _____ _____    ______ ____
ROOT
ATOM      1  O   UNL     1       1.544   8.464  22.316  0.00  0.00    +0.000 OA
ATOM      2  C   UNL     1       1.500   8.728  21.116  0.00  0.00    +0.000 C 
ATOM      3  C   UNL     1       0.961  10.077  20.586  0.00  0.00    +0.000 C 
ATOM      4  C   UNL     1      -0.569   9.888  20.525  0.00  0.00    +0.000 C 
ATOM      5  C   UNL     1      -1.423  10.842  19.701  0.00  0.00    +0.000 C 
ATOM      6  N   UNL     1      -0.897  12.210  19.563  0.00  0.00    +0.000 NA
ATOM      7  C   UNL     1       0.115  12.341  18.475  0.00  0.00    +0.000 C 
ATOM      8  C   UNL     1       1.507  11.889  18.929  0.00  0.00    +0.000 C 
ATOM      9  N   UNL     1       1.574  10.473  19.309  0.00  0.00    +0.000 N 
ATOM     10  C   UNL     1       1.853   9.522  18.337  0.00  0.00    +0.000 C 
ATOM     11  O   UNL     1       2.008   9.807  17.150  0.00  0.00    +0.000 OA
ATOM     12  C   UNL     1       2.261   8.157  18.893  0.00  0.00    +0.000 C 
ATOM     13  N   UNL     1       1.565   7.768  20.108  0.00  0.00    +0.000 N 
ENDROOT
BRANCH   6  14
ATOM     14  S   UNL     1      -0.767  13.232  20.910  0.00  0.00    +0.000 S 
ATOM     15  O   UNL     1       0.332  12.792  21.741  0.00  0.00    +0.000 OA
ATOM     16  O   UNL     1      -0.791  14.592  20.403  0.00  0.00    +0.000 OA
BRANCH  14  17
ATOM     17  C   UNL     1      -2.254  13.026  21.838  0.00  0.00    +0.000 A 
ATOM     18  C   UNL     1      -3.378  13.805  21.523  0.00  0.00    +0.000 A 
ATOM     19  C   UNL     1      -4.508  13.768  22.345  0.00  0.00    +0.000 A 
ATOM     20  C   UNL     1      -4.523  12.950  23.473  0.00  0.00    +0.000 A 
ATOM     21  C   UNL     1      -3.404  12.177  23.784  0.00  0.00    +0.000 A 
ATOM     22  C   UNL     1      -2.269  12.233  22.976  0.00  0.00    +0.000 A 
ATOM     23  F   UNL     1      -1.198  11.523  23.352  0.00  0.00    +0.000 F 
ENDBRANCH  14  17
ENDBRANCH   6  14
BRANCH  13  24
ATOM     24  C   UNL     1       1.506   6.356  20.450  0.00  0.00    +0.000 C 
BRANCH  24  25
ATOM     25  C   UNL     1       2.344   5.516  19.506  0.00  0.00    +0.000 A 
ATOM     26  C   UNL     1       3.739   5.425  19.660  0.00  0.00    +0.000 A 
ATOM     27  C   UNL     1       4.495   4.608  18.815  0.00  0.00    +0.000 A 
ATOM     28  C   UNL     1       3.876   3.879  17.803  0.00  0.00    +0.000 A 
ATOM     29  C   UNL     1       2.498   3.980  17.624  0.00  0.00    +0.000 A 
ATOM     30  C   UNL     1       1.736   4.801  18.460  0.00  0.00    +0.000 A 
ENDBRANCH  24  25
ENDBRANCH  13  24
TORSDOF 4
ENDMDL
MODEL 7
REMARK VINA RESULT:      -7.1      1.039      1.329
REMARK  Name = 
REMARK  4 active torsions:
REMARK  status: ('A' for Active; 'I' for Inactive)
REMARK    1  A    between atoms: N_6  and  S_7
REMARK    2  A    between atoms: S_7  and  C_10
REMARK    3  A    between atoms: N_23  and  C_24
REMARK    4  A    between atoms: C_24  and  C_25
REMARK                            x       y       z     vdW  Elec       q    Type
REMARK                         _______ _______ _______ _____ _____    ______ ____
ROOT
ATOM      1  O   UNL     1       1.678   8.939  17.727  0.00  0.00    +0.000 OA
ATOM      2  C   UNL     1       1.295   9.049  18.890  0.00  0.00    +0.000 C 
ATOM      3  C   UNL     1       0.687  10.360  19.439  0.00  0.00    +0.000 C 
ATOM      4  C   UNL     1       1.906  11.218  19.837  0.00  0.00    +0.000 C 
ATOM      5  C   UNL     1       1.727  12.412  20.765  0.00  0.00    +0.000 C 
ATOM      6  N   UNL     1       0.415  13.077  20.702  0.00  0.00    +0.000 NA
ATOM      7  C   UNL     1      -0.622  12.405  21.537  0.00  0.00    +0.000 C 
ATOM      8  C   UNL     1      -1.239  11.196  20.825  0.00  0.00    +0.000 C 
ATOM      9  N   UNL     1      -0.274  10.130  20.527  0.00  0.00    +0.000 N 
ATOM     10  C   UNL     1      -0.043   9.141  21.474  0.00  0.00    +0.000 C 
ATOM     11  O   UNL     1      -0.582   9.138  22.580  0.00  0.00    +0.000 OA
ATOM     12  C   UNL     1       0.676   7.906  20.929  0.00  0.00    +0.000 C 
ATOM     13  N   UNL     1       1.680   8.190  19.917  0.00  0.00    +0.000 N 
ENDROOT
BRANCH   6  14
ATOM     14  S   UNL     1      -0.085  13.886  19.298  0.00  0.00    +0.000 S 
ATOM     15  O   UNL     1      -0.262  12.927  18.229  0.00  0.00    +0.000 OA
ATOM     16  O   UNL     1      -1.184  14.751  19.686  0.00  0.00    +0.000 OA
BRANCH  14  17
ATOM     17  C   UNL     1       1.244  14.956  18.840  0.00  0.00    +0.000 A 
ATOM     18  C   UNL     1       1.177  16.318  19.167  0.00  0.00    +0.000 A 
ATOM     19  C   UNL     1       2.140  17.204  18.676  0.00  0.00    +0.000 A 
ATOM     20  C   UNL     1       3.174  16.732  17.869  0.00  0.00    +0.000 A 
ATOM     21  C   UNL     1       3.238  15.377  17.545  0.00  0.00    +0.000 A 
ATOM     22  C   UNL     1       2.263  14.499  18.016  0.00  0.00    +0.000 A 
ATOM     23  F   UNL     1       2.330  13.220  17.625  0.00  0.00    +0.000 F 
ENDBRANCH  14  17
ENDBRANCH   6  14
BRANCH  13  24
ATOM     24  C   UNL     1       2.725   7.206  19.684  0.00  0.00    +0.000 C 
BRANCH  24  25
ATOM     25  C   UNL     1       2.150   5.822  19.461  0.00  0.00    +0.000 A 
ATOM     26  C   UNL     1       1.709   5.036  20.542  0.00  0.00    +0.000 A 
ATOM     27  C   UNL     1       1.134   3.782  20.321  0.00  0.00    +0.000 A 
ATOM     28  C   UNL     1       0.996   3.291  19.026  0.00  0.00    +0.000 A 
ATOM     29  C   UNL     1       1.451   4.047  17.948  0.00  0.00    +0.000 A 
ATOM     30  C   UNL     1       2.035   5.299  18.161  0.00  0.00    +0.000 A 
ENDBRANCH  24  25
ENDBRANCH  13  24
TORSDOF 4
ENDMDL
MODEL 8
REMARK VINA RESULT:      -7.1      3.564      8.167
REMARK  Name = 
REMARK  4 active torsions:
REMARK  status: ('A' for Active; 'I' for Inactive)
REMARK    1  A    between atoms: N_6  and  S_7
REMARK    2  A    between atoms: S_7  and  C_10
REMARK    3  A    between atoms: N_23  and  C_24
REMARK    4  A    between atoms: C_24  and  C_25
REMARK                            x       y       z     vdW  Elec       q    Type
REMARK                         _______ _______ _______ _____ _____    ______ ____
ROOT
ATOM      1  O   UNL     1       3.422  14.524  22.366  0.00  0.00    +0.000 OA
ATOM      2  C   UNL     1       2.706  14.875  21.430  0.00  0.00    +0.000 C 
ATOM      3  C   UNL     1       1.727  13.905  20.730  0.00  0.00    +0.000 C 
ATOM      4  C   UNL     1       2.592  13.160  19.692  0.00  0.00    +0.000 C 
ATOM      5  C   UNL     1       1.929  12.403  18.549  0.00  0.00    +0.000 C 
ATOM      6  N   UNL     1       0.589  11.865  18.835  0.00  0.00    +0.000 NA
ATOM      7  C   UNL     1      -0.496  12.873  18.659  0.00  0.00    +0.000 C 
ATOM      8  C   UNL     1      -0.639  13.783  19.884  0.00  0.00    +0.000 C 
ATOM      9  N   UNL     1       0.555  14.590  20.163  0.00  0.00    +0.000 N 
ATOM     10  C   UNL     1       0.689  15.834  19.563  0.00  0.00    +0.000 C 
ATOM     11  O   UNL     1      -0.135  16.282  18.766  0.00  0.00    +0.000 OA
ATOM     12  C   UNL     1       1.756  16.726  20.198  0.00  0.00    +0.000 C 
ATOM     13  N   UNL     1       2.936  16.017  20.665  0.00  0.00    +0.000 N 
ENDROOT
BRANCH   6  14
ATOM     14  S   UNL     1       0.369  10.641  19.988  0.00  0.00    +0.000 S 
ATOM     15  O   UNL     1       0.903  11.079  21.259  0.00  0.00    +0.000 OA
ATOM     16  O   UNL     1      -1.017  10.221  19.889  0.00  0.00    +0.000 OA
BRANCH  14  17
ATOM     17  C   UNL     1       1.339   9.268  19.447  0.00  0.00    +0.000 A 
ATOM     18  C   UNL     1       1.737   9.190  18.104  0.00  0.00    +0.000 A 
ATOM     19  C   UNL     1       2.366   8.037  17.627  0.00  0.00    +0.000 A 
ATOM     20  C   UNL     1       2.609   6.968  18.487  0.00  0.00    +0.000 A 
ATOM     21  C   UNL     1       2.213   7.048  19.822  0.00  0.00    +0.000 A 
ATOM     22  C   UNL     1       1.563   8.190  20.291  0.00  0.00    +0.000 A 
ATOM     23  F   UNL     1       1.144   8.193  21.563  0.00  0.00    +0.000 F 
ENDBRANCH  14  17
ENDBRANCH   6  14
BRANCH  13  24
ATOM     24  C   UNL     1       4.172  16.764  20.834  0.00  0.00    +0.000 C 
BRANCH  24  25
ATOM     25  C   UNL     1       5.301  16.168  20.018  0.00  0.00    +0.000 A 
ATOM     26  C   UNL     1       5.076  15.669  18.721  0.00  0.00    +0.000 A 
ATOM     27  C   UNL     1       6.135  15.169  17.959  0.00  0.00    +0.000 A 
ATOM     28  C   UNL     1       7.427  15.149  18.477  0.00  0.00    +0.000 A 
ATOM     29  C   UNL     1       7.660  15.616  19.768  0.00  0.00    +0.000 A 
ATOM     30  C   UNL     1       6.606  16.112  20.541  0.00  0.00    +0.000 A 
ENDBRANCH  24  25
ENDBRANCH  13  24
TORSDOF 4
ENDMDL
MODEL 9
REMARK VINA RESULT:      -7.1      4.437      6.631
REMARK  Name = 
REMARK  4 active torsions:
REMARK  status: ('A' for Active; 'I' for Inactive)
REMARK    1  A    between atoms: N_6  and  S_7
REMARK    2  A    between atoms: S_7  and  C_10
REMARK    3  A    between atoms: N_23  and  C_24
REMARK    4  A    between atoms: C_24  and  C_25
REMARK                            x       y       z     vdW  Elec       q    Type
REMARK                         _______ _______ _______ _____ _____    ______ ____
ROOT
ATOM      1  O   UNL     1      -1.182  10.571  21.839  0.00  0.00    +0.000 OA
ATOM      2  C   UNL     1      -0.846  11.617  21.287  0.00  0.00    +0.000 C 
ATOM      3  C   UNL     1      -1.283  13.004  21.809  0.00  0.00    +0.000 C 
ATOM      4  C   UNL     1      -2.687  13.224  21.209  0.00  0.00    +0.000 C 
ATOM      5  C   UNL     1      -3.291  14.621  21.172  0.00  0.00    +0.000 C 
ATOM      6  N   UNL     1      -2.857  15.530  22.245  0.00  0.00    +0.000 NA
ATOM      7  C   UNL     1      -1.555  16.198  21.955  0.00  0.00    +0.000 C 
ATOM      8  C   UNL     1      -0.361  15.296  22.285  0.00  0.00    +0.000 C 
ATOM      9  N   UNL     1      -0.314  14.063  21.489  0.00  0.00    +0.000 N 
ATOM     10  C   UNL     1       0.344  14.070  20.267  0.00  0.00    +0.000 C 
ATOM     11  O   UNL     1       0.860  15.081  19.793  0.00  0.00    +0.000 OA
ATOM     12  C   UNL     1       0.650  12.678  19.711  0.00  0.00    +0.000 C 
ATOM     13  N   UNL     1      -0.377  11.684  19.976  0.00  0.00    +0.000 N 
ENDROOT
BRANCH   6  14
ATOM     14  S   UNL     1      -3.260  15.223  23.863  0.00  0.00    +0.000 S 
ATOM     15  O   UNL     1      -2.335  14.254  24.411  0.00  0.00    +0.000 OA
ATOM     16  O   UNL     1      -3.419  16.515  24.505  0.00  0.00    +0.000 OA
BRANCH  14  17
ATOM     17  C   UNL     1      -4.862  14.481  23.846  0.00  0.00    +0.000 A 
ATOM     18  C   UNL     1      -6.000  15.298  23.787  0.00  0.00    +0.000 A 
ATOM     19  C   UNL     1      -7.273  14.738  23.932  0.00  0.00    +0.000 A 
ATOM     20  C   UNL     1      -7.412  13.364  24.124  0.00  0.00    +0.000 A 
ATOM     21  C   UNL     1      -6.278  12.554  24.183  0.00  0.00    +0.000 A 
ATOM     22  C   UNL     1      -5.008  13.118  24.062  0.00  0.00    +0.000 A 
ATOM     23  F   UNL     1      -3.950  12.308  24.190  0.00  0.00    +0.000 F 
ENDBRANCH  14  17
ENDBRANCH   6  14
BRANCH  13  24
ATOM     24  C   UNL     1      -0.436  10.506  19.125  0.00  0.00    +0.000 C 
BRANCH  24  25
ATOM     25  C   UNL     1      -1.587  10.585  18.142  0.00  0.00    +0.000 A 
ATOM     26  C   UNL     1      -1.601   9.799  16.975  0.00  0.00    +0.000 A 
ATOM     27  C   UNL     1      -2.691   9.842  16.102  0.00  0.00    +0.000 A 
ATOM     28  C   UNL     1      -3.775  10.672  16.372  0.00  0.00    +0.000 A 
ATOM     29  C   UNL     1      -3.764  11.474  17.511  0.00  0.00    +0.000 A 
ATOM     30  C   UNL     1      -2.675  11.443  18.386  0.00  0.00    +0.000 A 
ENDBRANCH  24  25
ENDBRANCH  13  24
TORSDOF 4
ENDMDL
