MODEL 1
REMARK VINA RESULT:      -8.5      0.000      0.000
REMARK  Name = 
REMARK  4 active torsions:
REMARK  status: ('A' for Active; 'I' for Inactive)
REMARK    1  A    between atoms: C_1  and  N_2
REMARK    2  A    between atoms: C_6  and  N_7
REMARK    3  A    between atoms: C_8  and  C_10
REMARK    4  A    between atoms: C_15  and  C_16
REMARK                            x       y       z     vdW  Elec       q    Type
REMARK                         _______ _______ _______ _____ _____    ______ ____
ROOT
ATOM      1  N   UNL     1       3.804   5.095  17.146  0.00  0.00    +0.000 N 
ATOM      2  C   UNL     1       5.211   4.784  17.192  0.00  0.00    +0.000 C 
ATOM      3  O   UNL     1       5.749   4.557  18.263  0.00  0.00    +0.000 OA
ATOM      4  H   UNL     1       3.297   5.032  16.273  0.00  0.00    +0.000 HD
ENDROOT
BRANCH   1  10
ATOM      5  C   UNL     1       2.591   7.652  18.700  0.00  0.00    +0.000 C 
ATOM      6  N   UNL     1       2.555   6.248  19.030  0.00  0.00    +0.000 N 
ATOM      7  N   UNL     1       1.804   5.913  20.099  0.00  0.00    +0.000 NA
ATOM      8  C   UNL     1       1.849   4.588  20.126  0.00  0.00    +0.000 A 
ATOM      9  C   UNL     1       2.584   4.048  19.039  0.00  0.00    +0.000 A 
ATOM     10  C   UNL     1       3.038   5.152  18.327  0.00  0.00    +0.000 A 
ATOM     11  C   UNL     1       2.824   2.577  18.929  0.00  0.00    +0.000 C 
ATOM     12  C   UNL     1       1.884   1.769  19.858  0.00  0.00    +0.000 C 
ATOM     13  C   UNL     1       1.755   2.382  21.264  0.00  0.00    +0.000 C 
ATOM     14  C   UNL     1       1.175   3.799  21.196  0.00  0.00    +0.000 C 
ENDBRANCH   1  10
BRANCH   2  15
ATOM     15  C   UNL     1       5.928   4.686  15.860  0.00  0.00    +0.000 A 
ATOM     16  C   UNL     1       7.039   5.435  15.725  0.00  0.00    +0.000 A 
ATOM     17  N   UNL     1       7.720   5.508  14.534  0.00  0.00    +0.000 N 
ATOM     18  C   UNL     1       7.334   4.870  13.375  0.00  0.00    +0.000 A 
ATOM     19  O   UNL     1       7.997   4.997  12.351  0.00  0.00    +0.000 OA
ATOM     20  C   UNL     1       6.104   4.056  13.478  0.00  0.00    +0.000 A 
ATOM     21  C   UNL     1       5.459   3.966  14.677  0.00  0.00    +0.000 A 
ATOM     22  H   UNL     1       8.558   6.084  14.447  0.00  0.00    +0.000 HD
BRANCH  20  23
ATOM     23  C   UNL     1       5.630   3.401  12.222  0.00  0.00    +0.000 C 
ATOM     24  F   UNL     1       5.961   2.103  12.046  0.00  0.00    +0.000 F 
ATOM     25  F   UNL     1       4.274   3.474  12.132  0.00  0.00    +0.000 F 
ATOM     26  F   UNL     1       6.108   4.067  11.134  0.00  0.00    +0.000 F 
ENDBRANCH  20  23
ENDBRANCH   2  15
TORSDOF 3
ENDMDL
MODEL 2
REMARK VINA RESULT:      -8.4      1.042      1.051
REMARK  Name = 
REMARK  4 active torsions:
REMARK  status: ('A' for Active; 'I' for Inactive)
REMARK    1  A    between atoms: C_1  and  N_2
REMARK    2  A    between atoms: C_6  and  N_7
REMARK    3  A    between atoms: C_8  and  C_10
REMARK    4  A    between atoms: C_15  and  C_16
REMARK                            x       y       z     vdW  Elec       q    Type
REMARK                         _______ _______ _______ _____ _____    ______ ____
ROOT
ATOM      1  N   UNL     1       4.598   5.292  17.830  0.00  0.00    +0.000 N 
ATOM      2  C   UNL     1       4.514   4.440  16.669  0.00  0.00    +0.000 C 
ATOM      3  O   UNL     1       3.548   3.709  16.520  0.00  0.00    +0.000 OA
ATOM      4  H   UNL     1       5.242   6.072  17.843  0.00  0.00    +0.000 HD
ENDROOT
BRANCH   1  10
ATOM      5  C   UNL     1       2.481   7.597  18.628  0.00  0.00    +0.000 C 
ATOM      6  N   UNL     1       2.703   6.287  19.192  0.00  0.00    +0.000 N 
ATOM      7  N   UNL     1       1.821   5.895  20.134  0.00  0.00    +0.000 NA
ATOM      8  C   UNL     1       2.170   4.646  20.408  0.00  0.00    +0.000 A 
ATOM      9  C   UNL     1       3.249   4.196  19.602  0.00  0.00    +0.000 A 
ATOM     10  C   UNL     1       3.583   5.285  18.806  0.00  0.00    +0.000 A 
ATOM     11  C   UNL     1       3.848   2.843  19.809  0.00  0.00    +0.000 C 
ATOM     12  C   UNL     1       2.934   1.931  20.665  0.00  0.00    +0.000 C 
ATOM     13  C   UNL     1       2.335   2.655  21.883  0.00  0.00    +0.000 C 
ATOM     14  C   UNL     1       1.469   3.842  21.448  0.00  0.00    +0.000 C 
ENDBRANCH   1  10
BRANCH   2  15
ATOM     15  C   UNL     1       5.626   4.572  15.648  0.00  0.00    +0.000 A 
ATOM     16  C   UNL     1       6.640   5.396  15.976  0.00  0.00    +0.000 A 
ATOM     17  N   UNL     1       7.656   5.675  15.095  0.00  0.00    +0.000 N 
ATOM     18  C   UNL     1       7.729   5.186  13.808  0.00  0.00    +0.000 A 
ATOM     19  O   UNL     1       8.669   5.495  13.083  0.00  0.00    +0.000 OA
ATOM     20  C   UNL     1       6.620   4.297  13.403  0.00  0.00    +0.000 A 
ATOM     21  C   UNL     1       5.637   4.001  14.303  0.00  0.00    +0.000 A 
ATOM     22  H   UNL     1       8.415   6.305  15.357  0.00  0.00    +0.000 HD
BRANCH  20  23
ATOM     23  C   UNL     1       6.643   3.800  11.996  0.00  0.00    +0.000 C 
ATOM     24  F   UNL     1       7.405   2.713  11.742  0.00  0.00    +0.000 F 
ATOM     25  F   UNL     1       5.383   3.498  11.578  0.00  0.00    +0.000 F 
ATOM     26  F   UNL     1       7.084   4.778  11.157  0.00  0.00    +0.000 F 
ENDBRANCH  20  23
ENDBRANCH   2  15
TORSDOF 3
ENDMDL
MODEL 3
REMARK VINA RESULT:      -8.3      1.418      2.402
REMARK  Name = 
REMARK  4 active torsions:
REMARK  status: ('A' for Active; 'I' for Inactive)
REMARK    1  A    between atoms: C_1  and  N_2
REMARK    2  A    between atoms: C_6  and  N_7
REMARK    3  A    between atoms: C_8  and  C_10
REMARK    4  A    between atoms: C_15  and  C_16
REMARK                            x       y       z     vdW  Elec       q    Type
REMARK                         _______ _______ _______ _____ _____    ______ ____
ROOT
ATOM      1  N   UNL     1       4.186   3.895  16.918  0.00  0.00    +0.000 N 
ATOM      2  C   UNL     1       5.592   4.215  16.902  0.00  0.00    +0.000 C 
ATOM      3  O   UNL     1       6.202   4.331  17.952  0.00  0.00    +0.000 OA
ATOM      4  H   UNL     1       3.733   3.548  16.083  0.00  0.00    +0.000 HD
ENDROOT
BRANCH   1  10
ATOM      5  C   UNL     1       3.647   1.209  18.628  0.00  0.00    +0.000 C 
ATOM      6  N   UNL     1       3.217   2.568  18.852  0.00  0.00    +0.000 N 
ATOM      7  N   UNL     1       2.580   2.799  20.018  0.00  0.00    +0.000 NA
ATOM      8  C   UNL     1       2.390   4.111  20.031  0.00  0.00    +0.000 A 
ATOM      9  C   UNL     1       2.956   4.752  18.898  0.00  0.00    +0.000 A 
ATOM     10  C   UNL     1       3.499   3.724  18.136  0.00  0.00    +0.000 A 
ATOM     11  C   UNL     1       2.782   6.220  18.680  0.00  0.00    +0.000 C 
ATOM     12  C   UNL     1       2.302   6.941  19.964  0.00  0.00    +0.000 C 
ATOM     13  C   UNL     1       1.186   6.178  20.700  0.00  0.00    +0.000 C 
ATOM     14  C   UNL     1       1.666   4.791  21.142  0.00  0.00    +0.000 C 
ENDBRANCH   1  10
BRANCH   2  15
ATOM     15  C   UNL     1       6.249   4.315  15.539  0.00  0.00    +0.000 A 
ATOM     16  C   UNL     1       7.147   5.306  15.382  0.00  0.00    +0.000 A 
ATOM     17  N   UNL     1       7.735   5.560  14.167  0.00  0.00    +0.000 N 
ATOM     18  C   UNL     1       7.455   4.874  13.005  0.00  0.00    +0.000 A 
ATOM     19  O   UNL     1       8.020   5.174  11.960  0.00  0.00    +0.000 OA
ATOM     20  C   UNL     1       6.453   3.794  13.133  0.00  0.00    +0.000 A 
ATOM     21  C   UNL     1       5.905   3.530  14.355  0.00  0.00    +0.000 A 
ATOM     22  H   UNL     1       8.411   6.318  14.064  0.00  0.00    +0.000 HD
BRANCH  20  23
ATOM     23  C   UNL     1       6.086   3.072  11.878  0.00  0.00    +0.000 C 
ATOM     24  F   UNL     1       7.102   2.677  11.080  0.00  0.00    +0.000 F 
ATOM     25  F   UNL     1       5.360   1.958  12.166  0.00  0.00    +0.000 F 
ATOM     26  F   UNL     1       5.277   3.850  11.107  0.00  0.00    +0.000 F 
ENDBRANCH  20  23
ENDBRANCH   2  15
TORSDOF 3
ENDMDL
MODEL 4
REMARK VINA RESULT:      -8.1      1.770      2.586
REMARK  Name = 
REMARK  4 active torsions:
REMARK  status: ('A' for Active; 'I' for Inactive)
REMARK    1  A    between atoms: C_1  and  N_2
REMARK    2  A    between atoms: C_6  and  N_7
REMARK    3  A    between atoms: C_8  and  C_10
REMARK    4  A    between atoms: C_15  and  C_16
REMARK                            x       y       z     vdW  Elec       q    Type
REMARK                         _______ _______ _______ _____ _____    ______ ____
ROOT
ATOM      1  N   UNL     1       5.261   3.768  18.001  0.00  0.00    +0.000 N 
ATOM      2  C   UNL     1       4.793   3.905  16.644  0.00  0.00    +0.000 C 
ATOM      3  O   UNL     1       3.601   3.811  16.399  0.00  0.00    +0.000 OA
ATOM      4  H   UNL     1       6.184   4.092  18.256  0.00  0.00    +0.000 HD
ENDROOT
BRANCH   1  10
ATOM      5  C   UNL     1       4.904   1.125  19.823  0.00  0.00    +0.000 C 
ATOM      6  N   UNL     1       4.164   2.364  19.808  0.00  0.00    +0.000 N 
ATOM      7  N   UNL     1       3.239   2.509  20.779  0.00  0.00    +0.000 NA
ATOM      8  C   UNL     1       2.786   3.743  20.616  0.00  0.00    +0.000 A 
ATOM      9  C   UNL     1       3.455   4.433  19.570  0.00  0.00    +0.000 A 
ATOM     10  C   UNL     1       4.360   3.514  19.054  0.00  0.00    +0.000 A 
ATOM     11  C   UNL     1       3.039   5.811  19.170  0.00  0.00    +0.000 C 
ATOM     12  C   UNL     1       2.135   6.474  20.240  0.00  0.00    +0.000 C 
ATOM     13  C   UNL     1       1.061   5.521  20.793  0.00  0.00    +0.000 C 
ATOM     14  C   UNL     1       1.700   4.303  21.469  0.00  0.00    +0.000 C 
ENDBRANCH   1  10
BRANCH   2  15
ATOM     15  C   UNL     1       5.836   4.241  15.597  0.00  0.00    +0.000 A 
ATOM     16  C   UNL     1       6.742   5.177  15.939  0.00  0.00    +0.000 A 
ATOM     17  N   UNL     1       7.675   5.639  15.043  0.00  0.00    +0.000 N 
ATOM     18  C   UNL     1       7.762   5.233  13.729  0.00  0.00    +0.000 A 
ATOM     19  O   UNL     1       8.623   5.705  12.993  0.00  0.00    +0.000 OA
ATOM     20  C   UNL     1       6.767   4.224  13.309  0.00  0.00    +0.000 A 
ATOM     21  C   UNL     1       5.869   3.749  14.221  0.00  0.00    +0.000 A 
ATOM     22  H   UNL     1       8.353   6.352  15.316  0.00  0.00    +0.000 HD
BRANCH  20  23
ATOM     23  C   UNL     1       6.800   3.810  11.875  0.00  0.00    +0.000 C 
ATOM     24  F   UNL     1       7.603   2.770  11.556  0.00  0.00    +0.000 F 
ATOM     25  F   UNL     1       5.550   3.483  11.446  0.00  0.00    +0.000 F 
ATOM     26  F   UNL     1       7.198   4.851  11.093  0.00  0.00    +0.000 F 
ENDBRANCH  20  23
ENDBRANCH   2  15
TORSDOF 3
ENDMDL
MODEL 5
REMARK VINA RESULT:      -7.9      1.237      2.849
REMARK  Name = 
REMARK  4 active torsions:
REMARK  status: ('A' for Active; 'I' for Inactive)
REMARK    1  A    between atoms: C_1  and  N_2
REMARK    2  A    between atoms: C_6  and  N_7
REMARK    3  A    between atoms: C_8  and  C_10
REMARK    4  A    between atoms: C_15  and  C_16
REMARK                            x       y       z     vdW  Elec       q    Type
REMARK                         _______ _______ _______ _____ _____    ______ ____
ROOT
ATOM      1  N   UNL     1       3.861   5.284  17.049  0.00  0.00    +0.000 N 
ATOM      2  C   UNL     1       5.298   5.208  16.953  0.00  0.00    +0.000 C 
ATOM      3  O   UNL     1       5.983   5.361  17.950  0.00  0.00    +0.000 OA
ATOM      4  H   UNL     1       3.281   4.914  16.308  0.00  0.00    +0.000 HD
ENDROOT
BRANCH   1  10
ATOM      5  C   UNL     1       3.507   3.378  19.632  0.00  0.00    +0.000 C 
ATOM      6  N   UNL     1       3.031   4.717  19.379  0.00  0.00    +0.000 N 
ATOM      7  N   UNL     1       2.433   5.335  20.418  0.00  0.00    +0.000 NA
ATOM      8  C   UNL     1       2.190   6.559  19.972  0.00  0.00    +0.000 A 
ATOM      9  C   UNL     1       2.680   6.764  18.655  0.00  0.00    +0.000 A 
ATOM     10  C   UNL     1       3.233   5.545  18.283  0.00  0.00    +0.000 A 
ATOM     11  C   UNL     1       2.436   8.051  17.937  0.00  0.00    +0.000 C 
ATOM     12  C   UNL     1       1.979   9.173  18.903  0.00  0.00    +0.000 C 
ATOM     13  C   UNL     1       0.929   8.699  19.922  0.00  0.00    +0.000 C 
ATOM     14  C   UNL     1       1.485   7.575  20.804  0.00  0.00    +0.000 C 
ENDBRANCH   1  10
BRANCH   2  15
ATOM     15  C   UNL     1       5.868   4.859  15.593  0.00  0.00    +0.000 A 
ATOM     16  C   UNL     1       7.073   5.387  15.299  0.00  0.00    +0.000 A 
ATOM     17  N   UNL     1       7.649   5.226  14.062  0.00  0.00    +0.000 N 
ATOM     18  C   UNL     1       7.062   4.558  13.009  0.00  0.00    +0.000 A 
ATOM     19  O   UNL     1       7.644   4.469  11.934  0.00  0.00    +0.000 OA
ATOM     20  C   UNL     1       5.726   3.986  13.286  0.00  0.00    +0.000 A 
ATOM     21  C   UNL     1       5.184   4.124  14.531  0.00  0.00    +0.000 A 
ATOM     22  H   UNL     1       8.560   5.635  13.855  0.00  0.00    +0.000 HD
BRANCH  20  23
ATOM     23  C   UNL     1       5.042   3.308  12.146  0.00  0.00    +0.000 C 
ATOM     24  F   UNL     1       3.735   3.004  12.309  0.00  0.00    +0.000 F 
ATOM     25  F   UNL     1       5.128   4.068  11.020  0.00  0.00    +0.000 F 
ATOM     26  F   UNL     1       5.670   2.137  11.847  0.00  0.00    +0.000 F 
ENDBRANCH  20  23
ENDBRANCH   2  15
TORSDOF 3
ENDMDL
MODEL 6
REMARK VINA RESULT:      -7.8      5.712      8.735
REMARK  Name = 
REMARK  4 active torsions:
REMARK  status: ('A' for Active; 'I' for Inactive)
REMARK    1  A    between atoms: C_1  and  N_2
REMARK    2  A    between atoms: C_6  and  N_7
REMARK    3  A    between atoms: C_8  and  C_10
REMARK    4  A    between atoms: C_15  and  C_16
REMARK                            x       y       z     vdW  Elec       q    Type
REMARK                         _______ _______ _______ _____ _____    ______ ____
ROOT
ATOM      1  N   UNL     1       2.631   6.778  18.848  0.00  0.00    +0.000 N 
ATOM      2  C   UNL     1       2.311   8.037  18.223  0.00  0.00    +0.000 C 
ATOM      3  O   UNL     1       2.565   8.213  17.043  0.00  0.00    +0.000 OA
ATOM      4  H   UNL     1       2.206   6.525  19.730  0.00  0.00    +0.000 HD
ENDROOT
BRANCH   1  10
ATOM      5  C   UNL     1       1.395   4.003  17.751  0.00  0.00    +0.000 C 
ATOM      6  N   UNL     1       2.739   4.525  17.684  0.00  0.00    +0.000 N 
ATOM      7  N   UNL     1       3.613   3.807  16.951  0.00  0.00    +0.000 NA
ATOM      8  C   UNL     1       4.720   4.536  16.957  0.00  0.00    +0.000 A 
ATOM      9  C   UNL     1       4.555   5.765  17.648  0.00  0.00    +0.000 A 
ATOM     10  C   UNL     1       3.247   5.744  18.115  0.00  0.00    +0.000 A 
ATOM     11  C   UNL     1       5.706   6.698  17.842  0.00  0.00    +0.000 C 
ATOM     12  C   UNL     1       6.890   6.355  16.903  0.00  0.00    +0.000 C 
ATOM     13  C   UNL     1       7.181   4.845  16.830  0.00  0.00    +0.000 C 
ATOM     14  C   UNL     1       5.971   4.077  16.289  0.00  0.00    +0.000 C 
ENDBRANCH   1  10
BRANCH   2  15
ATOM     15  C   UNL     1       1.593   9.058  19.083  0.00  0.00    +0.000 A 
ATOM     16  C   UNL     1       1.586  10.324  18.624  0.00  0.00    +0.000 A 
ATOM     17  N   UNL     1       1.055  11.355  19.360  0.00  0.00    +0.000 N 
ATOM     18  C   UNL     1       0.519  11.218  20.622  0.00  0.00    +0.000 A 
ATOM     19  O   UNL     1       0.074  12.196  21.213  0.00  0.00    +0.000 OA
ATOM     20  C   UNL     1       0.533   9.845  21.171  0.00  0.00    +0.000 A 
ATOM     21  C   UNL     1       1.032   8.826  20.413  0.00  0.00    +0.000 A 
ATOM     22  H   UNL     1       1.060  12.310  18.999  0.00  0.00    +0.000 HD
BRANCH  20  23
ATOM     23  C   UNL     1       0.013   9.677  22.561  0.00  0.00    +0.000 C 
ATOM     24  F   UNL     1      -0.600  10.744  23.119  0.00  0.00    +0.000 F 
ATOM     25  F   UNL     1      -0.874   8.645  22.614  0.00  0.00    +0.000 F 
ATOM     26  F   UNL     1       1.026   9.335  23.405  0.00  0.00    +0.000 F 
ENDBRANCH  20  23
ENDBRANCH   2  15
TORSDOF 3
ENDMDL
MODEL 7
REMARK VINA RESULT:      -7.8      4.236      7.890
REMARK  Name = 
REMARK  4 active torsions:
REMARK  status: ('A' for Active; 'I' for Inactive)
REMARK    1  A    between atoms: C_1  and  N_2
REMARK    2  A    between atoms: C_6  and  N_7
REMARK    3  A    between atoms: C_8  and  C_10
REMARK    4  A    between atoms: C_15  and  C_16
REMARK                            x       y       z     vdW  Elec       q    Type
REMARK                         _______ _______ _______ _____ _____    ______ ____
ROOT
ATOM      1  N   UNL     1       5.140   4.056  16.632  0.00  0.00    +0.000 N 
ATOM      2  C   UNL     1       4.116   4.869  17.240  0.00  0.00    +0.000 C 
ATOM      3  O   UNL     1       4.085   6.069  17.026  0.00  0.00    +0.000 OA
ATOM      4  H   UNL     1       5.033   3.052  16.588  0.00  0.00    +0.000 HD
ENDROOT
BRANCH   1  10
ATOM      5  C   UNL     1       7.484   6.161  17.344  0.00  0.00    +0.000 C 
ATOM      6  N   UNL     1       7.097   5.576  16.083  0.00  0.00    +0.000 N 
ATOM      7  N   UNL     1       7.900   5.852  15.036  0.00  0.00    +0.000 NA
ATOM      8  C   UNL     1       7.402   5.127  14.044  0.00  0.00    +0.000 A 
ATOM      9  C   UNL     1       6.303   4.328  14.455  0.00  0.00    +0.000 A 
ATOM     10  C   UNL     1       6.119   4.632  15.798  0.00  0.00    +0.000 A 
ATOM     11  C   UNL     1       5.546   3.498  13.470  0.00  0.00    +0.000 C 
ATOM     12  C   UNL     1       6.324   3.327  12.141  0.00  0.00    +0.000 C 
ATOM     13  C   UNL     1       6.967   4.636  11.648  0.00  0.00    +0.000 C 
ATOM     14  C   UNL     1       7.976   5.173  12.669  0.00  0.00    +0.000 C 
ENDBRANCH   1  10
BRANCH   2  15
ATOM     15  C   UNL     1       3.075   4.142  18.068  0.00  0.00    +0.000 A 
ATOM     16  C   UNL     1       1.886   3.928  17.473  0.00  0.00    +0.000 A 
ATOM     17  N   UNL     1       0.831   3.369  18.152  0.00  0.00    +0.000 N 
ATOM     18  C   UNL     1       0.861   3.009  19.482  0.00  0.00    +0.000 A 
ATOM     19  O   UNL     1      -0.132   2.523  20.013  0.00  0.00    +0.000 OA
ATOM     20  C   UNL     1       2.144   3.252  20.176  0.00  0.00    +0.000 A 
ATOM     21  C   UNL     1       3.194   3.775  19.478  0.00  0.00    +0.000 A 
ATOM     22  H   UNL     1      -0.066   3.217  17.689  0.00  0.00    +0.000 HD
BRANCH  20  23
ATOM     23  C   UNL     1       2.188   2.926  21.632  0.00  0.00    +0.000 C 
ATOM     24  F   UNL     1       1.109   2.299  22.152  0.00  0.00    +0.000 F 
ATOM     25  F   UNL     1       3.266   2.143  21.912  0.00  0.00    +0.000 F 
ATOM     26  F   UNL     1       2.358   4.062  22.365  0.00  0.00    +0.000 F 
ENDBRANCH  20  23
ENDBRANCH   2  15
TORSDOF 3
ENDMDL
MODEL 8
REMARK VINA RESULT:      -7.8      6.100      8.315
REMARK  Name = 
REMARK  4 active torsions:
REMARK  status: ('A' for Active; 'I' for Inactive)
REMARK    1  A    between atoms: C_1  and  N_2
REMARK    2  A    between atoms: C_6  and  N_7
REMARK    3  A    between atoms: C_8  and  C_10
REMARK    4  A    between atoms: C_15  and  C_16
REMARK                            x       y       z     vdW  Elec       q    Type
REMARK                         _______ _______ _______ _____ _____    ______ ____
ROOT
ATOM      1  N   UNL     1       2.704   7.282  17.830  0.00  0.00    +0.000 N 
ATOM      2  C   UNL     1       2.177   7.750  19.088  0.00  0.00    +0.000 C 
ATOM      3  O   UNL     1       2.359   7.100  20.104  0.00  0.00    +0.000 OA
ATOM      4  H   UNL     1       2.786   7.914  17.046  0.00  0.00    +0.000 HD
ENDROOT
BRANCH   1  10
ATOM      5  C   UNL     1       5.858   6.774  17.359  0.00  0.00    +0.000 C 
ATOM      6  N   UNL     1       4.767   5.841  17.500  0.00  0.00    +0.000 N 
ATOM      7  N   UNL     1       5.110   4.538  17.560  0.00  0.00    +0.000 NA
ATOM      8  C   UNL     1       3.967   3.910  17.794  0.00  0.00    +0.000 A 
ATOM      9  C   UNL     1       2.876   4.807  17.945  0.00  0.00    +0.000 A 
ATOM     10  C   UNL     1       3.421   6.071  17.754  0.00  0.00    +0.000 A 
ATOM     11  C   UNL     1       1.484   4.299  18.133  0.00  0.00    +0.000 C 
ATOM     12  C   UNL     1       1.466   2.799  18.524  0.00  0.00    +0.000 C 
ATOM     13  C   UNL     1       2.444   1.950  17.693  0.00  0.00    +0.000 C 
ATOM     14  C   UNL     1       3.888   2.425  17.889  0.00  0.00    +0.000 C 
ENDBRANCH   1  10
BRANCH   2  15
ATOM     15  C   UNL     1       1.477   9.094  19.072  0.00  0.00    +0.000 A 
ATOM     16  C   UNL     1       1.807   9.925  18.065  0.00  0.00    +0.000 A 
ATOM     17  N   UNL     1       1.317  11.207  17.997  0.00  0.00    +0.000 N 
ATOM     18  C   UNL     1       0.487  11.776  18.939  0.00  0.00    +0.000 A 
ATOM     19  O   UNL     1       0.103  12.932  18.804  0.00  0.00    +0.000 OA
ATOM     20  C   UNL     1       0.122  10.901  20.074  0.00  0.00    +0.000 A 
ATOM     21  C   UNL     1       0.589   9.619  20.108  0.00  0.00    +0.000 A 
ATOM     22  H   UNL     1       1.581  11.825  17.229  0.00  0.00    +0.000 HD
BRANCH  20  23
ATOM     23  C   UNL     1      -0.728  11.510  21.139  0.00  0.00    +0.000 C 
ATOM     24  F   UNL     1      -1.911  12.037  20.752  0.00  0.00    +0.000 F 
ATOM     25  F   UNL     1      -1.007  10.594  22.106  0.00  0.00    +0.000 F 
ATOM     26  F   UNL     1      -0.052  12.513  21.766  0.00  0.00    +0.000 F 
ENDBRANCH  20  23
ENDBRANCH   2  15
TORSDOF 3
ENDMDL
MODEL 9
REMARK VINA RESULT:      -7.7      5.583      8.812
REMARK  Name = 
REMARK  4 active torsions:
REMARK  status: ('A' for Active; 'I' for Inactive)
REMARK    1  A    between atoms: C_1  and  N_2
REMARK    2  A    between atoms: C_6  and  N_7
REMARK    3  A    between atoms: C_8  and  C_10
REMARK    4  A    between atoms: C_15  and  C_16
REMARK                            x       y       z     vdW  Elec       q    Type
REMARK                         _______ _______ _______ _____ _____    ______ ____
ROOT
ATOM      1  N   UNL     1       2.821   6.469  19.269  0.00  0.00    +0.000 N 
ATOM      2  C   UNL     1       2.166   7.665  18.800  0.00  0.00    +0.000 C 
ATOM      3  O   UNL     1       2.032   7.855  17.603  0.00  0.00    +0.000 OA
ATOM      4  H   UNL     1       2.716   6.175  20.231  0.00  0.00    +0.000 HD
ENDROOT
BRANCH   1  10
ATOM      5  C   UNL     1       1.389   3.866  18.004  0.00  0.00    +0.000 C 
ATOM      6  N   UNL     1       2.733   4.367  17.851  0.00  0.00    +0.000 N 
ATOM      7  N   UNL     1       3.502   3.722  16.949  0.00  0.00    +0.000 NA
ATOM      8  C   UNL     1       4.626   4.425  16.919  0.00  0.00    +0.000 A 
ATOM      9  C   UNL     1       4.574   5.567  17.759  0.00  0.00    +0.000 A 
ATOM     10  C   UNL     1       3.323   5.517  18.360  0.00  0.00    +0.000 A 
ATOM     11  C   UNL     1       5.769   6.449  17.931  0.00  0.00    +0.000 C 
ATOM     12  C   UNL     1       6.835   6.195  16.836  0.00  0.00    +0.000 C 
ATOM     13  C   UNL     1       7.068   4.700  16.559  0.00  0.00    +0.000 C 
ATOM     14  C   UNL     1       5.783   4.023  16.070  0.00  0.00    +0.000 C 
ENDBRANCH   1  10
BRANCH   2  15
ATOM     15  C   UNL     1       1.608   8.592  19.861  0.00  0.00    +0.000 A 
ATOM     16  C   UNL     1       1.602   8.120  21.122  0.00  0.00    +0.000 A 
ATOM     17  N   UNL     1       1.031   8.825  22.154  0.00  0.00    +0.000 N 
ATOM     18  C   UNL     1       0.393  10.038  22.011  0.00  0.00    +0.000 A 
ATOM     19  O   UNL     1      -0.098  10.595  22.987  0.00  0.00    +0.000 OA
ATOM     20  C   UNL     1       0.357  10.578  20.635  0.00  0.00    +0.000 A 
ATOM     21  C   UNL     1       0.959   9.882  19.627  0.00  0.00    +0.000 A 
ATOM     22  H   UNL     1       1.032   8.451  23.104  0.00  0.00    +0.000 HD
BRANCH  20  23
ATOM     23  C   UNL     1      -0.380  11.861  20.441  0.00  0.00    +0.000 C 
ATOM     24  F   UNL     1       0.020  12.916  21.186  0.00  0.00    +0.000 F 
ATOM     25  F   UNL     1      -0.313  12.255  19.140  0.00  0.00    +0.000 F 
ATOM     26  F   UNL     1      -1.705  11.689  20.706  0.00  0.00    +0.000 F 
ENDBRANCH  20  23
ENDBRANCH   2  15
TORSDOF 3
ENDMDL
