MODEL 1
REMARK VINA RESULT:      -6.9      0.000      0.000
REMARK  Name = 
REMARK  4 active torsions:
REMARK  status: ('A' for Active; 'I' for Inactive)
REMARK    1  A    between atoms: C_5  and  C_6
REMARK    2  A    between atoms: C_6  and  S_7
REMARK    3  A    between atoms: S_7  and  C_8
REMARK    4  A    between atoms: C_8  and  N_10
REMARK                            x       y       z     vdW  Elec       q    Type
REMARK                         _______ _______ _______ _____ _____    ______ ____
ROOT
ATOM      1  O   UNL     1       0.765  10.924  18.542  0.00  0.00    +0.000 OA
ATOM      2  C   UNL     1       0.914  10.015  19.347  0.00  0.00    +0.000 A 
ATOM      3  C   UNL     1       1.671   8.770  19.047  0.00  0.00    +0.000 A 
ATOM      4 CL   UNL     1       2.436   8.690  17.501  0.00  0.00    +0.000 Cl
ATOM      5  C   UNL     1       1.779   7.805  19.980  0.00  0.00    +0.000 A 
ATOM      6  O   UNL     1       1.204   7.912  21.244  0.00  0.00    +0.000 OA
ATOM      7  C   UNL     1       0.504   9.042  21.571  0.00  0.00    +0.000 A 
ATOM      8  C   UNL     1      -0.046   9.095  22.851  0.00  0.00    +0.000 A 
ATOM      9  C   UNL     1      -0.743  10.233  23.265  0.00  0.00    +0.000 A 
ATOM     10  C   UNL     1      -0.889  11.315  22.397  0.00  0.00    +0.000 A 
ATOM     11  C   UNL     1      -0.351  11.257  21.110  0.00  0.00    +0.000 A 
ATOM     12  C   UNL     1       0.342  10.112  20.703  0.00  0.00    +0.000 A 
ENDROOT
BRANCH   5  13
ATOM     13  C   UNL     1       2.595   6.536  19.780  0.00  0.00    +0.000 C 
BRANCH  13  14
ATOM     14  S   UNL     1       1.801   5.070  20.515  0.00  0.00    +0.000 S 
BRANCH  14  15
ATOM     15  C   UNL     1       2.099   3.787  19.329  0.00  0.00    +0.000 C 
ATOM     16  S   UNL     1       0.951   2.612  18.962  0.00  0.00    +0.000 S 
BRANCH  15  17
ATOM     17  N   UNL     1       3.338   3.877  18.691  0.00  0.00    +0.000 N 
ATOM     18  C   UNL     1       4.628   3.643  19.338  0.00  0.00    +0.000 C 
ATOM     19  C   UNL     1       5.616   4.395  18.465  0.00  0.00    +0.000 C 
ATOM     20  C   UNL     1       5.061   4.186  17.066  0.00  0.00    +0.000 C 
ATOM     21  C   UNL     1       3.549   4.146  17.266  0.00  0.00    +0.000 C 
ENDBRANCH  15  17
ENDBRANCH  14  15
ENDBRANCH  13  14
ENDBRANCH   5  13
TORSDOF 4
ENDMDL
MODEL 2
REMARK VINA RESULT:      -6.8      3.779      6.601
REMARK  Name = 
REMARK  4 active torsions:
REMARK  status: ('A' for Active; 'I' for Inactive)
REMARK    1  A    between atoms: C_5  and  C_6
REMARK    2  A    between atoms: C_6  and  S_7
REMARK    3  A    between atoms: S_7  and  C_8
REMARK    4  A    between atoms: C_8  and  N_10
REMARK                            x       y       z     vdW  Elec       q    Type
REMARK                         _______ _______ _______ _____ _____    ______ ____
ROOT
ATOM      1  O   UNL     1       4.760   4.081  15.637  0.00  0.00    +0.000 OA
ATOM      2  C   UNL     1       5.019   4.074  16.832  0.00  0.00    +0.000 A 
ATOM      3  C   UNL     1       4.385   3.143  17.804  0.00  0.00    +0.000 A 
ATOM      4 CL   UNL     1       3.301   1.971  17.148  0.00  0.00    +0.000 Cl
ATOM      5  C   UNL     1       4.710   3.207  19.110  0.00  0.00    +0.000 A 
ATOM      6  O   UNL     1       5.631   4.123  19.613  0.00  0.00    +0.000 OA
ATOM      7  C   UNL     1       6.248   4.995  18.756  0.00  0.00    +0.000 A 
ATOM      8  C   UNL     1       7.164   5.886  19.317  0.00  0.00    +0.000 A 
ATOM      9  C   UNL     1       7.856   6.781  18.497  0.00  0.00    +0.000 A 
ATOM     10  C   UNL     1       7.631   6.783  17.120  0.00  0.00    +0.000 A 
ATOM     11  C   UNL     1       6.704   5.902  16.562  0.00  0.00    +0.000 A 
ATOM     12  C   UNL     1       6.012   5.012  17.390  0.00  0.00    +0.000 A 
ENDROOT
BRANCH   5  13
ATOM     13  C   UNL     1       4.163   2.246  20.154  0.00  0.00    +0.000 C 
BRANCH  13  14
ATOM     14  S   UNL     1       2.778   2.955  21.102  0.00  0.00    +0.000 S 
BRANCH  14  15
ATOM     15  C   UNL     1       1.706   3.619  19.856  0.00  0.00    +0.000 C 
ATOM     16  S   UNL     1       0.531   2.692  19.088  0.00  0.00    +0.000 S 
BRANCH  15  17
ATOM     17  N   UNL     1       1.887   4.983  19.617  0.00  0.00    +0.000 N 
ATOM     18  C   UNL     1       2.051   5.583  18.294  0.00  0.00    +0.000 C 
ATOM     19  C   UNL     1       2.765   6.894  18.575  0.00  0.00    +0.000 C 
ATOM     20  C   UNL     1       2.151   7.342  19.890  0.00  0.00    +0.000 C 
ATOM     21  C   UNL     1       1.869   6.039  20.633  0.00  0.00    +0.000 C 
ENDBRANCH  15  17
ENDBRANCH  14  15
ENDBRANCH  13  14
ENDBRANCH   5  13
TORSDOF 4
ENDMDL
MODEL 3
REMARK VINA RESULT:      -6.8      4.972      8.260
REMARK  Name = 
REMARK  4 active torsions:
REMARK  status: ('A' for Active; 'I' for Inactive)
REMARK    1  A    between atoms: C_5  and  C_6
REMARK    2  A    between atoms: C_6  and  S_7
REMARK    3  A    between atoms: S_7  and  C_8
REMARK    4  A    between atoms: C_8  and  N_10
REMARK                            x       y       z     vdW  Elec       q    Type
REMARK                         _______ _______ _______ _____ _____    ______ ____
ROOT
ATOM      1  O   UNL     1       7.750   6.347  16.277  0.00  0.00    +0.000 OA
ATOM      2  C   UNL     1       6.965   5.463  15.962  0.00  0.00    +0.000 A 
ATOM      3  C   UNL     1       6.000   4.847  16.911  0.00  0.00    +0.000 A 
ATOM      4 CL   UNL     1       5.962   5.510  18.506  0.00  0.00    +0.000 Cl
ATOM      5  C   UNL     1       5.177   3.866  16.496  0.00  0.00    +0.000 A 
ATOM      6  O   UNL     1       5.181   3.383  15.188  0.00  0.00    +0.000 OA
ATOM      7  C   UNL     1       6.046   3.924  14.275  0.00  0.00    +0.000 A 
ATOM      8  C   UNL     1       6.003   3.403  12.982  0.00  0.00    +0.000 A 
ATOM      9  C   UNL     1       6.832   3.932  11.989  0.00  0.00    +0.000 A 
ATOM     10  C   UNL     1       7.702   4.979  12.293  0.00  0.00    +0.000 A 
ATOM     11  C   UNL     1       7.756   5.490  13.591  0.00  0.00    +0.000 A 
ATOM     12  C   UNL     1       6.926   4.952  14.579  0.00  0.00    +0.000 A 
ENDROOT
BRANCH   5  13
ATOM     13  C   UNL     1       4.114   3.234  17.381  0.00  0.00    +0.000 C 
BRANCH  13  14
ATOM     14  S   UNL     1       2.512   4.098  17.279  0.00  0.00    +0.000 S 
BRANCH  14  15
ATOM     15  C   UNL     1       2.419   5.000  18.802  0.00  0.00    +0.000 C 
ATOM     16  S   UNL     1       2.520   6.678  18.865  0.00  0.00    +0.000 S 
BRANCH  15  17
ATOM     17  N   UNL     1       2.196   4.200  19.925  0.00  0.00    +0.000 N 
ATOM     18  C   UNL     1       3.221   3.824  20.898  0.00  0.00    +0.000 C 
ATOM     19  C   UNL     1       2.671   2.560  21.536  0.00  0.00    +0.000 C 
ATOM     20  C   UNL     1       1.178   2.832  21.598  0.00  0.00    +0.000 C 
ATOM     21  C   UNL     1       0.899   3.671  20.354  0.00  0.00    +0.000 C 
ENDBRANCH  15  17
ENDBRANCH  14  15
ENDBRANCH  13  14
ENDBRANCH   5  13
TORSDOF 4
ENDMDL
MODEL 4
REMARK VINA RESULT:      -6.8      3.507      7.860
REMARK  Name = 
REMARK  4 active torsions:
REMARK  status: ('A' for Active; 'I' for Inactive)
REMARK    1  A    between atoms: C_5  and  C_6
REMARK    2  A    between atoms: C_6  and  S_7
REMARK    3  A    between atoms: S_7  and  C_8
REMARK    4  A    between atoms: C_8  and  N_10
REMARK                            x       y       z     vdW  Elec       q    Type
REMARK                         _______ _______ _______ _____ _____    ______ ____
ROOT
ATOM      1  O   UNL     1       3.010   3.072  18.764  0.00  0.00    +0.000 OA
ATOM      2  C   UNL     1       3.178   4.252  18.486  0.00  0.00    +0.000 A 
ATOM      3  C   UNL     1       2.474   5.365  19.177  0.00  0.00    +0.000 A 
ATOM      4 CL   UNL     1       1.445   4.924  20.492  0.00  0.00    +0.000 Cl
ATOM      5  C   UNL     1       2.698   6.640  18.805  0.00  0.00    +0.000 A 
ATOM      6  O   UNL     1       3.577   6.980  17.779  0.00  0.00    +0.000 OA
ATOM      7  C   UNL     1       4.255   5.991  17.118  0.00  0.00    +0.000 A 
ATOM      8  C   UNL     1       5.124   6.393  16.103  0.00  0.00    +0.000 A 
ATOM      9  C   UNL     1       5.875   5.440  15.411  0.00  0.00    +0.000 A 
ATOM     10  C   UNL     1       5.755   4.088  15.734  0.00  0.00    +0.000 A 
ATOM     11  C   UNL     1       4.875   3.685  16.740  0.00  0.00    +0.000 A 
ATOM     12  C   UNL     1       4.124   4.645  17.425  0.00  0.00    +0.000 A 
ENDROOT
BRANCH   5  13
ATOM     13  C   UNL     1       2.076   7.838  19.506  0.00  0.00    +0.000 C 
BRANCH  13  14
ATOM     14  S   UNL     1       1.372   9.046  18.338  0.00  0.00    +0.000 S 
BRANCH  14  15
ATOM     15  C   UNL     1       0.299  10.034  19.345  0.00  0.00    +0.000 C 
ATOM     16  S   UNL     1       0.696  10.482  20.917  0.00  0.00    +0.000 S 
BRANCH  15  17
ATOM     17  N   UNL     1      -0.866  10.451  18.697  0.00  0.00    +0.000 N 
ATOM     18  C   UNL     1      -1.432   9.816  17.508  0.00  0.00    +0.000 C 
ATOM     19  C   UNL     1      -2.279  10.907  16.879  0.00  0.00    +0.000 C 
ATOM     20  C   UNL     1      -2.850  11.633  18.086  0.00  0.00    +0.000 C 
ATOM     21  C   UNL     1      -1.747  11.537  19.136  0.00  0.00    +0.000 C 
ENDBRANCH  15  17
ENDBRANCH  14  15
ENDBRANCH  13  14
ENDBRANCH   5  13
TORSDOF 4
ENDMDL
MODEL 5
REMARK VINA RESULT:      -6.7      3.739      8.089
REMARK  Name = 
REMARK  4 active torsions:
REMARK  status: ('A' for Active; 'I' for Inactive)
REMARK    1  A    between atoms: C_5  and  C_6
REMARK    2  A    between atoms: C_6  and  S_7
REMARK    3  A    between atoms: S_7  and  C_8
REMARK    4  A    between atoms: C_8  and  N_10
REMARK                            x       y       z     vdW  Elec       q    Type
REMARK                         _______ _______ _______ _____ _____    ______ ____
ROOT
ATOM      1  O   UNL     1       7.774   6.404  16.420  0.00  0.00    +0.000 OA
ATOM      2  C   UNL     1       6.968   5.512  16.197  0.00  0.00    +0.000 A 
ATOM      3  C   UNL     1       6.066   4.942  17.233  0.00  0.00    +0.000 A 
ATOM      4 CL   UNL     1       6.136   5.672  18.797  0.00  0.00    +0.000 Cl
ATOM      5  C   UNL     1       5.215   3.948  16.916  0.00  0.00    +0.000 A 
ATOM      6  O   UNL     1       5.131   3.410  15.633  0.00  0.00    +0.000 OA
ATOM      7  C   UNL     1       5.935   3.907  14.642  0.00  0.00    +0.000 A 
ATOM      8  C   UNL     1       5.804   3.332  13.378  0.00  0.00    +0.000 A 
ATOM      9  C   UNL     1       6.567   3.814  12.311  0.00  0.00    +0.000 A 
ATOM     10  C   UNL     1       7.458   4.868  12.510  0.00  0.00    +0.000 A 
ATOM     11  C   UNL     1       7.600   5.433  13.779  0.00  0.00    +0.000 A 
ATOM     12  C   UNL     1       6.835   4.943  14.842  0.00  0.00    +0.000 A 
ENDROOT
BRANCH   5  13
ATOM     13  C   UNL     1       4.212   3.361  17.896  0.00  0.00    +0.000 C 
BRANCH  13  14
ATOM     14  S   UNL     1       2.530   4.020  17.659  0.00  0.00    +0.000 S 
BRANCH  14  15
ATOM     15  C   UNL     1       2.245   4.990  19.115  0.00  0.00    +0.000 C 
ATOM     16  S   UNL     1       1.945   4.296  20.618  0.00  0.00    +0.000 S 
BRANCH  15  17
ATOM     17  N   UNL     1       2.351   6.368  18.911  0.00  0.00    +0.000 N 
ATOM     18  C   UNL     1       2.063   7.385  19.921  0.00  0.00    +0.000 C 
ATOM     19  C   UNL     1       1.759   8.631  19.108  0.00  0.00    +0.000 C 
ATOM     20  C   UNL     1       2.723   8.518  17.939  0.00  0.00    +0.000 C 
ATOM     21  C   UNL     1       2.833   7.017  17.689  0.00  0.00    +0.000 C 
ENDBRANCH  15  17
ENDBRANCH  14  15
ENDBRANCH  13  14
ENDBRANCH   5  13
TORSDOF 4
ENDMDL
MODEL 6
REMARK VINA RESULT:      -6.7      1.401      1.878
REMARK  Name = 
REMARK  4 active torsions:
REMARK  status: ('A' for Active; 'I' for Inactive)
REMARK    1  A    between atoms: C_5  and  C_6
REMARK    2  A    between atoms: C_6  and  S_7
REMARK    3  A    between atoms: S_7  and  C_8
REMARK    4  A    between atoms: C_8  and  N_10
REMARK                            x       y       z     vdW  Elec       q    Type
REMARK                         _______ _______ _______ _____ _____    ______ ____
ROOT
ATOM      1  O   UNL     1       2.025   9.906  17.564  0.00  0.00    +0.000 OA
ATOM      2  C   UNL     1       1.901   9.124  18.497  0.00  0.00    +0.000 A 
ATOM      3  C   UNL     1       2.517   7.771  18.521  0.00  0.00    +0.000 A 
ATOM      4 CL   UNL     1       3.526   7.363  17.180  0.00  0.00    +0.000 Cl
ATOM      5  C   UNL     1       2.321   6.959  19.577  0.00  0.00    +0.000 A 
ATOM      6  O   UNL     1       1.551   7.328  20.678  0.00  0.00    +0.000 OA
ATOM      7  C   UNL     1       0.969   8.567  20.706  0.00  0.00    +0.000 A 
ATOM      8  C   UNL     1       0.213   8.882  21.835  0.00  0.00    +0.000 A 
ATOM      9  C   UNL     1      -0.380  10.142  21.948  0.00  0.00    +0.000 A 
ATOM     10  C   UNL     1      -0.216  11.083  20.931  0.00  0.00    +0.000 A 
ATOM     11  C   UNL     1       0.529  10.763  19.795  0.00  0.00    +0.000 A 
ATOM     12  C   UNL     1       1.116   9.498  19.689  0.00  0.00    +0.000 A 
ENDROOT
BRANCH   5  13
ATOM     13  C   UNL     1       2.973   5.591  19.713  0.00  0.00    +0.000 C 
BRANCH  13  14
ATOM     14  S   UNL     1       2.319   4.380  18.519  0.00  0.00    +0.000 S 
BRANCH  14  15
ATOM     15  C   UNL     1       3.684   3.287  18.231  0.00  0.00    +0.000 C 
ATOM     16  S   UNL     1       3.626   1.650  18.612  0.00  0.00    +0.000 S 
BRANCH  15  17
ATOM     17  N   UNL     1       4.778   3.894  17.610  0.00  0.00    +0.000 N 
ATOM     18  C   UNL     1       4.887   4.146  16.173  0.00  0.00    +0.000 C 
ATOM     19  C   UNL     1       6.383   4.254  15.935  0.00  0.00    +0.000 C 
ATOM     20  C   UNL     1       6.878   4.953  17.190  0.00  0.00    +0.000 C 
ATOM     21  C   UNL     1       5.954   4.440  18.292  0.00  0.00    +0.000 C 
ENDBRANCH  15  17
ENDBRANCH  14  15
ENDBRANCH  13  14
ENDBRANCH   5  13
TORSDOF 4
ENDMDL
MODEL 7
REMARK VINA RESULT:      -6.7      3.177      6.911
REMARK  Name = 
REMARK  4 active torsions:
REMARK  status: ('A' for Active; 'I' for Inactive)
REMARK    1  A    between atoms: C_5  and  C_6
REMARK    2  A    between atoms: C_6  and  S_7
REMARK    3  A    between atoms: S_7  and  C_8
REMARK    4  A    between atoms: C_8  and  N_10
REMARK                            x       y       z     vdW  Elec       q    Type
REMARK                         _______ _______ _______ _____ _____    ______ ____
ROOT
ATOM      1  O   UNL     1       4.626   3.756  16.938  0.00  0.00    +0.000 OA
ATOM      2  C   UNL     1       3.888   4.515  17.551  0.00  0.00    +0.000 A 
ATOM      3  C   UNL     1       3.921   5.994  17.397  0.00  0.00    +0.000 A 
ATOM      4 CL   UNL     1       5.013   6.618  16.215  0.00  0.00    +0.000 Cl
ATOM      5  C   UNL     1       3.087   6.766  18.120  0.00  0.00    +0.000 A 
ATOM      6  O   UNL     1       2.171   6.240  19.028  0.00  0.00    +0.000 OA
ATOM      7  C   UNL     1       2.096   4.884  19.199  0.00  0.00    +0.000 A 
ATOM      8  C   UNL     1       1.158   4.415  20.119  0.00  0.00    +0.000 A 
ATOM      9  C   UNL     1       1.003   3.041  20.318  0.00  0.00    +0.000 A 
ATOM     10  C   UNL     1       1.787   2.139  19.598  0.00  0.00    +0.000 A 
ATOM     11  C   UNL     1       2.736   2.609  18.688  0.00  0.00    +0.000 A 
ATOM     12  C   UNL     1       2.887   3.986  18.498  0.00  0.00    +0.000 A 
ENDROOT
BRANCH   5  13
ATOM     13  C   UNL     1       3.007   8.278  17.969  0.00  0.00    +0.000 C 
BRANCH  13  14
ATOM     14  S   UNL     1       1.291   8.881  17.857  0.00  0.00    +0.000 S 
BRANCH  14  15
ATOM     15  C   UNL     1       1.260  10.277  18.949  0.00  0.00    +0.000 C 
ATOM     16  S   UNL     1       1.890  11.776  18.517  0.00  0.00    +0.000 S 
BRANCH  15  17
ATOM     17  N   UNL     1       0.617  10.035  20.165  0.00  0.00    +0.000 N 
ATOM     18  C   UNL     1      -0.288  10.971  20.831  0.00  0.00    +0.000 C 
ATOM     19  C   UNL     1      -0.250  10.541  22.287  0.00  0.00    +0.000 C 
ATOM     20  C   UNL     1      -0.145   9.028  22.193  0.00  0.00    +0.000 C 
ATOM     21  C   UNL     1       0.682   8.789  20.933  0.00  0.00    +0.000 C 
ENDBRANCH  15  17
ENDBRANCH  14  15
ENDBRANCH  13  14
ENDBRANCH   5  13
TORSDOF 4
ENDMDL
MODEL 8
REMARK VINA RESULT:      -6.7      3.353      7.731
REMARK  Name = 
REMARK  4 active torsions:
REMARK  status: ('A' for Active; 'I' for Inactive)
REMARK    1  A    between atoms: C_5  and  C_6
REMARK    2  A    between atoms: C_6  and  S_7
REMARK    3  A    between atoms: S_7  and  C_8
REMARK    4  A    between atoms: C_8  and  N_10
REMARK                            x       y       z     vdW  Elec       q    Type
REMARK                         _______ _______ _______ _____ _____    ______ ____
ROOT
ATOM      1  O   UNL     1       3.056   2.922  18.798  0.00  0.00    +0.000 OA
ATOM      2  C   UNL     1       3.173   4.127  18.625  0.00  0.00    +0.000 A 
ATOM      3  C   UNL     1       2.486   5.147  19.462  0.00  0.00    +0.000 A 
ATOM      4 CL   UNL     1       1.556   4.550  20.790  0.00  0.00    +0.000 Cl
ATOM      5  C   UNL     1       2.651   6.458  19.201  0.00  0.00    +0.000 A 
ATOM      6  O   UNL     1       3.452   6.923  18.160  0.00  0.00    +0.000 OA
ATOM      7  C   UNL     1       4.112   6.023  17.367  0.00  0.00    +0.000 A 
ATOM      8  C   UNL     1       4.902   6.548  16.344  0.00  0.00    +0.000 A 
ATOM      9  C   UNL     1       5.632   5.689  15.517  0.00  0.00    +0.000 A 
ATOM     10  C   UNL     1       5.570   4.310  15.716  0.00  0.00    +0.000 A 
ATOM     11  C   UNL     1       4.768   3.785  16.730  0.00  0.00    +0.000 A 
ATOM     12  C   UNL     1       4.037   4.651  17.550  0.00  0.00    +0.000 A 
ENDROOT
BRANCH   5  13
ATOM     13  C   UNL     1       2.043   7.563  20.052  0.00  0.00    +0.000 C 
BRANCH  13  14
ATOM     14  S   UNL     1       1.452   8.969  19.056  0.00  0.00    +0.000 S 
BRANCH  14  15
ATOM     15  C   UNL     1       0.118   9.637  20.014  0.00  0.00    +0.000 C 
ATOM     16  S   UNL     1      -0.042   9.348  21.664  0.00  0.00    +0.000 S 
BRANCH  15  17
ATOM     17  N   UNL     1      -0.744  10.464  19.291  0.00  0.00    +0.000 N 
ATOM     18  C   UNL     1      -1.314  11.715  19.791  0.00  0.00    +0.000 C 
ATOM     19  C   UNL     1      -2.557  11.914  18.942  0.00  0.00    +0.000 C 
ATOM     20  C   UNL     1      -2.125  11.397  17.580  0.00  0.00    +0.000 C 
ATOM     21  C   UNL     1      -1.158  10.261  17.900  0.00  0.00    +0.000 C 
ENDBRANCH  15  17
ENDBRANCH  14  15
ENDBRANCH  13  14
ENDBRANCH   5  13
TORSDOF 4
ENDMDL
MODEL 9
REMARK VINA RESULT:      -6.6      4.603      8.200
REMARK  Name = 
REMARK  4 active torsions:
REMARK  status: ('A' for Active; 'I' for Inactive)
REMARK    1  A    between atoms: C_5  and  C_6
REMARK    2  A    between atoms: C_6  and  S_7
REMARK    3  A    between atoms: S_7  and  C_8
REMARK    4  A    between atoms: C_8  and  N_10
REMARK                            x       y       z     vdW  Elec       q    Type
REMARK                         _______ _______ _______ _____ _____    ______ ____
ROOT
ATOM      1  O   UNL     1       7.710   6.245  16.274  0.00  0.00    +0.000 OA
ATOM      2  C   UNL     1       6.819   5.480  15.931  0.00  0.00    +0.000 A 
ATOM      3  C   UNL     1       5.720   5.044  16.834  0.00  0.00    +0.000 A 
ATOM      4 CL   UNL     1       5.696   5.750  18.410  0.00  0.00    +0.000 Cl
ATOM      5  C   UNL     1       4.782   4.186  16.390  0.00  0.00    +0.000 A 
ATOM      6  O   UNL     1       4.785   3.671  15.096  0.00  0.00    +0.000 OA
ATOM      7  C   UNL     1       5.771   4.049  14.224  0.00  0.00    +0.000 A 
ATOM      8  C   UNL     1       5.720   3.505  12.941  0.00  0.00    +0.000 A 
ATOM      9  C   UNL     1       6.673   3.874  11.989  0.00  0.00    +0.000 A 
ATOM     10  C   UNL     1       7.675   4.786  12.322  0.00  0.00    +0.000 A 
ATOM     11  C   UNL     1       7.734   5.320  13.610  0.00  0.00    +0.000 A 
ATOM     12  C   UNL     1       6.778   4.942  14.558  0.00  0.00    +0.000 A 
ENDROOT
BRANCH   5  13
ATOM     13  C   UNL     1       3.588   3.747  17.225  0.00  0.00    +0.000 C 
BRANCH  13  14
ATOM     14  S   UNL     1       3.793   2.074  17.916  0.00  0.00    +0.000 S 
BRANCH  14  15
ATOM     15  C   UNL     1       3.795   2.336  19.669  0.00  0.00    +0.000 C 
ATOM     16  S   UNL     1       4.917   1.607  20.689  0.00  0.00    +0.000 S 
BRANCH  15  17
ATOM     17  N   UNL     1       2.828   3.240  20.111  0.00  0.00    +0.000 N 
ATOM     18  C   UNL     1       1.460   2.882  20.485  0.00  0.00    +0.000 C 
ATOM     19  C   UNL     1       0.687   4.178  20.322  0.00  0.00    +0.000 C 
ATOM     20  C   UNL     1       1.685   5.230  20.775  0.00  0.00    +0.000 C 
ATOM     21  C   UNL     1       3.038   4.672  20.341  0.00  0.00    +0.000 C 
ENDBRANCH  15  17
ENDBRANCH  14  15
ENDBRANCH  13  14
ENDBRANCH   5  13
TORSDOF 4
ENDMDL
