MODEL 1
REMARK VINA RESULT:      -7.6      0.000      0.000
REMARK  Name = 
REMARK  5 active torsions:
REMARK  status: ('A' for Active; 'I' for Inactive)
REMARK    1  A    between atoms: C_2  and  C_4
REMARK    2  A    between atoms: C_7  and  N_8
REMARK    3  A    between atoms: N_10  and  C_11
REMARK    4  A    between atoms: C_11  and  C_13
REMARK    5  A    between atoms: C_20  and  C_22
REMARK                            x       y       z     vdW  Elec       q    Type
REMARK                         _______ _______ _______ _____ _____    ______ ____
ROOT
ATOM      1  N   UNL     1       2.496   6.391  18.776  0.00  0.00    +0.000 N 
ATOM      2  C   UNL     1       1.586   6.012  19.733  0.00  0.00    +0.000 C 
ATOM      3  N   UNL     1       1.100   4.859  20.052  0.00  0.00    +0.000 NA
ATOM      4  N   UNL     1       1.012   7.014  20.502  0.00  0.00    +0.000 N 
ATOM      5  C   UNL     1       1.128   8.377  20.306  0.00  0.00    +0.000 C 
ATOM      6  O   UNL     1       1.833   8.873  19.426  0.00  0.00    +0.000 OA
ATOM      7  H   UNL     1       2.513   7.388  18.554  0.00  0.00    +0.000 HD
ATOM      8  H   UNL     1       0.392   6.652  21.209  0.00  0.00    +0.000 HD
ENDROOT
BRANCH   5   9
ATOM      9  C   UNL     1       0.375   9.276  21.226  0.00  0.00    +0.000 A 
ATOM     10  C   UNL     1       0.341   8.913  22.581  0.00  0.00    +0.000 A 
ATOM     11  C   UNL     1      -0.335   9.699  23.513  0.00  0.00    +0.000 A 
ATOM     12  C   UNL     1      -0.982  10.861  23.096  0.00  0.00    +0.000 A 
ATOM     13  C   UNL     1      -0.934  11.239  21.752  0.00  0.00    +0.000 A 
ATOM     14 BR   UNL     1      -1.790  12.835  21.215  0.00  0.00    +0.000 Br
ATOM     15  C   UNL     1      -0.258  10.455  20.811  0.00  0.00    +0.000 A 
ENDBRANCH   5   9
BRANCH   1  19
ATOM     16  C   UNL     1       6.186   4.772  17.539  0.00  0.00    +0.000 A 
ATOM     17  C   UNL     1       5.978   5.118  18.877  0.00  0.00    +0.000 A 
ATOM     18  C   UNL     1       4.719   5.578  19.290  0.00  0.00    +0.000 A 
ATOM     19  C   UNL     1       3.662   5.706  18.377  0.00  0.00    +0.000 A 
ATOM     20  C   UNL     1       3.864   5.267  17.062  0.00  0.00    +0.000 A 
ATOM     21  C   UNL     1       5.118   4.819  16.639  0.00  0.00    +0.000 A 
BRANCH  16  23
ATOM     22  N   UNL     1       7.732   4.581  15.666  0.00  0.00    +0.000 N 
ATOM     23  C   UNL     1       7.532   4.436  17.010  0.00  0.00    +0.000 C 
ATOM     24  O   UNL     1       8.439   4.068  17.745  0.00  0.00    +0.000 OA
ATOM     25  H   UNL     1       8.678   4.435  15.339  0.00  0.00    +0.000 HD
ATOM     26  H   UNL     1       7.101   5.108  15.080  0.00  0.00    +0.000 HD
ENDBRANCH  16  23
ENDBRANCH   1  19
BRANCH   3  27
ATOM     27  C   UNL     1       1.271   3.781  19.209  0.00  0.00    +0.000 C 
ATOM     28  O   UNL     1       0.481   3.431  18.337  0.00  0.00    +0.000 OA
BRANCH  27  29
ATOM     29  C   UNL     1       2.408   2.869  19.544  0.00  0.00    +0.000 A 
ATOM     30  C   UNL     1       2.927   2.879  20.848  0.00  0.00    +0.000 A 
ATOM     31  C   UNL     1       4.093   2.173  21.150  0.00  0.00    +0.000 A 
ATOM     32  C   UNL     1       4.736   1.436  20.157  0.00  0.00    +0.000 A 
ATOM     33  C   UNL     1       4.193   1.371  18.873  0.00  0.00    +0.000 A 
ATOM     34  C   UNL     1       3.029   2.080  18.566  0.00  0.00    +0.000 A 
ENDBRANCH  27  29
ENDBRANCH   3  27
TORSDOF 5
ENDMDL
MODEL 2
REMARK VINA RESULT:      -7.6      8.577     11.216
REMARK  Name = 
REMARK  5 active torsions:
REMARK  status: ('A' for Active; 'I' for Inactive)
REMARK    1  A    between atoms: C_2  and  C_4
REMARK    2  A    between atoms: C_7  and  N_8
REMARK    3  A    between atoms: N_10  and  C_11
REMARK    4  A    between atoms: C_11  and  C_13
REMARK    5  A    between atoms: C_20  and  C_22
REMARK                            x       y       z     vdW  Elec       q    Type
REMARK                         _______ _______ _______ _____ _____    ______ ____
ROOT
ATOM      1  N   UNL     1       9.549  11.258  17.961  0.00  0.00    +0.000 N 
ATOM      2  C   UNL     1       9.342  10.593  19.145  0.00  0.00    +0.000 C 
ATOM      3  N   UNL     1       9.689  10.865  20.358  0.00  0.00    +0.000 NA
ATOM      4  N   UNL     1       8.683   9.374  19.086  0.00  0.00    +0.000 N 
ATOM      5  C   UNL     1       8.352   8.667  17.946  0.00  0.00    +0.000 C 
ATOM      6  O   UNL     1       8.561   9.088  16.808  0.00  0.00    +0.000 OA
ATOM      7  H   UNL     1       9.404  10.707  17.114  0.00  0.00    +0.000 HD
ATOM      8  H   UNL     1       8.531   8.972  19.997  0.00  0.00    +0.000 HD
ENDROOT
BRANCH   5   9
ATOM      9  C   UNL     1       7.692   7.341  18.121  0.00  0.00    +0.000 A 
ATOM     10  C   UNL     1       8.160   6.532  19.168  0.00  0.00    +0.000 A 
ATOM     11  C   UNL     1       7.596   5.280  19.409  0.00  0.00    +0.000 A 
ATOM     12  C   UNL     1       6.553   4.826  18.604  0.00  0.00    +0.000 A 
ATOM     13  C   UNL     1       6.068   5.636  17.573  0.00  0.00    +0.000 A 
ATOM     14 BR   UNL     1       4.631   5.015  16.515  0.00  0.00    +0.000 Br
ATOM     15  C   UNL     1       6.629   6.893  17.326  0.00  0.00    +0.000 A 
ENDBRANCH   5   9
BRANCH   1  19
ATOM     16  C   UNL     1       9.686  15.464  17.708  0.00  0.00    +0.000 A 
ATOM     17  C   UNL     1      10.775  14.694  17.288  0.00  0.00    +0.000 A 
ATOM     18  C   UNL     1      10.684  13.295  17.301  0.00  0.00    +0.000 A 
ATOM     19  C   UNL     1       9.517  12.650  17.738  0.00  0.00    +0.000 A 
ATOM     20  C   UNL     1       8.407  13.439  18.066  0.00  0.00    +0.000 A 
ATOM     21  C   UNL     1       8.492  14.834  18.068  0.00  0.00    +0.000 A 
BRANCH  16  23
ATOM     22  N   UNL     1      10.494  17.630  16.939  0.00  0.00    +0.000 N 
ATOM     23  C   UNL     1       9.776  16.937  17.872  0.00  0.00    +0.000 C 
ATOM     24  O   UNL     1       9.210  17.518  18.790  0.00  0.00    +0.000 OA
ATOM     25  H   UNL     1      10.468  18.638  17.017  0.00  0.00    +0.000 HD
ATOM     26  H   UNL     1      10.758  17.226  16.052  0.00  0.00    +0.000 HD
ENDBRANCH  16  23
ENDBRANCH   1  19
BRANCH   3  27
ATOM     27  C   UNL     1      10.630  11.842  20.605  0.00  0.00    +0.000 C 
ATOM     28  O   UNL     1      11.843  11.707  20.472  0.00  0.00    +0.000 OA
BRANCH  27  29
ATOM     29  C   UNL     1      10.123  13.076  21.281  0.00  0.00    +0.000 A 
ATOM     30  C   UNL     1      10.707  14.313  20.966  0.00  0.00    +0.000 A 
ATOM     31  C   UNL     1      10.380  15.456  21.699  0.00  0.00    +0.000 A 
ATOM     32  C   UNL     1       9.454  15.375  22.737  0.00  0.00    +0.000 A 
ATOM     33  C   UNL     1       8.824  14.161  23.017  0.00  0.00    +0.000 A 
ATOM     34  C   UNL     1       9.151  13.014  22.289  0.00  0.00    +0.000 A 
ENDBRANCH  27  29
ENDBRANCH   3  27
TORSDOF 5
ENDMDL
MODEL 3
REMARK VINA RESULT:      -7.5      2.100      2.853
REMARK  Name = 
REMARK  5 active torsions:
REMARK  status: ('A' for Active; 'I' for Inactive)
REMARK    1  A    between atoms: C_2  and  C_4
REMARK    2  A    between atoms: C_7  and  N_8
REMARK    3  A    between atoms: N_10  and  C_11
REMARK    4  A    between atoms: C_11  and  C_13
REMARK    5  A    between atoms: C_20  and  C_22
REMARK                            x       y       z     vdW  Elec       q    Type
REMARK                         _______ _______ _______ _____ _____    ______ ____
ROOT
ATOM      1  N   UNL     1       3.199   6.427  17.698  0.00  0.00    +0.000 N 
ATOM      2  C   UNL     1       3.139   6.613  19.058  0.00  0.00    +0.000 C 
ATOM      3  N   UNL     1       3.571   5.901  20.045  0.00  0.00    +0.000 NA
ATOM      4  N   UNL     1       2.461   7.731  19.522  0.00  0.00    +0.000 N 
ATOM      5  C   UNL     1       1.691   8.600  18.773  0.00  0.00    +0.000 C 
ATOM      6  O   UNL     1       1.568   8.509  17.551  0.00  0.00    +0.000 OA
ATOM      7  H   UNL     1       2.556   6.997  17.147  0.00  0.00    +0.000 HD
ATOM      8  H   UNL     1       2.500   7.819  20.524  0.00  0.00    +0.000 HD
ENDROOT
BRANCH   5   9
ATOM      9  C   UNL     1       1.001   9.709  19.492  0.00  0.00    +0.000 A 
ATOM     10  C   UNL     1       0.881  10.930  18.810  0.00  0.00    +0.000 A 
ATOM     11  C   UNL     1       0.244  12.019  19.404  0.00  0.00    +0.000 A 
ATOM     12  C   UNL     1      -0.282  11.895  20.688  0.00  0.00    +0.000 A 
ATOM     13  C   UNL     1      -0.183  10.676  21.364  0.00  0.00    +0.000 A 
ATOM     14 BR   UNL     1      -0.933  10.520  23.092  0.00  0.00    +0.000 Br
ATOM     15  C   UNL     1       0.453   9.579  20.775  0.00  0.00    +0.000 A 
ENDBRANCH   5   9
BRANCH   1  19
ATOM     16  C   UNL     1       6.251   5.131  15.095  0.00  0.00    +0.000 A 
ATOM     17  C   UNL     1       6.394   6.320  15.817  0.00  0.00    +0.000 A 
ATOM     18  C   UNL     1       5.408   6.696  16.740  0.00  0.00    +0.000 A 
ATOM     19  C   UNL     1       4.271   5.901  16.948  0.00  0.00    +0.000 A 
ATOM     20  C   UNL     1       4.192   4.671  16.283  0.00  0.00    +0.000 A 
ATOM     21  C   UNL     1       5.163   4.293  15.352  0.00  0.00    +0.000 A 
BRANCH  16  23
ATOM     22  N   UNL     1       6.853   3.660  13.249  0.00  0.00    +0.000 N 
ATOM     23  C   UNL     1       7.173   4.762  13.991  0.00  0.00    +0.000 C 
ATOM     24  O   UNL     1       8.167   5.428  13.733  0.00  0.00    +0.000 OA
ATOM     25  H   UNL     1       7.443   3.478  12.447  0.00  0.00    +0.000 HD
ATOM     26  H   UNL     1       5.934   3.243  13.270  0.00  0.00    +0.000 HD
ENDBRANCH  16  23
ENDBRANCH   1  19
BRANCH   3  27
ATOM     27  C   UNL     1       3.974   4.600  19.834  0.00  0.00    +0.000 C 
ATOM     28  O   UNL     1       5.134   4.236  19.665  0.00  0.00    +0.000 OA
BRANCH  27  29
ATOM     29  C   UNL     1       2.877   3.612  19.591  0.00  0.00    +0.000 A 
ATOM     30  C   UNL     1       3.075   2.595  18.644  0.00  0.00    +0.000 A 
ATOM     31  C   UNL     1       2.017   1.765  18.267  0.00  0.00    +0.000 A 
ATOM     32  C   UNL     1       0.762   1.931  18.849  0.00  0.00    +0.000 A 
ATOM     33  C   UNL     1       0.572   2.899  19.836  0.00  0.00    +0.000 A 
ATOM     34  C   UNL     1       1.627   3.736  20.212  0.00  0.00    +0.000 A 
ENDBRANCH  27  29
ENDBRANCH   3  27
TORSDOF 5
ENDMDL
MODEL 4
REMARK VINA RESULT:      -7.3      2.039      2.630
REMARK  Name = 
REMARK  5 active torsions:
REMARK  status: ('A' for Active; 'I' for Inactive)
REMARK    1  A    between atoms: C_2  and  C_4
REMARK    2  A    between atoms: C_7  and  N_8
REMARK    3  A    between atoms: N_10  and  C_11
REMARK    4  A    between atoms: C_11  and  C_13
REMARK    5  A    between atoms: C_20  and  C_22
REMARK                            x       y       z     vdW  Elec       q    Type
REMARK                         _______ _______ _______ _____ _____    ______ ____
ROOT
ATOM      1  N   UNL     1       3.167   6.404  17.769  0.00  0.00    +0.000 N 
ATOM      2  C   UNL     1       3.108   6.568  19.132  0.00  0.00    +0.000 C 
ATOM      3  N   UNL     1       3.540   5.841  20.107  0.00  0.00    +0.000 NA
ATOM      4  N   UNL     1       2.430   7.679  19.613  0.00  0.00    +0.000 N 
ATOM      5  C   UNL     1       1.660   8.560  18.879  0.00  0.00    +0.000 C 
ATOM      6  O   UNL     1       1.536   8.488  17.656  0.00  0.00    +0.000 OA
ATOM      7  H   UNL     1       2.524   6.983  17.227  0.00  0.00    +0.000 HD
ATOM      8  H   UNL     1       2.470   7.751  20.617  0.00  0.00    +0.000 HD
ENDROOT
BRANCH   5   9
ATOM      9  C   UNL     1       0.971   9.658  19.616  0.00  0.00    +0.000 A 
ATOM     10  C   UNL     1       0.603   9.396  20.944  0.00  0.00    +0.000 A 
ATOM     11  C   UNL     1      -0.040  10.368  21.711  0.00  0.00    +0.000 A 
ATOM     12  C   UNL     1      -0.316  11.615  21.154  0.00  0.00    +0.000 A 
ATOM     13  C   UNL     1       0.067  11.889  19.839  0.00  0.00    +0.000 A 
ATOM     14 BR   UNL     1      -0.288  13.598  19.115  0.00  0.00    +0.000 Br
ATOM     15  C   UNL     1       0.712  10.920  19.064  0.00  0.00    +0.000 A 
ENDBRANCH   5   9
BRANCH   1  19
ATOM     16  C   UNL     1       6.208   5.137  15.138  0.00  0.00    +0.000 A 
ATOM     17  C   UNL     1       6.339   6.335  15.848  0.00  0.00    +0.000 A 
ATOM     18  C   UNL     1       5.358   6.702  16.780  0.00  0.00    +0.000 A 
ATOM     19  C   UNL     1       4.238   5.890  17.009  0.00  0.00    +0.000 A 
ATOM     20  C   UNL     1       4.172   4.652  16.357  0.00  0.00    +0.000 A 
ATOM     21  C   UNL     1       5.138   4.282  15.417  0.00  0.00    +0.000 A 
BRANCH  16  23
ATOM     22  N   UNL     1       6.799   3.673  13.283  0.00  0.00    +0.000 N 
ATOM     23  C   UNL     1       7.121   4.773  14.026  0.00  0.00    +0.000 C 
ATOM     24  O   UNL     1       8.113   5.442  13.763  0.00  0.00    +0.000 OA
ATOM     25  H   UNL     1       7.382   3.495  12.476  0.00  0.00    +0.000 HD
ATOM     26  H   UNL     1       5.881   3.254  13.310  0.00  0.00    +0.000 HD
ENDBRANCH  16  23
ENDBRANCH   1  19
BRANCH   3  27
ATOM     27  C   UNL     1       3.943   4.543  19.875  0.00  0.00    +0.000 C 
ATOM     28  O   UNL     1       5.102   4.182  19.694  0.00  0.00    +0.000 OA
BRANCH  27  29
ATOM     29  C   UNL     1       2.845   3.557  19.624  0.00  0.00    +0.000 A 
ATOM     30  C   UNL     1       3.055   2.528  18.694  0.00  0.00    +0.000 A 
ATOM     31  C   UNL     1       1.999   1.699  18.308  0.00  0.00    +0.000 A 
ATOM     32  C   UNL     1       0.734   1.879  18.864  0.00  0.00    +0.000 A 
ATOM     33  C   UNL     1       0.532   2.861  19.835  0.00  0.00    +0.000 A 
ATOM     34  C   UNL     1       1.584   3.696  20.220  0.00  0.00    +0.000 A 
ENDBRANCH  27  29
ENDBRANCH   3  27
TORSDOF 5
ENDMDL
MODEL 5
REMARK VINA RESULT:      -7.3      8.518     11.230
REMARK  Name = 
REMARK  5 active torsions:
REMARK  status: ('A' for Active; 'I' for Inactive)
REMARK    1  A    between atoms: C_2  and  C_4
REMARK    2  A    between atoms: C_7  and  N_8
REMARK    3  A    between atoms: N_10  and  C_11
REMARK    4  A    between atoms: C_11  and  C_13
REMARK    5  A    between atoms: C_20  and  C_22
REMARK                            x       y       z     vdW  Elec       q    Type
REMARK                         _______ _______ _______ _____ _____    ______ ____
ROOT
ATOM      1  N   UNL     1       9.274  11.464  18.043  0.00  0.00    +0.000 N 
ATOM      2  C   UNL     1       9.268  10.687  19.175  0.00  0.00    +0.000 C 
ATOM      3  N   UNL     1       9.745  10.884  20.359  0.00  0.00    +0.000 NA
ATOM      4  N   UNL     1       8.700   9.424  19.082  0.00  0.00    +0.000 N 
ATOM      5  C   UNL     1       8.281   8.790  17.929  0.00  0.00    +0.000 C 
ATOM      6  O   UNL     1       8.312   9.321  16.818  0.00  0.00    +0.000 OA
ATOM      7  H   UNL     1       9.064  10.975  17.171  0.00  0.00    +0.000 HD
ATOM      8  H   UNL     1       8.695   8.936  19.963  0.00  0.00    +0.000 HD
ENDROOT
BRANCH   5   9
ATOM      9  C   UNL     1       7.749   7.402  18.056  0.00  0.00    +0.000 A 
ATOM     10  C   UNL     1       8.216   6.641  19.138  0.00  0.00    +0.000 A 
ATOM     11  C   UNL     1       7.767   5.336  19.339  0.00  0.00    +0.000 A 
ATOM     12  C   UNL     1       6.842   4.782  18.457  0.00  0.00    +0.000 A 
ATOM     13  C   UNL     1       6.358   5.542  17.389  0.00  0.00    +0.000 A 
ATOM     14 BR   UNL     1       5.078   4.781  16.225  0.00  0.00    +0.000 Br
ATOM     15  C   UNL     1       6.803   6.851  17.182  0.00  0.00    +0.000 A 
ENDBRANCH   5   9
BRANCH   1  19
ATOM     16  C   UNL     1       9.037  15.671  18.189  0.00  0.00    +0.000 A 
ATOM     17  C   UNL     1      10.158  15.044  17.636  0.00  0.00    +0.000 A 
ATOM     18  C   UNL     1      10.186  13.647  17.519  0.00  0.00    +0.000 A 
ATOM     19  C   UNL     1       9.109  12.862  17.957  0.00  0.00    +0.000 A 
ATOM     20  C   UNL     1       7.960  13.515  18.422  0.00  0.00    +0.000 A 
ATOM     21  C   UNL     1       7.927  14.905  18.554  0.00  0.00    +0.000 A 
BRANCH  16  23
ATOM     22  N   UNL     1      10.144  17.675  19.022  0.00  0.00    +0.000 N 
ATOM     23  C   UNL     1       9.013  17.124  18.488  0.00  0.00    +0.000 C 
ATOM     24  O   UNL     1       8.031  17.815  18.246  0.00  0.00    +0.000 OA
ATOM     25  H   UNL     1      10.139  18.680  19.134  0.00  0.00    +0.000 HD
ATOM     26  H   UNL     1      11.035  17.201  19.003  0.00  0.00    +0.000 HD
ENDBRANCH  16  23
ENDBRANCH   1  19
BRANCH   3  27
ATOM     27  C   UNL     1      10.634  11.914  20.582  0.00  0.00    +0.000 C 
ATOM     28  O   UNL     1      11.831  11.888  20.313  0.00  0.00    +0.000 OA
BRANCH  27  29
ATOM     29  C   UNL     1      10.116  13.054  21.402  0.00  0.00    +0.000 A 
ATOM     30  C   UNL     1       9.082  12.816  22.320  0.00  0.00    +0.000 A 
ATOM     31  C   UNL     1       8.458  13.881  22.973  0.00  0.00    +0.000 A 
ATOM     32  C   UNL     1       8.878  15.187  22.730  0.00  0.00    +0.000 A 
ATOM     33  C   UNL     1       9.946  15.428  21.865  0.00  0.00    +0.000 A 
ATOM     34  C   UNL     1      10.570  14.365  21.205  0.00  0.00    +0.000 A 
ENDBRANCH  27  29
ENDBRANCH   3  27
TORSDOF 5
ENDMDL
MODEL 6
REMARK VINA RESULT:      -7.2      1.174      1.699
REMARK  Name = 
REMARK  5 active torsions:
REMARK  status: ('A' for Active; 'I' for Inactive)
REMARK    1  A    between atoms: C_2  and  C_4
REMARK    2  A    between atoms: C_7  and  N_8
REMARK    3  A    between atoms: N_10  and  C_11
REMARK    4  A    between atoms: C_11  and  C_13
REMARK    5  A    between atoms: C_20  and  C_22
REMARK                            x       y       z     vdW  Elec       q    Type
REMARK                         _______ _______ _______ _____ _____    ______ ____
ROOT
ATOM      1  N   UNL     1       2.797   7.497  18.148  0.00  0.00    +0.000 N 
ATOM      2  C   UNL     1       2.028   6.886  19.108  0.00  0.00    +0.000 C 
ATOM      3  N   UNL     1       1.736   5.646  19.319  0.00  0.00    +0.000 NA
ATOM      4  N   UNL     1       1.380   7.703  20.024  0.00  0.00    +0.000 N 
ATOM      5  C   UNL     1       1.287   9.081  19.982  0.00  0.00    +0.000 C 
ATOM      6  O   UNL     1       1.843   9.768  19.124  0.00  0.00    +0.000 OA
ATOM      7  H   UNL     1       2.656   8.503  18.044  0.00  0.00    +0.000 HD
ATOM      8  H   UNL     1       0.874   7.179  20.720  0.00  0.00    +0.000 HD
ENDROOT
BRANCH   5   9
ATOM      9  C   UNL     1       0.487   9.753  21.046  0.00  0.00    +0.000 A 
ATOM     10  C   UNL     1       0.059   8.955  22.118  0.00  0.00    +0.000 A 
ATOM     11  C   UNL     1      -0.687   9.503  23.161  0.00  0.00    +0.000 A 
ATOM     12  C   UNL     1      -1.011  10.858  23.141  0.00  0.00    +0.000 A 
ATOM     13  C   UNL     1      -0.570  11.662  22.087  0.00  0.00    +0.000 A 
ATOM     14 BR   UNL     1      -0.991  13.504  22.097  0.00  0.00    +0.000 Br
ATOM     15  C   UNL     1       0.180  11.120  21.038  0.00  0.00    +0.000 A 
ENDBRANCH   5   9
BRANCH   1  19
ATOM     16  C   UNL     1       6.202   5.730  16.400  0.00  0.00    +0.000 A 
ATOM     17  C   UNL     1       5.253   6.378  15.604  0.00  0.00    +0.000 A 
ATOM     18  C   UNL     1       4.169   7.031  16.206  0.00  0.00    +0.000 A 
ATOM     19  C   UNL     1       4.014   7.041  17.601  0.00  0.00    +0.000 A 
ATOM     20  C   UNL     1       5.023   6.466  18.383  0.00  0.00    +0.000 A 
ATOM     21  C   UNL     1       6.101   5.801  17.792  0.00  0.00    +0.000 A 
BRANCH  16  23
ATOM     22  N   UNL     1       7.499   4.988  14.476  0.00  0.00    +0.000 N 
ATOM     23  C   UNL     1       7.277   4.886  15.820  0.00  0.00    +0.000 C 
ATOM     24  O   UNL     1       7.959   4.144  16.516  0.00  0.00    +0.000 OA
ATOM     25  H   UNL     1       8.293   4.475  14.116  0.00  0.00    +0.000 HD
ATOM     26  H   UNL     1       7.136   5.753  13.926  0.00  0.00    +0.000 HD
ENDBRANCH  16  23
ENDBRANCH   1  19
BRANCH   3  27
ATOM     27  C   UNL     1       1.992   4.702  18.347  0.00  0.00    +0.000 C 
ATOM     28  O   UNL     1       1.402   4.612  17.274  0.00  0.00    +0.000 OA
BRANCH  27  29
ATOM     29  C   UNL     1       2.916   3.595  18.744  0.00  0.00    +0.000 A 
ATOM     30  C   UNL     1       3.108   2.520  17.863  0.00  0.00    +0.000 A 
ATOM     31  C   UNL     1       3.822   1.391  18.269  0.00  0.00    +0.000 A 
ATOM     32  C   UNL     1       4.368   1.338  19.551  0.00  0.00    +0.000 A 
ATOM     33  C   UNL     1       4.234   2.428  20.412  0.00  0.00    +0.000 A 
ATOM     34  C   UNL     1       3.516   3.557  20.011  0.00  0.00    +0.000 A 
ENDBRANCH  27  29
ENDBRANCH   3  27
TORSDOF 5
ENDMDL
MODEL 7
REMARK VINA RESULT:      -7.2      4.756      7.599
REMARK  Name = 
REMARK  5 active torsions:
REMARK  status: ('A' for Active; 'I' for Inactive)
REMARK    1  A    between atoms: C_2  and  C_4
REMARK    2  A    between atoms: C_7  and  N_8
REMARK    3  A    between atoms: N_10  and  C_11
REMARK    4  A    between atoms: C_11  and  C_13
REMARK    5  A    between atoms: C_20  and  C_22
REMARK                            x       y       z     vdW  Elec       q    Type
REMARK                         _______ _______ _______ _____ _____    ______ ____
ROOT
ATOM      1  N   UNL     1       6.921   6.626  18.230  0.00  0.00    +0.000 N 
ATOM      2  C   UNL     1       7.493   7.097  17.074  0.00  0.00    +0.000 C 
ATOM      3  N   UNL     1       7.665   6.557  15.914  0.00  0.00    +0.000 NA
ATOM      4  N   UNL     1       8.048   8.369  17.107  0.00  0.00    +0.000 N 
ATOM      5  C   UNL     1       8.240   9.158  18.225  0.00  0.00    +0.000 C 
ATOM      6  O   UNL     1       7.867   8.831  19.352  0.00  0.00    +0.000 OA
ATOM      7  H   UNL     1       7.144   7.150  19.078  0.00  0.00    +0.000 HD
ATOM      8  H   UNL     1       8.406   8.658  16.211  0.00  0.00    +0.000 HD
ENDROOT
BRANCH   5   9
ATOM      9  C   UNL     1       8.912  10.476  18.035  0.00  0.00    +0.000 A 
ATOM     10  C   UNL     1      10.311  10.464  17.928  0.00  0.00    +0.000 A 
ATOM     11  C   UNL     1      11.021  11.650  17.741  0.00  0.00    +0.000 A 
ATOM     12  C   UNL     1      10.336  12.860  17.657  0.00  0.00    +0.000 A 
ATOM     13  C   UNL     1       8.941  12.875  17.742  0.00  0.00    +0.000 A 
ATOM     14 BR   UNL     1       8.029  14.523  17.591  0.00  0.00    +0.000 Br
ATOM     15  C   UNL     1       8.221  11.690  17.928  0.00  0.00    +0.000 A 
ENDBRANCH   5   9
BRANCH   1  19
ATOM     16  C   UNL     1       3.692   3.916  18.280  0.00  0.00    +0.000 A 
ATOM     17  C   UNL     1       4.831   3.674  19.054  0.00  0.00    +0.000 A 
ATOM     18  C   UNL     1       5.862   4.624  19.091  0.00  0.00    +0.000 A 
ATOM     19  C   UNL     1       5.774   5.815  18.355  0.00  0.00    +0.000 A 
ATOM     20  C   UNL     1       4.587   6.079  17.660  0.00  0.00    +0.000 A 
ATOM     21  C   UNL     1       3.559   5.133  17.607  0.00  0.00    +0.000 A 
BRANCH  16  23
ATOM     22  N   UNL     1       3.006   1.579  18.252  0.00  0.00    +0.000 N 
ATOM     23  C   UNL     1       2.646   2.884  18.071  0.00  0.00    +0.000 C 
ATOM     24  O   UNL     1       1.497   3.184  17.772  0.00  0.00    +0.000 OA
ATOM     25  H   UNL     1       2.259   0.899  18.194  0.00  0.00    +0.000 HD
ATOM     26  H   UNL     1       3.855   1.314  18.731  0.00  0.00    +0.000 HD
ENDBRANCH  16  23
ENDBRANCH   1  19
BRANCH   3  27
ATOM     27  C   UNL     1       7.497   5.198  15.754  0.00  0.00    +0.000 C 
ATOM     28  O   UNL     1       7.944   4.335  16.505  0.00  0.00    +0.000 OA
BRANCH  27  29
ATOM     29  C   UNL     1       6.900   4.765  14.452  0.00  0.00    +0.000 A 
ATOM     30  C   UNL     1       5.628   4.173  14.451  0.00  0.00    +0.000 A 
ATOM     31  C   UNL     1       5.115   3.603  13.284  0.00  0.00    +0.000 A 
ATOM     32  C   UNL     1       5.861   3.638  12.107  0.00  0.00    +0.000 A 
ATOM     33  C   UNL     1       7.101   4.278  12.085  0.00  0.00    +0.000 A 
ATOM     34  C   UNL     1       7.619   4.846  13.252  0.00  0.00    +0.000 A 
ENDBRANCH  27  29
ENDBRANCH   3  27
TORSDOF 5
ENDMDL
MODEL 8
REMARK VINA RESULT:      -7.1      5.021      7.739
REMARK  Name = 
REMARK  5 active torsions:
REMARK  status: ('A' for Active; 'I' for Inactive)
REMARK    1  A    between atoms: C_2  and  C_4
REMARK    2  A    between atoms: C_7  and  N_8
REMARK    3  A    between atoms: N_10  and  C_11
REMARK    4  A    between atoms: C_11  and  C_13
REMARK    5  A    between atoms: C_20  and  C_22
REMARK                            x       y       z     vdW  Elec       q    Type
REMARK                         _______ _______ _______ _____ _____    ______ ____
ROOT
ATOM      1  N   UNL     1       6.923   6.492  18.338  0.00  0.00    +0.000 N 
ATOM      2  C   UNL     1       7.454   7.013  17.183  0.00  0.00    +0.000 C 
ATOM      3  N   UNL     1       7.591   6.519  15.998  0.00  0.00    +0.000 NA
ATOM      4  N   UNL     1       8.005   8.285  17.249  0.00  0.00    +0.000 N 
ATOM      5  C   UNL     1       8.229   9.030  18.391  0.00  0.00    +0.000 C 
ATOM      6  O   UNL     1       7.895   8.657  19.516  0.00  0.00    +0.000 OA
ATOM      7  H   UNL     1       7.171   6.983  19.198  0.00  0.00    +0.000 HD
ATOM      8  H   UNL     1       8.332   8.612  16.355  0.00  0.00    +0.000 HD
ENDROOT
BRANCH   5   9
ATOM      9  C   UNL     1       8.889  10.358  18.232  0.00  0.00    +0.000 A 
ATOM     10  C   UNL     1       8.192  11.329  17.497  0.00  0.00    +0.000 A 
ATOM     11  C   UNL     1       8.731  12.600  17.305  0.00  0.00    +0.000 A 
ATOM     12  C   UNL     1       9.974  12.913  17.850  0.00  0.00    +0.000 A 
ATOM     13  C   UNL     1      10.663  11.957  18.601  0.00  0.00    +0.000 A 
ATOM     14 BR   UNL     1      12.332  12.414  19.361  0.00  0.00    +0.000 Br
ATOM     15  C   UNL     1      10.129  10.680  18.799  0.00  0.00    +0.000 A 
ENDBRANCH   5   9
BRANCH   1  19
ATOM     16  C   UNL     1       3.741   3.728  18.438  0.00  0.00    +0.000 A 
ATOM     17  C   UNL     1       4.839   3.575  19.289  0.00  0.00    +0.000 A 
ATOM     18  C   UNL     1       5.850   4.546  19.303  0.00  0.00    +0.000 A 
ATOM     19  C   UNL     1       5.784   5.671  18.468  0.00  0.00    +0.000 A 
ATOM     20  C   UNL     1       4.632   5.852  17.690  0.00  0.00    +0.000 A 
ATOM     21  C   UNL     1       3.625   4.884  17.661  0.00  0.00    +0.000 A 
BRANCH  16  23
ATOM     22  N   UNL     1       1.436   3.053  18.033  0.00  0.00    +0.000 N 
ATOM     23  C   UNL     1       2.725   2.661  18.258  0.00  0.00    +0.000 C 
ATOM     24  O   UNL     1       3.027   1.475  18.283  0.00  0.00    +0.000 OA
ATOM     25  H   UNL     1       0.777   2.315  17.823  0.00  0.00    +0.000 HD
ATOM     26  H   UNL     1       1.198   3.996  17.762  0.00  0.00    +0.000 HD
ENDBRANCH  16  23
ENDBRANCH   1  19
BRANCH   3  27
ATOM     27  C   UNL     1       7.424   5.167  15.790  0.00  0.00    +0.000 C 
ATOM     28  O   UNL     1       7.843   4.279  16.527  0.00  0.00    +0.000 OA
BRANCH  27  29
ATOM     29  C   UNL     1       6.870   4.778  14.455  0.00  0.00    +0.000 A 
ATOM     30  C   UNL     1       5.591   4.204  14.391  0.00  0.00    +0.000 A 
ATOM     31  C   UNL     1       5.115   3.673  13.190  0.00  0.00    +0.000 A 
ATOM     32  C   UNL     1       5.904   3.731  12.043  0.00  0.00    +0.000 A 
ATOM     33  C   UNL     1       7.152   4.355  12.084  0.00  0.00    +0.000 A 
ATOM     34  C   UNL     1       7.634   4.883  13.285  0.00  0.00    +0.000 A 
ENDBRANCH  27  29
ENDBRANCH   3  27
TORSDOF 5
ENDMDL
MODEL 9
REMARK VINA RESULT:      -7.1      1.117      1.400
REMARK  Name = 
REMARK  5 active torsions:
REMARK  status: ('A' for Active; 'I' for Inactive)
REMARK    1  A    between atoms: C_2  and  C_4
REMARK    2  A    between atoms: C_7  and  N_8
REMARK    3  A    between atoms: N_10  and  C_11
REMARK    4  A    between atoms: C_11  and  C_13
REMARK    5  A    between atoms: C_20  and  C_22
REMARK                            x       y       z     vdW  Elec       q    Type
REMARK                         _______ _______ _______ _____ _____    ______ ____
ROOT
ATOM      1  N   UNL     1       2.710   7.429  18.316  0.00  0.00    +0.000 N 
ATOM      2  C   UNL     1       1.873   6.834  19.229  0.00  0.00    +0.000 C 
ATOM      3  N   UNL     1       1.536   5.602  19.414  0.00  0.00    +0.000 NA
ATOM      4  N   UNL     1       1.199   7.663  20.114  0.00  0.00    +0.000 N 
ATOM      5  C   UNL     1       1.146   9.043  20.077  0.00  0.00    +0.000 C 
ATOM      6  O   UNL     1       1.767   9.720  19.257  0.00  0.00    +0.000 OA
ATOM      7  H   UNL     1       2.602   8.439  18.213  0.00  0.00    +0.000 HD
ATOM      8  H   UNL     1       0.642   7.149  20.778  0.00  0.00    +0.000 HD
ENDROOT
BRANCH   5   9
ATOM      9  C   UNL     1       0.309   9.732  21.102  0.00  0.00    +0.000 A 
ATOM     10  C   UNL     1       0.263   9.150  22.378  0.00  0.00    +0.000 A 
ATOM     11  C   UNL     1      -0.489   9.730  23.399  0.00  0.00    +0.000 A 
ATOM     12  C   UNL     1      -1.201  10.902  23.152  0.00  0.00    +0.000 A 
ATOM     13  C   UNL     1      -1.141  11.497  21.889  0.00  0.00    +0.000 A 
ATOM     14 BR   UNL     1      -2.087  13.105  21.585  0.00  0.00    +0.000 Br
ATOM     15  C   UNL     1      -0.389  10.922  20.860  0.00  0.00    +0.000 A 
ENDBRANCH   5   9
BRANCH   1  19
ATOM     16  C   UNL     1       6.153   5.581  16.734  0.00  0.00    +0.000 A 
ATOM     17  C   UNL     1       5.275   6.277  15.897  0.00  0.00    +0.000 A 
ATOM     18  C   UNL     1       4.179   6.956  16.449  0.00  0.00    +0.000 A 
ATOM     19  C   UNL     1       3.941   6.942  17.832  0.00  0.00    +0.000 A 
ATOM     20  C   UNL     1       4.882   6.317  18.660  0.00  0.00    +0.000 A 
ATOM     21  C   UNL     1       5.971   5.627  18.119  0.00  0.00    +0.000 A 
BRANCH  16  23
ATOM     22  N   UNL     1       8.077   4.134  17.104  0.00  0.00    +0.000 N 
ATOM     23  C   UNL     1       7.231   4.712  16.200  0.00  0.00    +0.000 C 
ATOM     24  O   UNL     1       7.349   4.497  15.000  0.00  0.00    +0.000 OA
ATOM     25  H   UNL     1       8.747   3.475  16.728  0.00  0.00    +0.000 HD
ATOM     26  H   UNL     1       7.864   4.088  18.090  0.00  0.00    +0.000 HD
ENDBRANCH  16  23
ENDBRANCH   1  19
BRANCH   3  27
ATOM     27  C   UNL     1       1.818   4.657  18.450  0.00  0.00    +0.000 C 
ATOM     28  O   UNL     1       1.314   4.614  17.331  0.00  0.00    +0.000 OA
BRANCH  27  29
ATOM     29  C   UNL     1       2.642   3.493  18.902  0.00  0.00    +0.000 A 
ATOM     30  C   UNL     1       3.141   3.482  20.213  0.00  0.00    +0.000 A 
ATOM     31  C   UNL     1       4.053   2.503  20.614  0.00  0.00    +0.000 A 
ATOM     32  C   UNL     1       4.456   1.518  19.714  0.00  0.00    +0.000 A 
ATOM     33  C   UNL     1       3.918   1.486  18.427  0.00  0.00    +0.000 A 
ATOM     34  C   UNL     1       3.009   2.467  18.021  0.00  0.00    +0.000 A 
ENDBRANCH  27  29
ENDBRANCH   3  27
TORSDOF 5
ENDMDL
