MODEL 1
REMARK VINA RESULT:      -7.7      0.000      0.000
REMARK  Name = 
REMARK  8 active torsions:
REMARK  status: ('A' for Active; 'I' for Inactive)
REMARK    1  A    between atoms: C_1  and  O_2
REMARK    2  A    between atoms: O_2  and  N_3
REMARK    3  A    between atoms: N_5  and  C_6
REMARK    4  A    between atoms: C_6  and  C_7
REMARK    5  A    between atoms: C_6  and  C_8
REMARK    6  A    between atoms: C_11  and  C_12
REMARK    7  A    between atoms: C_25  and  C_27
REMARK    8  A    between atoms: C_30  and  C_31
REMARK                            x       y       z     vdW  Elec       q    Type
REMARK                         _______ _______ _______ _____ _____    ______ ____
ROOT
ATOM      1  N   UNL     1      -0.621  14.663  20.853  0.00  0.00    +0.000 N 
ATOM      2  C   UNL     1      -0.605  14.120  22.134  0.00  0.00    +0.000 A 
ATOM      3  N   UNL     1      -0.757  14.957  23.214  0.00  0.00    +0.000 N 
ATOM      4  N   UNL     1      -0.436  12.844  22.322  0.00  0.00    +0.000 NA
ATOM      5  C   UNL     1      -0.254  12.050  21.225  0.00  0.00    +0.000 A 
ATOM      6  C   UNL     1      -0.246  12.474  19.952  0.00  0.00    +0.000 A 
ATOM      7  C   UNL     1      -0.432  13.915  19.710  0.00  0.00    +0.000 A 
ATOM      8  O   UNL     1      -0.435  14.315  18.547  0.00  0.00    +0.000 OA
ATOM      9  C   UNL     1      -0.072  11.602  18.740  0.00  0.00    +0.000 C 
ATOM     10  N   UNL     1       0.342  10.253  19.140  0.00  0.00    +0.000 N 
ATOM     11  C   UNL     1       1.440   9.683  18.487  0.00  0.00    +0.000 C 
ATOM     12  O   UNL     1       2.075  10.274  17.615  0.00  0.00    +0.000 OA
ATOM     13  C   UNL     1      -0.360   9.738  20.321  0.00  0.00    +0.000 C 
ATOM     14  C   UNL     1      -0.078  10.599  21.539  0.00  0.00    +0.000 C 
ATOM     15  H   UNL     1      -0.918  15.920  22.946  0.00  0.00    +0.000 HD
ENDROOT
BRANCH  11  16
ATOM     16  C   UNL     1       1.908   8.317  18.846  0.00  0.00    +0.000 A 
ATOM     17  C   UNL     1       2.562   7.495  17.925  0.00  0.00    +0.000 A 
ATOM     18  C   UNL     1       2.874   6.176  18.246  0.00  0.00    +0.000 A 
ATOM     19  C   UNL     1       2.665   5.711  19.545  0.00  0.00    +0.000 A 
ATOM     20  C   UNL     1       2.120   6.564  20.511  0.00  0.00    +0.000 A 
ATOM     21  C   UNL     1       1.728   7.860  20.159  0.00  0.00    +0.000 A 
BRANCH  19  22
ATOM     22  C   UNL     1       3.046   4.376  19.883  0.00  0.00    +0.000 C 
ATOM     23  N   UNL     1       3.378   3.295  20.165  0.00  0.00    +0.000 NA
ENDBRANCH  19  22
ENDBRANCH  11  16
BRANCH   1  25
ATOM     24  C   UNL     1      -2.224  16.381  20.529  0.00  0.00    +0.000 C 
ATOM     25  O   UNL     1      -0.860  16.063  20.809  0.00  0.00    +0.000 OA
ENDBRANCH   1  25
BRANCH   3  26
ATOM     26  C   UNL     1      -1.413  14.529  24.445  0.00  0.00    +0.000 C 
ATOM     27  C   UNL     1      -1.187  15.566  25.549  0.00  0.00    +0.000 C 
BRANCH  26  28
ATOM     28  C   UNL     1      -2.902  14.338  24.191  0.00  0.00    +0.000 A 
ATOM     29  C   UNL     1      -3.705  15.418  23.801  0.00  0.00    +0.000 A 
ATOM     30  C   UNL     1      -5.071  15.238  23.551  0.00  0.00    +0.000 A 
ATOM     31  C   UNL     1      -5.665  13.977  23.701  0.00  0.00    +0.000 A 
ATOM     32  C   UNL     1      -4.864  12.896  24.092  0.00  0.00    +0.000 A 
ATOM     33  C   UNL     1      -3.501  13.073  24.326  0.00  0.00    +0.000 A 
BRANCH  31  34
ATOM     34  C   UNL     1      -7.139  13.767  23.456  0.00  0.00    +0.000 C 
ATOM     35  F   UNL     1      -7.732  14.792  22.783  0.00  0.00    +0.000 F 
ATOM     36  F   UNL     1      -7.393  12.645  22.727  0.00  0.00    +0.000 F 
ATOM     37  F   UNL     1      -7.842  13.625  24.614  0.00  0.00    +0.000 F 
ENDBRANCH  31  34
ENDBRANCH  26  28
ENDBRANCH   3  26
TORSDOF 6
ENDMDL
MODEL 2
REMARK VINA RESULT:      -7.4      0.294      1.090
REMARK  Name = 
REMARK  8 active torsions:
REMARK  status: ('A' for Active; 'I' for Inactive)
REMARK    1  A    between atoms: C_1  and  O_2
REMARK    2  A    between atoms: O_2  and  N_3
REMARK    3  A    between atoms: N_5  and  C_6
REMARK    4  A    between atoms: C_6  and  C_7
REMARK    5  A    between atoms: C_6  and  C_8
REMARK    6  A    between atoms: C_11  and  C_12
REMARK    7  A    between atoms: C_25  and  C_27
REMARK    8  A    between atoms: C_30  and  C_31
REMARK                            x       y       z     vdW  Elec       q    Type
REMARK                         _______ _______ _______ _____ _____    ______ ____
ROOT
ATOM      1  N   UNL     1      -0.605  14.557  20.748  0.00  0.00    +0.000 N 
ATOM      2  C   UNL     1      -0.573  14.024  22.033  0.00  0.00    +0.000 A 
ATOM      3  N   UNL     1      -0.720  14.868  23.108  0.00  0.00    +0.000 N 
ATOM      4  N   UNL     1      -0.394  12.750  22.228  0.00  0.00    +0.000 NA
ATOM      5  C   UNL     1      -0.218  11.950  21.136  0.00  0.00    +0.000 A 
ATOM      6  C   UNL     1      -0.224  12.365  19.859  0.00  0.00    +0.000 A 
ATOM      7  C   UNL     1      -0.422  13.802  19.609  0.00  0.00    +0.000 A 
ATOM      8  O   UNL     1      -0.438  14.195  18.443  0.00  0.00    +0.000 OA
ATOM      9  C   UNL     1      -0.056  11.485  18.652  0.00  0.00    +0.000 C 
ATOM     10  N   UNL     1       0.370  10.141  19.058  0.00  0.00    +0.000 N 
ATOM     11  C   UNL     1       1.465   9.574  18.398  0.00  0.00    +0.000 C 
ATOM     12  O   UNL     1       2.089  10.162  17.516  0.00  0.00    +0.000 OA
ATOM     13  C   UNL     1      -0.317   9.631  20.249  0.00  0.00    +0.000 C 
ATOM     14  C   UNL     1      -0.029  10.502  21.457  0.00  0.00    +0.000 C 
ATOM     15  H   UNL     1      -0.890  15.828  22.835  0.00  0.00    +0.000 HD
ENDROOT
BRANCH  11  16
ATOM     16  C   UNL     1       1.945   8.213  18.763  0.00  0.00    +0.000 A 
ATOM     17  C   UNL     1       1.776   7.692  20.048  0.00  0.00    +0.000 A 
ATOM     18  C   UNL     1       2.347   6.471  20.400  0.00  0.00    +0.000 A 
ATOM     19  C   UNL     1       2.969   5.690  19.425  0.00  0.00    +0.000 A 
ATOM     20  C   UNL     1       3.040   6.149  18.105  0.00  0.00    +0.000 A 
ATOM     21  C   UNL     1       2.541   7.415  17.778  0.00  0.00    +0.000 A 
BRANCH  19  22
ATOM     22  C   UNL     1       3.497   4.410  19.780  0.00  0.00    +0.000 C 
ATOM     23  N   UNL     1       3.925   3.360  20.049  0.00  0.00    +0.000 NA
ENDBRANCH  19  22
ENDBRANCH  11  16
BRANCH   1  25
ATOM     24  C   UNL     1      -2.234  16.264  20.509  0.00  0.00    +0.000 C 
ATOM     25  O   UNL     1      -0.852  15.956  20.696  0.00  0.00    +0.000 OA
ENDBRANCH   1  25
BRANCH   3  26
ATOM     26  C   UNL     1      -1.363  14.445  24.349  0.00  0.00    +0.000 C 
ATOM     27  C   UNL     1      -1.051  15.442  25.468  0.00  0.00    +0.000 C 
BRANCH  26  28
ATOM     28  C   UNL     1      -2.866  14.336  24.135  0.00  0.00    +0.000 A 
ATOM     29  C   UNL     1      -3.624  15.467  23.803  0.00  0.00    +0.000 A 
ATOM     30  C   UNL     1      -5.004  15.363  23.590  0.00  0.00    +0.000 A 
ATOM     31  C   UNL     1      -5.656  14.130  23.719  0.00  0.00    +0.000 A 
ATOM     32  C   UNL     1      -4.900  12.998  24.051  0.00  0.00    +0.000 A 
ATOM     33  C   UNL     1      -3.523  13.099  24.249  0.00  0.00    +0.000 A 
BRANCH  31  34
ATOM     34  C   UNL     1      -7.146  14.002  23.513  0.00  0.00    +0.000 C 
ATOM     35  F   UNL     1      -7.763  13.233  24.453  0.00  0.00    +0.000 F 
ATOM     36  F   UNL     1      -7.782  15.205  23.537  0.00  0.00    +0.000 F 
ATOM     37  F   UNL     1      -7.456  13.441  22.310  0.00  0.00    +0.000 F 
ENDBRANCH  31  34
ENDBRANCH  26  28
ENDBRANCH   3  26
TORSDOF 6
ENDMDL
MODEL 3
REMARK VINA RESULT:      -7.3      5.531      7.078
REMARK  Name = 
REMARK  8 active torsions:
REMARK  status: ('A' for Active; 'I' for Inactive)
REMARK    1  A    between atoms: C_1  and  O_2
REMARK    2  A    between atoms: O_2  and  N_3
REMARK    3  A    between atoms: N_5  and  C_6
REMARK    4  A    between atoms: C_6  and  C_7
REMARK    5  A    between atoms: C_6  and  C_8
REMARK    6  A    between atoms: C_11  and  C_12
REMARK    7  A    between atoms: C_25  and  C_27
REMARK    8  A    between atoms: C_30  and  C_31
REMARK                            x       y       z     vdW  Elec       q    Type
REMARK                         _______ _______ _______ _____ _____    ______ ____
ROOT
ATOM      1  N   UNL     1      -0.566  15.878  19.901  0.00  0.00    +0.000 N 
ATOM      2  C   UNL     1      -0.380  14.648  20.526  0.00  0.00    +0.000 A 
ATOM      3  N   UNL     1      -1.411  14.114  21.262  0.00  0.00    +0.000 N 
ATOM      4  N   UNL     1       0.750  14.012  20.434  0.00  0.00    +0.000 NA
ATOM      5  C   UNL     1       1.760  14.593  19.722  0.00  0.00    +0.000 A 
ATOM      6  C   UNL     1       1.686  15.773  19.089  0.00  0.00    +0.000 A 
ATOM      7  C   UNL     1       0.418  16.518  19.178  0.00  0.00    +0.000 A 
ATOM      8  O   UNL     1       0.334  17.598  18.596  0.00  0.00    +0.000 OA
ATOM      9  C   UNL     1       2.786  16.405  18.283  0.00  0.00    +0.000 C 
ATOM     10  N   UNL     1       4.045  15.681  18.485  0.00  0.00    +0.000 N 
ATOM     11  C   UNL     1       5.188  16.425  18.793  0.00  0.00    +0.000 C 
ATOM     12  O   UNL     1       5.171  17.649  18.920  0.00  0.00    +0.000 OA
ATOM     13  C   UNL     1       3.897  14.221  18.509  0.00  0.00    +0.000 C 
ATOM     14  C   UNL     1       3.016  13.784  19.665  0.00  0.00    +0.000 C 
ATOM     15  H   UNL     1      -2.251  14.677  21.232  0.00  0.00    +0.000 HD
ENDROOT
BRANCH  11  16
ATOM     16  C   UNL     1       6.495  15.748  19.007  0.00  0.00    +0.000 A 
ATOM     17  C   UNL     1       7.351  15.443  17.946  0.00  0.00    +0.000 A 
ATOM     18  C   UNL     1       8.507  14.695  18.158  0.00  0.00    +0.000 A 
ATOM     19  C   UNL     1       8.894  14.371  19.459  0.00  0.00    +0.000 A 
ATOM     20  C   UNL     1       8.105  14.776  20.542  0.00  0.00    +0.000 A 
ATOM     21  C   UNL     1       6.901  15.451  20.315  0.00  0.00    +0.000 A 
BRANCH  19  22
ATOM     22  C   UNL     1      10.114  13.658  19.673  0.00  0.00    +0.000 C 
ATOM     23  N   UNL     1      11.114  13.079  19.825  0.00  0.00    +0.000 NA
ENDBRANCH  19  22
ENDBRANCH  11  16
BRANCH   1  25
ATOM     24  C   UNL     1      -1.909  17.481  21.019  0.00  0.00    +0.000 C 
ATOM     25  O   UNL     1      -1.868  16.427  20.056  0.00  0.00    +0.000 OA
ENDBRANCH   1  25
BRANCH   3  26
ATOM     26  C   UNL     1      -1.624  12.674  21.373  0.00  0.00    +0.000 C 
ATOM     27  C   UNL     1      -2.673  12.379  22.449  0.00  0.00    +0.000 C 
BRANCH  26  28
ATOM     28  C   UNL     1      -2.069  12.118  20.028  0.00  0.00    +0.000 A 
ATOM     29  C   UNL     1      -3.370  12.340  19.558  0.00  0.00    +0.000 A 
ATOM     30  C   UNL     1      -3.774  11.843  18.313  0.00  0.00    +0.000 A 
ATOM     31  C   UNL     1      -2.889  11.100  17.519  0.00  0.00    +0.000 A 
ATOM     32  C   UNL     1      -1.588  10.876  17.987  0.00  0.00    +0.000 A 
ATOM     33  C   UNL     1      -1.182  11.384  19.221  0.00  0.00    +0.000 A 
BRANCH  31  34
ATOM     34  C   UNL     1      -3.312  10.539  16.183  0.00  0.00    +0.000 C 
ATOM     35  F   UNL     1      -2.606  11.041  15.132  0.00  0.00    +0.000 F 
ATOM     36  F   UNL     1      -3.170   9.186  16.116  0.00  0.00    +0.000 F 
ATOM     37  F   UNL     1      -4.622  10.790  15.907  0.00  0.00    +0.000 F 
ENDBRANCH  31  34
ENDBRANCH  26  28
ENDBRANCH   3  26
TORSDOF 6
ENDMDL
MODEL 4
REMARK VINA RESULT:      -7.2      5.738      7.581
REMARK  Name = 
REMARK  8 active torsions:
REMARK  status: ('A' for Active; 'I' for Inactive)
REMARK    1  A    between atoms: C_1  and  O_2
REMARK    2  A    between atoms: O_2  and  N_3
REMARK    3  A    between atoms: N_5  and  C_6
REMARK    4  A    between atoms: C_6  and  C_7
REMARK    5  A    between atoms: C_6  and  C_8
REMARK    6  A    between atoms: C_11  and  C_12
REMARK    7  A    between atoms: C_25  and  C_27
REMARK    8  A    between atoms: C_30  and  C_31
REMARK                            x       y       z     vdW  Elec       q    Type
REMARK                         _______ _______ _______ _____ _____    ______ ____
ROOT
ATOM      1  N   UNL     1       0.469  13.589  21.359  0.00  0.00    +0.000 N 
ATOM      2  C   UNL     1       0.580  12.850  20.186  0.00  0.00    +0.000 A 
ATOM      3  N   UNL     1      -0.319  11.837  19.950  0.00  0.00    +0.000 N 
ATOM      4  N   UNL     1       1.524  13.093  19.324  0.00  0.00    +0.000 NA
ATOM      5  C   UNL     1       2.418  14.084  19.612  0.00  0.00    +0.000 A 
ATOM      6  C   UNL     1       2.403  14.849  20.714  0.00  0.00    +0.000 A 
ATOM      7  C   UNL     1       1.347  14.594  21.708  0.00  0.00    +0.000 A 
ATOM      8  O   UNL     1       1.316  15.293  22.720  0.00  0.00    +0.000 OA
ATOM      9  C   UNL     1       3.369  15.958  21.023  0.00  0.00    +0.000 C 
ATOM     10  N   UNL     1       4.491  15.934  20.079  0.00  0.00    +0.000 N 
ATOM     11  C   UNL     1       5.787  15.993  20.599  0.00  0.00    +0.000 C 
ATOM     12  O   UNL     1       6.018  16.043  21.807  0.00  0.00    +0.000 OA
ATOM     13  C   UNL     1       4.097  15.668  18.691  0.00  0.00    +0.000 C 
ATOM     14  C   UNL     1       3.459  14.297  18.560  0.00  0.00    +0.000 C 
ATOM     15  H   UNL     1      -1.029  11.764  20.668  0.00  0.00    +0.000 HD
ENDROOT
BRANCH  11  16
ATOM     16  C   UNL     1       6.967  15.973  19.692  0.00  0.00    +0.000 A 
ATOM     17  C   UNL     1       7.603  14.782  19.335  0.00  0.00    +0.000 A 
ATOM     18  C   UNL     1       8.780  14.800  18.591  0.00  0.00    +0.000 A 
ATOM     19  C   UNL     1       9.254  16.006  18.073  0.00  0.00    +0.000 A 
ATOM     20  C   UNL     1       8.558  17.194  18.324  0.00  0.00    +0.000 A 
ATOM     21  C   UNL     1       7.425  17.179  19.145  0.00  0.00    +0.000 A 
BRANCH  19  22
ATOM     22  C   UNL     1      10.428  16.008  17.258  0.00  0.00    +0.000 C 
ATOM     23  N   UNL     1      11.377  15.992  16.583  0.00  0.00    +0.000 NA
ENDBRANCH  19  22
ENDBRANCH  11  16
BRANCH   1  25
ATOM     24  C   UNL     1      -1.662  14.230  22.179  0.00  0.00    +0.000 C 
ATOM     25  O   UNL     1      -0.638  13.235  22.177  0.00  0.00    +0.000 OA
ENDBRANCH   1  25
BRANCH   3  26
ATOM     26  C   UNL     1      -0.750  11.476  18.602  0.00  0.00    +0.000 C 
ATOM     27  C   UNL     1      -0.215  10.089  18.233  0.00  0.00    +0.000 C 
BRANCH  26  28
ATOM     28  C   UNL     1      -2.270  11.497  18.530  0.00  0.00    +0.000 A 
ATOM     29  C   UNL     1      -3.023  12.178  19.496  0.00  0.00    +0.000 A 
ATOM     30  C   UNL     1      -4.420  12.211  19.419  0.00  0.00    +0.000 A 
ATOM     31  C   UNL     1      -5.095  11.551  18.383  0.00  0.00    +0.000 A 
ATOM     32  C   UNL     1      -4.345  10.869  17.416  0.00  0.00    +0.000 A 
ATOM     33  C   UNL     1      -2.952  10.849  17.485  0.00  0.00    +0.000 A 
BRANCH  31  34
ATOM     34  C   UNL     1      -6.602  11.559  18.294  0.00  0.00    +0.000 C 
ATOM     35  F   UNL     1      -7.153  10.314  18.257  0.00  0.00    +0.000 F 
ATOM     36  F   UNL     1      -7.184  12.195  19.347  0.00  0.00    +0.000 F 
ATOM     37  F   UNL     1      -7.051  12.199  17.178  0.00  0.00    +0.000 F 
ENDBRANCH  31  34
ENDBRANCH  26  28
ENDBRANCH   3  26
TORSDOF 6
ENDMDL
MODEL 5
REMARK VINA RESULT:      -7.2      5.877      7.574
REMARK  Name = 
REMARK  8 active torsions:
REMARK  status: ('A' for Active; 'I' for Inactive)
REMARK    1  A    between atoms: C_1  and  O_2
REMARK    2  A    between atoms: O_2  and  N_3
REMARK    3  A    between atoms: N_5  and  C_6
REMARK    4  A    between atoms: C_6  and  C_7
REMARK    5  A    between atoms: C_6  and  C_8
REMARK    6  A    between atoms: C_11  and  C_12
REMARK    7  A    between atoms: C_25  and  C_27
REMARK    8  A    between atoms: C_30  and  C_31
REMARK                            x       y       z     vdW  Elec       q    Type
REMARK                         _______ _______ _______ _____ _____    ______ ____
ROOT
ATOM      1  N   UNL     1      -0.003  15.617  20.169  0.00  0.00    +0.000 N 
ATOM      2  C   UNL     1       0.293  14.346  20.652  0.00  0.00    +0.000 A 
ATOM      3  N   UNL     1      -0.664  13.666  21.368  0.00  0.00    +0.000 N 
ATOM      4  N   UNL     1       1.458  13.804  20.450  0.00  0.00    +0.000 NA
ATOM      5  C   UNL     1       2.393  14.524  19.764  0.00  0.00    +0.000 A 
ATOM      6  C   UNL     1       2.211  15.756  19.263  0.00  0.00    +0.000 A 
ATOM      7  C   UNL     1       0.903  16.396  19.480  0.00  0.00    +0.000 A 
ATOM      8  O   UNL     1       0.720  17.521  19.020  0.00  0.00    +0.000 OA
ATOM      9  C   UNL     1       3.228  16.544  18.485  0.00  0.00    +0.000 C 
ATOM     10  N   UNL     1       4.541  15.893  18.560  0.00  0.00    +0.000 N 
ATOM     11  C   UNL     1       5.645  16.681  18.900  0.00  0.00    +0.000 C 
ATOM     12  O   UNL     1       5.553  17.881  19.156  0.00  0.00    +0.000 OA
ATOM     13  C   UNL     1       4.491  14.432  18.435  0.00  0.00    +0.000 C 
ATOM     14  C   UNL     1       3.696  13.817  19.572  0.00  0.00    +0.000 C 
ATOM     15  H   UNL     1      -1.541  14.169  21.431  0.00  0.00    +0.000 HD
ENDROOT
BRANCH  11  16
ATOM     16  C   UNL     1       7.003  16.080  18.990  0.00  0.00    +0.000 A 
ATOM     17  C   UNL     1       7.506  15.570  20.190  0.00  0.00    +0.000 A 
ATOM     18  C   UNL     1       8.825  15.132  20.278  0.00  0.00    +0.000 A 
ATOM     19  C   UNL     1       9.611  15.063  19.127  0.00  0.00    +0.000 A 
ATOM     20  C   UNL     1       9.078  15.459  17.895  0.00  0.00    +0.000 A 
ATOM     21  C   UNL     1       7.782  15.980  17.829  0.00  0.00    +0.000 A 
BRANCH  19  22
ATOM     22  C   UNL     1      10.943  14.552  19.215  0.00  0.00    +0.000 C 
ATOM     23  N   UNL     1      12.022  14.118  19.275  0.00  0.00    +0.000 NA
ENDBRANCH  19  22
ENDBRANCH  11  16
BRANCH   1  25
ATOM     24  C   UNL     1      -1.397  16.987  21.512  0.00  0.00    +0.000 C 
ATOM     25  O   UNL     1      -1.329  16.054  20.433  0.00  0.00    +0.000 OA
ENDBRANCH   1  25
BRANCH   3  26
ATOM     26  C   UNL     1      -0.776  12.211  21.334  0.00  0.00    +0.000 C 
ATOM     27  C   UNL     1      -1.622  11.721  22.513  0.00  0.00    +0.000 C 
BRANCH  26  28
ATOM     28  C   UNL     1      -1.398  11.777  20.015  0.00  0.00    +0.000 A 
ATOM     29  C   UNL     1      -0.732  10.877  19.172  0.00  0.00    +0.000 A 
ATOM     30  C   UNL     1      -1.313  10.465  17.967  0.00  0.00    +0.000 A 
ATOM     31  C   UNL     1      -2.565  10.956  17.572  0.00  0.00    +0.000 A 
ATOM     32  C   UNL     1      -3.233  11.856  18.413  0.00  0.00    +0.000 A 
ATOM     33  C   UNL     1      -2.660  12.255  19.620  0.00  0.00    +0.000 A 
BRANCH  31  34
ATOM     34  C   UNL     1      -3.198  10.539  16.267  0.00  0.00    +0.000 C 
ATOM     35  F   UNL     1      -3.045   9.215  15.984  0.00  0.00    +0.000 F 
ATOM     36  F   UNL     1      -4.539  10.774  16.239  0.00  0.00    +0.000 F 
ATOM     37  F   UNL     1      -2.680  11.211  15.202  0.00  0.00    +0.000 F 
ENDBRANCH  31  34
ENDBRANCH  26  28
ENDBRANCH   3  26
TORSDOF 6
ENDMDL
MODEL 6
REMARK VINA RESULT:      -7.2      5.883      7.665
REMARK  Name = 
REMARK  8 active torsions:
REMARK  status: ('A' for Active; 'I' for Inactive)
REMARK    1  A    between atoms: C_1  and  O_2
REMARK    2  A    between atoms: O_2  and  N_3
REMARK    3  A    between atoms: N_5  and  C_6
REMARK    4  A    between atoms: C_6  and  C_7
REMARK    5  A    between atoms: C_6  and  C_8
REMARK    6  A    between atoms: C_11  and  C_12
REMARK    7  A    between atoms: C_25  and  C_27
REMARK    8  A    between atoms: C_30  and  C_31
REMARK                            x       y       z     vdW  Elec       q    Type
REMARK                         _______ _______ _______ _____ _____    ______ ____
ROOT
ATOM      1  N   UNL     1       0.206  15.372  21.071  0.00  0.00    +0.000 N 
ATOM      2  C   UNL     1       0.637  14.066  21.289  0.00  0.00    +0.000 A 
ATOM      3  N   UNL     1      -0.194  13.193  21.949  0.00  0.00    +0.000 N 
ATOM      4  N   UNL     1       1.811  13.671  20.893  0.00  0.00    +0.000 NA
ATOM      5  C   UNL     1       2.621  14.578  20.272  0.00  0.00    +0.000 A 
ATOM      6  C   UNL     1       2.304  15.858  20.020  0.00  0.00    +0.000 A 
ATOM      7  C   UNL     1       0.982  16.334  20.460  0.00  0.00    +0.000 A 
ATOM      8  O   UNL     1       0.676  17.502  20.228  0.00  0.00    +0.000 OA
ATOM      9  C   UNL     1       3.181  16.854  19.314  0.00  0.00    +0.000 C 
ATOM     10  N   UNL     1       4.536  16.317  19.156  0.00  0.00    +0.000 N 
ATOM     11  C   UNL     1       5.611  17.127  19.538  0.00  0.00    +0.000 C 
ATOM     12  O   UNL     1       5.461  18.251  20.015  0.00  0.00    +0.000 OA
ATOM     13  C   UNL     1       4.577  14.901  18.773  0.00  0.00    +0.000 C 
ATOM     14  C   UNL     1       3.944  14.031  19.844  0.00  0.00    +0.000 C 
ATOM     15  H   UNL     1      -1.093  13.599  22.176  0.00  0.00    +0.000 HD
ENDROOT
BRANCH  11  16
ATOM     16  C   UNL     1       7.010  16.639  19.401  0.00  0.00    +0.000 A 
ATOM     17  C   UNL     1       7.730  16.787  18.213  0.00  0.00    +0.000 A 
ATOM     18  C   UNL     1       8.989  16.209  18.069  0.00  0.00    +0.000 A 
ATOM     19  C   UNL     1       9.602  15.600  19.165  0.00  0.00    +0.000 A 
ATOM     20  C   UNL     1       8.938  15.550  20.396  0.00  0.00    +0.000 A 
ATOM     21  C   UNL     1       7.639  16.056  20.510  0.00  0.00    +0.000 A 
BRANCH  19  22
ATOM     22  C   UNL     1      10.920  15.064  19.026  0.00  0.00    +0.000 C 
ATOM     23  N   UNL     1      11.997  14.630  18.935  0.00  0.00    +0.000 NA
ENDBRANCH  19  22
ENDBRANCH  11  16
BRANCH   1  25
ATOM     24  C   UNL     1      -2.040  15.807  20.447  0.00  0.00    +0.000 C 
ATOM     25  O   UNL     1      -1.115  15.639  21.522  0.00  0.00    +0.000 OA
ENDBRANCH   1  25
BRANCH   3  26
ATOM     26  C   UNL     1      -0.206  11.761  21.662  0.00  0.00    +0.000 C 
ATOM     27  C   UNL     1      -0.850  10.998  22.822  0.00  0.00    +0.000 C 
BRANCH  26  28
ATOM     28  C   UNL     1      -0.967  11.506  20.368  0.00  0.00    +0.000 A 
ATOM     29  C   UNL     1      -2.195  12.136  20.126  0.00  0.00    +0.000 A 
ATOM     30  C   UNL     1      -2.887  11.913  18.929  0.00  0.00    +0.000 A 
ATOM     31  C   UNL     1      -2.372  11.046  17.956  0.00  0.00    +0.000 A 
ATOM     32  C   UNL     1      -1.144  10.415  18.197  0.00  0.00    +0.000 A 
ATOM     33  C   UNL     1      -0.449  10.648  19.383  0.00  0.00    +0.000 A 
BRANCH  31  34
ATOM     34  C   UNL     1      -3.112  10.779  16.668  0.00  0.00    +0.000 C 
ATOM     35  F   UNL     1      -3.320   9.455  16.423  0.00  0.00    +0.000 F 
ATOM     36  F   UNL     1      -4.342  11.362  16.642  0.00  0.00    +0.000 F 
ATOM     37  F   UNL     1      -2.448  11.260  15.580  0.00  0.00    +0.000 F 
ENDBRANCH  31  34
ENDBRANCH  26  28
ENDBRANCH   3  26
TORSDOF 6
ENDMDL
MODEL 7
REMARK VINA RESULT:      -7.1      5.637      7.167
REMARK  Name = 
REMARK  8 active torsions:
REMARK  status: ('A' for Active; 'I' for Inactive)
REMARK    1  A    between atoms: C_1  and  O_2
REMARK    2  A    between atoms: O_2  and  N_3
REMARK    3  A    between atoms: N_5  and  C_6
REMARK    4  A    between atoms: C_6  and  C_7
REMARK    5  A    between atoms: C_6  and  C_8
REMARK    6  A    between atoms: C_11  and  C_12
REMARK    7  A    between atoms: C_25  and  C_27
REMARK    8  A    between atoms: C_30  and  C_31
REMARK                            x       y       z     vdW  Elec       q    Type
REMARK                         _______ _______ _______ _____ _____    ______ ____
ROOT
ATOM      1  N   UNL     1       0.168  15.173  20.426  0.00  0.00    +0.000 N 
ATOM      2  C   UNL     1       0.304  13.924  19.825  0.00  0.00    +0.000 A 
ATOM      3  N   UNL     1      -0.715  13.011  19.951  0.00  0.00    +0.000 N 
ATOM      4  N   UNL     1       1.379  13.610  19.164  0.00  0.00    +0.000 NA
ATOM      5  C   UNL     1       2.383  14.532  19.090  0.00  0.00    +0.000 A 
ATOM      6  C   UNL     1       2.355  15.757  19.637  0.00  0.00    +0.000 A 
ATOM      7  C   UNL     1       1.151  16.139  20.395  0.00  0.00    +0.000 A 
ATOM      8  O   UNL     1       1.108  17.262  20.895  0.00  0.00    +0.000 OA
ATOM      9  C   UNL     1       3.446  16.786  19.538  0.00  0.00    +0.000 C 
ATOM     10  N   UNL     1       4.660  16.186  18.975  0.00  0.00    +0.000 N 
ATOM     11  C   UNL     1       5.870  16.405  19.642  0.00  0.00    +0.000 C 
ATOM     12  O   UNL     1       5.947  17.057  20.683  0.00  0.00    +0.000 OA
ATOM     13  C   UNL     1       4.410  15.269  17.857  0.00  0.00    +0.000 C 
ATOM     14  C   UNL     1       3.572  14.085  18.302  0.00  0.00    +0.000 C 
ATOM     15  H   UNL     1      -1.514  13.378  20.453  0.00  0.00    +0.000 HD
ENDROOT
BRANCH  11  16
ATOM     16  C   UNL     1       7.136  15.825  19.120  0.00  0.00    +0.000 A 
ATOM     17  C   UNL     1       7.981  16.542  18.268  0.00  0.00    +0.000 A 
ATOM     18  C   UNL     1       9.092  15.932  17.691  0.00  0.00    +0.000 A 
ATOM     19  C   UNL     1       9.452  14.640  18.076  0.00  0.00    +0.000 A 
ATOM     20  C   UNL     1       8.680  13.954  19.020  0.00  0.00    +0.000 A 
ATOM     21  C   UNL     1       7.516  14.540  19.530  0.00  0.00    +0.000 A 
BRANCH  19  22
ATOM     22  C   UNL     1      10.629  14.045  17.527  0.00  0.00    +0.000 C 
ATOM     23  N   UNL     1      11.576  13.546  17.066  0.00  0.00    +0.000 NA
ENDBRANCH  19  22
ENDBRANCH  11  16
BRANCH   1  25
ATOM     24  C   UNL     1      -0.995  15.237  22.492  0.00  0.00    +0.000 C 
ATOM     25  O   UNL     1      -1.079  15.383  21.074  0.00  0.00    +0.000 OA
ENDBRANCH   1  25
BRANCH   3  26
ATOM     26  C   UNL     1      -1.023  12.037  18.908  0.00  0.00    +0.000 C 
ATOM     27  C   UNL     1      -0.325  10.707  19.207  0.00  0.00    +0.000 C 
BRANCH  26  28
ATOM     28  C   UNL     1      -2.530  11.841  18.821  0.00  0.00    +0.000 A 
ATOM     29  C   UNL     1      -3.389  12.494  19.715  0.00  0.00    +0.000 A 
ATOM     30  C   UNL     1      -4.775  12.325  19.624  0.00  0.00    +0.000 A 
ATOM     31  C   UNL     1      -5.332  11.489  18.646  0.00  0.00    +0.000 A 
ATOM     32  C   UNL     1      -4.475  10.835  17.751  0.00  0.00    +0.000 A 
ATOM     33  C   UNL     1      -3.094  11.014  17.834  0.00  0.00    +0.000 A 
BRANCH  31  34
ATOM     34  C   UNL     1      -6.823  11.279  18.545  0.00  0.00    +0.000 C 
ATOM     35  F   UNL     1      -7.182   9.974  18.404  0.00  0.00    +0.000 F 
ATOM     36  F   UNL     1      -7.490  11.735  19.641  0.00  0.00    +0.000 F 
ATOM     37  F   UNL     1      -7.366  11.933  17.480  0.00  0.00    +0.000 F 
ENDBRANCH  31  34
ENDBRANCH  26  28
ENDBRANCH   3  26
TORSDOF 6
ENDMDL
MODEL 8
REMARK VINA RESULT:      -7.1      5.726      7.643
REMARK  Name = 
REMARK  8 active torsions:
REMARK  status: ('A' for Active; 'I' for Inactive)
REMARK    1  A    between atoms: C_1  and  O_2
REMARK    2  A    between atoms: O_2  and  N_3
REMARK    3  A    between atoms: N_5  and  C_6
REMARK    4  A    between atoms: C_6  and  C_7
REMARK    5  A    between atoms: C_6  and  C_8
REMARK    6  A    between atoms: C_11  and  C_12
REMARK    7  A    between atoms: C_25  and  C_27
REMARK    8  A    between atoms: C_30  and  C_31
REMARK                            x       y       z     vdW  Elec       q    Type
REMARK                         _______ _______ _______ _____ _____    ______ ____
ROOT
ATOM      1  N   UNL     1       0.466  13.563  21.391  0.00  0.00    +0.000 N 
ATOM      2  C   UNL     1       0.614  12.853  20.203  0.00  0.00    +0.000 A 
ATOM      3  N   UNL     1      -0.262  11.830  19.926  0.00  0.00    +0.000 N 
ATOM      4  N   UNL     1       1.570  13.132  19.366  0.00  0.00    +0.000 NA
ATOM      5  C   UNL     1       2.440  14.133  19.694  0.00  0.00    +0.000 A 
ATOM      6  C   UNL     1       2.389  14.871  20.813  0.00  0.00    +0.000 A 
ATOM      7  C   UNL     1       1.319  14.574  21.780  0.00  0.00    +0.000 A 
ATOM      8  O   UNL     1       1.256  15.248  22.807  0.00  0.00    +0.000 OA
ATOM      9  C   UNL     1       3.329  15.990  21.167  0.00  0.00    +0.000 C 
ATOM     10  N   UNL     1       4.469  16.007  20.245  0.00  0.00    +0.000 N 
ATOM     11  C   UNL     1       5.754  16.078  20.792  0.00  0.00    +0.000 C 
ATOM     12  O   UNL     1       5.960  16.103  22.005  0.00  0.00    +0.000 OA
ATOM     13  C   UNL     1       4.107  15.767  18.843  0.00  0.00    +0.000 C 
ATOM     14  C   UNL     1       3.497  14.389  18.669  0.00  0.00    +0.000 C 
ATOM     15  H   UNL     1      -0.984  11.728  20.628  0.00  0.00    +0.000 HD
ENDROOT
BRANCH  11  16
ATOM     16  C   UNL     1       6.951  16.100  19.909  0.00  0.00    +0.000 A 
ATOM     17  C   UNL     1       7.468  17.293  19.398  0.00  0.00    +0.000 A 
ATOM     18  C   UNL     1       8.509  17.277  18.472  0.00  0.00    +0.000 A 
ATOM     19  C   UNL     1       9.139  16.072  18.158  0.00  0.00    +0.000 A 
ATOM     20  C   UNL     1       8.707  14.883  18.756  0.00  0.00    +0.000 A 
ATOM     21  C   UNL     1       7.606  14.895  19.619  0.00  0.00    +0.000 A 
BRANCH  19  22
ATOM     22  C   UNL     1      10.247  16.073  17.255  0.00  0.00    +0.000 C 
ATOM     23  N   UNL     1      11.162  16.085  16.534  0.00  0.00    +0.000 NA
ENDBRANCH  19  22
ENDBRANCH  11  16
BRANCH   1  25
ATOM     24  C   UNL     1      -1.685  14.152  22.195  0.00  0.00    +0.000 C 
ATOM     25  O   UNL     1      -0.649  13.169  22.178  0.00  0.00    +0.000 OA
ENDBRANCH   1  25
BRANCH   3  26
ATOM     26  C   UNL     1      -0.660  11.493  18.562  0.00  0.00    +0.000 C 
ATOM     27  C   UNL     1      -0.175  10.084  18.206  0.00  0.00    +0.000 C 
BRANCH  26  28
ATOM     28  C   UNL     1      -2.174  11.583  18.435  0.00  0.00    +0.000 A 
ATOM     29  C   UNL     1      -2.824  11.106  17.289  0.00  0.00    +0.000 A 
ATOM     30  C   UNL     1      -4.218  11.174  17.179  0.00  0.00    +0.000 A 
ATOM     31  C   UNL     1      -4.990  11.734  18.207  0.00  0.00    +0.000 A 
ATOM     32  C   UNL     1      -4.342  12.212  19.354  0.00  0.00    +0.000 A 
ATOM     33  C   UNL     1      -2.954  12.131  19.468  0.00  0.00    +0.000 A 
BRANCH  31  34
ATOM     34  C   UNL     1      -6.492  11.834  18.099  0.00  0.00    +0.000 C 
ATOM     35  F   UNL     1      -7.123  10.627  18.121  0.00  0.00    +0.000 F 
ATOM     36  F   UNL     1      -7.041  12.561  19.111  0.00  0.00    +0.000 F 
ATOM     37  F   UNL     1      -6.889  12.441  16.946  0.00  0.00    +0.000 F 
ENDBRANCH  31  34
ENDBRANCH  26  28
ENDBRANCH   3  26
TORSDOF 6
ENDMDL
MODEL 9
REMARK VINA RESULT:      -7.1      0.825      1.289
REMARK  Name = 
REMARK  8 active torsions:
REMARK  status: ('A' for Active; 'I' for Inactive)
REMARK    1  A    between atoms: C_1  and  O_2
REMARK    2  A    between atoms: O_2  and  N_3
REMARK    3  A    between atoms: N_5  and  C_6
REMARK    4  A    between atoms: C_6  and  C_7
REMARK    5  A    between atoms: C_6  and  C_8
REMARK    6  A    between atoms: C_11  and  C_12
REMARK    7  A    between atoms: C_25  and  C_27
REMARK    8  A    between atoms: C_30  and  C_31
REMARK                            x       y       z     vdW  Elec       q    Type
REMARK                         _______ _______ _______ _____ _____    ______ ____
ROOT
ATOM      1  N   UNL     1       0.068  14.367  20.546  0.00  0.00    +0.000 N 
ATOM      2  C   UNL     1      -0.135  13.870  21.830  0.00  0.00    +0.000 A 
ATOM      3  N   UNL     1      -0.307  14.755  22.867  0.00  0.00    +0.000 N 
ATOM      4  N   UNL     1      -0.148  12.590  22.061  0.00  0.00    +0.000 NA
ATOM      5  C   UNL     1       0.061  11.744  21.010  0.00  0.00    +0.000 A 
ATOM      6  C   UNL     1       0.271  12.120  19.739  0.00  0.00    +0.000 A 
ATOM      7  C   UNL     1       0.295  13.564  19.449  0.00  0.00    +0.000 A 
ATOM      8  O   UNL     1       0.478  13.923  18.287  0.00  0.00    +0.000 OA
ATOM      9  C   UNL     1       0.477  11.193  18.574  0.00  0.00    +0.000 C 
ATOM     10  N   UNL     1       0.671   9.818  19.046  0.00  0.00    +0.000 N 
ATOM     11  C   UNL     1       1.758   9.098  18.541  0.00  0.00    +0.000 C 
ATOM     12  O   UNL     1       2.560   9.578  17.741  0.00  0.00    +0.000 OA
ATOM     13  C   UNL     1      -0.223   9.432  20.144  0.00  0.00    +0.000 C 
ATOM     14  C   UNL     1       0.019  10.293  21.370  0.00  0.00    +0.000 C 
ATOM     15  H   UNL     1      -0.315  15.722  22.564  0.00  0.00    +0.000 HD
ENDROOT
BRANCH  11  16
ATOM     16  C   UNL     1       2.007   7.699  18.980  0.00  0.00    +0.000 A 
ATOM     17  C   UNL     1       1.842   7.303  20.310  0.00  0.00    +0.000 A 
ATOM     18  C   UNL     1       2.205   6.022  20.720  0.00  0.00    +0.000 A 
ATOM     19  C   UNL     1       2.601   5.077  19.772  0.00  0.00    +0.000 A 
ATOM     20  C   UNL     1       2.656   5.428  18.419  0.00  0.00    +0.000 A 
ATOM     21  C   UNL     1       2.374   6.740  18.026  0.00  0.00    +0.000 A 
BRANCH  19  22
ATOM     22  C   UNL     1       2.912   3.747  20.193  0.00  0.00    +0.000 C 
ATOM     23  N   UNL     1       3.187   2.668  20.536  0.00  0.00    +0.000 NA
ENDBRANCH  19  22
ENDBRANCH  11  16
BRANCH   1  25
ATOM     24  C   UNL     1      -1.216  16.248  19.884  0.00  0.00    +0.000 C 
ATOM     25  O   UNL     1       0.012  15.784  20.447  0.00  0.00    +0.000 OA
ENDBRANCH   1  25
BRANCH   3  26
ATOM     26  C   UNL     1      -1.151  14.452  24.019  0.00  0.00    +0.000 C 
ATOM     27  C   UNL     1      -1.076  15.590  25.041  0.00  0.00    +0.000 C 
BRANCH  26  28
ATOM     28  C   UNL     1      -2.587  14.244  23.559  0.00  0.00    +0.000 A 
ATOM     29  C   UNL     1      -3.246  15.225  22.805  0.00  0.00    +0.000 A 
ATOM     30  C   UNL     1      -4.560  15.025  22.368  0.00  0.00    +0.000 A 
ATOM     31  C   UNL     1      -5.250  13.848  22.688  0.00  0.00    +0.000 A 
ATOM     32  C   UNL     1      -4.594  12.866  23.442  0.00  0.00    +0.000 A 
ATOM     33  C   UNL     1      -3.279  13.059  23.865  0.00  0.00    +0.000 A 
BRANCH  31  34
ATOM     34  C   UNL     1      -6.674  13.623  22.243  0.00  0.00    +0.000 C 
ATOM     35  F   UNL     1      -6.782  12.853  21.125  0.00  0.00    +0.000 F 
ATOM     36  F   UNL     1      -7.428  13.007  23.195  0.00  0.00    +0.000 F 
ATOM     37  F   UNL     1      -7.317  14.790  21.955  0.00  0.00    +0.000 F 
ENDBRANCH  31  34
ENDBRANCH  26  28
ENDBRANCH   3  26
TORSDOF 6
ENDMDL
