MODEL 1
REMARK VINA RESULT:      -8.0      0.000      0.000
REMARK  Name = 
REMARK  5 active torsions:
REMARK  status: ('A' for Active; 'I' for Inactive)
REMARK    1  A    between atoms: O_1  and  C_2
REMARK    2  A    between atoms: C_7  and  C_8
REMARK    3  A    between atoms: C_8  and  N_9
REMARK    4  A    between atoms: N_9  and  C_10
REMARK    5  A    between atoms: C_13  and  C_14
REMARK                            x       y       z     vdW  Elec       q    Type
REMARK                         _______ _______ _______ _____ _____    ______ ____
ROOT
ATOM      1  C   UNL     1       3.071   5.979  18.517  0.00  0.00    +0.000 A 
ATOM      2  C   UNL     1       2.758   7.232  17.983  0.00  0.00    +0.000 A 
ATOM      3  C   UNL     1       2.086   8.204  18.736  0.00  0.00    +0.000 A 
ATOM      4  C   UNL     1       1.649   7.950  20.044  0.00  0.00    +0.000 A 
ATOM      5  C   UNL     1       1.964   6.689  20.579  0.00  0.00    +0.000 A 
ATOM      6  C   UNL     1       2.658   5.725  19.827  0.00  0.00    +0.000 A 
ENDROOT
BRANCH   4   7
ATOM      7  C   UNL     1       0.857   8.959  20.793  0.00  0.00    +0.000 A 
ATOM      8  C   UNL     1       0.358  10.108  20.147  0.00  0.00    +0.000 A 
ATOM      9  C   UNL     1      -0.364  11.088  20.837  0.00  0.00    +0.000 A 
ATOM     10  C   UNL     1      -0.620  10.926  22.191  0.00  0.00    +0.000 A 
ATOM     11 CL   UNL     1      -1.502  12.129  23.047  0.00  0.00    +0.000 Cl
ATOM     12  C   UNL     1      -0.163   9.792  22.857  0.00  0.00    +0.000 A 
ATOM     13  C   UNL     1       0.573   8.820  22.164  0.00  0.00    +0.000 A 
ENDBRANCH   4   7
BRANCH   1  14
ATOM     14  N   UNL     1       3.618   5.017  17.671  0.00  0.00    +0.000 N 
ATOM     15  H   UNL     1       2.916   4.421  17.244  0.00  0.00    +0.000 HD
BRANCH  14  16
ATOM     16  C   UNL     1       4.657   5.351  16.700  0.00  0.00    +0.000 C 
BRANCH  16  22
ATOM     17  C   UNL     1       6.523   5.122  18.432  0.00  0.00    +0.000 A 
ATOM     18  C   UNL     1       7.675   5.609  19.052  0.00  0.00    +0.000 A 
ATOM     19  C   UNL     1       8.196   6.849  18.683  0.00  0.00    +0.000 A 
ATOM     20  C   UNL     1       7.562   7.604  17.701  0.00  0.00    +0.000 A 
ATOM     21  C   UNL     1       6.410   7.114  17.085  0.00  0.00    +0.000 A 
ATOM     22  C   UNL     1       5.875   5.861  17.437  0.00  0.00    +0.000 A 
BRANCH  17  23
ATOM     23  O   UNL     1       6.019   3.905  18.795  0.00  0.00    +0.000 OA
ATOM     24  H   UNL     1       6.259   3.734  19.721  0.00  0.00    +0.000 HD
ENDBRANCH  17  23
ENDBRANCH  16  22
ENDBRANCH  14  16
ENDBRANCH   1  14
TORSDOF 5
ENDMDL
MODEL 2
REMARK VINA RESULT:      -8.0      0.095      1.030
REMARK  Name = 
REMARK  5 active torsions:
REMARK  status: ('A' for Active; 'I' for Inactive)
REMARK    1  A    between atoms: O_1  and  C_2
REMARK    2  A    between atoms: C_7  and  C_8
REMARK    3  A    between atoms: C_8  and  N_9
REMARK    4  A    between atoms: N_9  and  C_10
REMARK    5  A    between atoms: C_13  and  C_14
REMARK                            x       y       z     vdW  Elec       q    Type
REMARK                         _______ _______ _______ _____ _____    ______ ____
ROOT
ATOM      1  C   UNL     1       3.117   5.920  18.473  0.00  0.00    +0.000 A 
ATOM      2  C   UNL     1       2.785   7.162  17.924  0.00  0.00    +0.000 A 
ATOM      3  C   UNL     1       2.131   8.146  18.677  0.00  0.00    +0.000 A 
ATOM      4  C   UNL     1       1.728   7.914  20.001  0.00  0.00    +0.000 A 
ATOM      5  C   UNL     1       2.061   6.665  20.550  0.00  0.00    +0.000 A 
ATOM      6  C   UNL     1       2.739   5.688  19.797  0.00  0.00    +0.000 A 
ENDROOT
BRANCH   4   7
ATOM      7  C   UNL     1       0.953   8.935  20.751  0.00  0.00    +0.000 A 
ATOM      8  C   UNL     1       0.666   8.760  22.121  0.00  0.00    +0.000 A 
ATOM      9  C   UNL     1      -0.088   9.692  22.842  0.00  0.00    +0.000 A 
ATOM     10  C   UNL     1      -0.555  10.834  22.208  0.00  0.00    +0.000 A 
ATOM     11 CL   UNL     1      -1.487  11.981  23.088  0.00  0.00    +0.000 Cl
ATOM     12  C   UNL     1      -0.271  11.053  20.864  0.00  0.00    +0.000 A 
ATOM     13  C   UNL     1       0.473  10.108  20.141  0.00  0.00    +0.000 A 
ENDBRANCH   4   7
BRANCH   1  14
ATOM     14  N   UNL     1       3.645   4.944  17.631  0.00  0.00    +0.000 N 
ATOM     15  H   UNL     1       2.930   4.367  17.197  0.00  0.00    +0.000 HD
BRANCH  14  16
ATOM     16  C   UNL     1       4.700   5.252  16.668  0.00  0.00    +0.000 C 
BRANCH  16  22
ATOM     17  C   UNL     1       6.555   5.088  18.418  0.00  0.00    +0.000 A 
ATOM     18  C   UNL     1       7.690   5.609  19.042  0.00  0.00    +0.000 A 
ATOM     19  C   UNL     1       8.185   6.857  18.663  0.00  0.00    +0.000 A 
ATOM     20  C   UNL     1       7.541   7.585  17.666  0.00  0.00    +0.000 A 
ATOM     21  C   UNL     1       6.407   7.060  17.046  0.00  0.00    +0.000 A 
ATOM     22  C   UNL     1       5.899   5.799  17.409  0.00  0.00    +0.000 A 
BRANCH  17  23
ATOM     23  O   UNL     1       6.078   3.863  18.792  0.00  0.00    +0.000 OA
ATOM     24  H   UNL     1       5.280   3.992  19.332  0.00  0.00    +0.000 HD
ENDBRANCH  17  23
ENDBRANCH  16  22
ENDBRANCH  14  16
ENDBRANCH   1  14
TORSDOF 5
ENDMDL
MODEL 3
REMARK VINA RESULT:      -7.8      0.253      1.464
REMARK  Name = 
REMARK  5 active torsions:
REMARK  status: ('A' for Active; 'I' for Inactive)
REMARK    1  A    between atoms: O_1  and  C_2
REMARK    2  A    between atoms: C_7  and  C_8
REMARK    3  A    between atoms: C_8  and  N_9
REMARK    4  A    between atoms: N_9  and  C_10
REMARK    5  A    between atoms: C_13  and  C_14
REMARK                            x       y       z     vdW  Elec       q    Type
REMARK                         _______ _______ _______ _____ _____    ______ ____
ROOT
ATOM      1  C   UNL     1       2.813   5.984  18.594  0.00  0.00    +0.000 A 
ATOM      2  C   UNL     1       2.319   5.792  19.888  0.00  0.00    +0.000 A 
ATOM      3  C   UNL     1       1.626   6.803  20.566  0.00  0.00    +0.000 A 
ATOM      4  C   UNL     1       1.438   8.074  20.002  0.00  0.00    +0.000 A 
ATOM      5  C   UNL     1       1.936   8.265  18.702  0.00  0.00    +0.000 A 
ATOM      6  C   UNL     1       2.612   7.239  18.017  0.00  0.00    +0.000 A 
ENDROOT
BRANCH   4   7
ATOM      7  C   UNL     1       0.783   9.161  20.773  0.00  0.00    +0.000 A 
ATOM      8  C   UNL     1       0.491   9.000  22.143  0.00  0.00    +0.000 A 
ATOM      9  C   UNL     1      -0.153   9.997  22.883  0.00  0.00    +0.000 A 
ATOM     10  C   UNL     1      -0.502  11.191  22.268  0.00  0.00    +0.000 A 
ATOM     11 CL   UNL     1      -1.299  12.419  23.171  0.00  0.00    +0.000 Cl
ATOM     12  C   UNL     1      -0.208  11.395  20.923  0.00  0.00    +0.000 A 
ATOM     13  C   UNL     1       0.425  10.386  20.182  0.00  0.00    +0.000 A 
ENDBRANCH   4   7
BRANCH   1  14
ATOM     14  N   UNL     1       3.606   4.985  18.034  0.00  0.00    +0.000 N 
ATOM     15  H   UNL     1       3.084   4.141  17.819  0.00  0.00    +0.000 HD
BRANCH  14  16
ATOM     16  C   UNL     1       4.565   5.274  16.971  0.00  0.00    +0.000 C 
BRANCH  16  22
ATOM     17  C   UNL     1       6.568   5.182  18.555  0.00  0.00    +0.000 A 
ATOM     18  C   UNL     1       7.750   5.730  19.057  0.00  0.00    +0.000 A 
ATOM     19  C   UNL     1       8.200   6.965  18.591  0.00  0.00    +0.000 A 
ATOM     20  C   UNL     1       7.466   7.653  17.630  0.00  0.00    +0.000 A 
ATOM     21  C   UNL     1       6.285   7.102  17.131  0.00  0.00    +0.000 A 
ATOM     22  C   UNL     1       5.820   5.853  17.582  0.00  0.00    +0.000 A 
BRANCH  17  23
ATOM     23  O   UNL     1       6.135   3.969  19.013  0.00  0.00    +0.000 OA
ATOM     24  H   UNL     1       5.736   4.094  19.890  0.00  0.00    +0.000 HD
ENDBRANCH  17  23
ENDBRANCH  16  22
ENDBRANCH  14  16
ENDBRANCH   1  14
TORSDOF 5
ENDMDL
MODEL 4
REMARK VINA RESULT:      -7.8      0.363      1.078
REMARK  Name = 
REMARK  5 active torsions:
REMARK  status: ('A' for Active; 'I' for Inactive)
REMARK    1  A    between atoms: O_1  and  C_2
REMARK    2  A    between atoms: C_7  and  C_8
REMARK    3  A    between atoms: C_8  and  N_9
REMARK    4  A    between atoms: N_9  and  C_10
REMARK    5  A    between atoms: C_13  and  C_14
REMARK                            x       y       z     vdW  Elec       q    Type
REMARK                         _______ _______ _______ _____ _____    ______ ____
ROOT
ATOM      1  C   UNL     1       2.807   6.044  18.611  0.00  0.00    +0.000 A 
ATOM      2  C   UNL     1       2.292   5.843  19.895  0.00  0.00    +0.000 A 
ATOM      3  C   UNL     1       1.595   6.852  20.572  0.00  0.00    +0.000 A 
ATOM      4  C   UNL     1       1.425   8.130  20.018  0.00  0.00    +0.000 A 
ATOM      5  C   UNL     1       1.945   8.330  18.728  0.00  0.00    +0.000 A 
ATOM      6  C   UNL     1       2.624   7.306  18.043  0.00  0.00    +0.000 A 
ENDROOT
BRANCH   4   7
ATOM      7  C   UNL     1       0.765   9.214  20.789  0.00  0.00    +0.000 A 
ATOM      8  C   UNL     1       0.748  10.538  20.303  0.00  0.00    +0.000 A 
ATOM      9  C   UNL     1       0.160  11.581  21.026  0.00  0.00    +0.000 A 
ATOM     10  C   UNL     1      -0.445  11.316  22.246  0.00  0.00    +0.000 A 
ATOM     11 CL   UNL     1      -1.166  12.596  23.141  0.00  0.00    +0.000 Cl
ATOM     12  C   UNL     1      -0.469  10.017  22.745  0.00  0.00    +0.000 A 
ATOM     13  C   UNL     1       0.136   8.977  22.024  0.00  0.00    +0.000 A 
ENDBRANCH   4   7
BRANCH   1  14
ATOM     14  N   UNL     1       3.602   5.045  18.054  0.00  0.00    +0.000 N 
ATOM     15  H   UNL     1       3.082   4.199  17.842  0.00  0.00    +0.000 HD
BRANCH  14  16
ATOM     16  C   UNL     1       4.558   5.332  16.987  0.00  0.00    +0.000 C 
BRANCH  16  22
ATOM     17  C   UNL     1       6.548   5.209  18.586  0.00  0.00    +0.000 A 
ATOM     18  C   UNL     1       7.742   5.730  19.086  0.00  0.00    +0.000 A 
ATOM     19  C   UNL     1       8.231   6.944  18.603  0.00  0.00    +0.000 A 
ATOM     20  C   UNL     1       7.524   7.637  17.625  0.00  0.00    +0.000 A 
ATOM     21  C   UNL     1       6.331   7.112  17.128  0.00  0.00    +0.000 A 
ATOM     22  C   UNL     1       5.826   5.885  17.597  0.00  0.00    +0.000 A 
BRANCH  17  23
ATOM     23  O   UNL     1       6.076   4.018  19.062  0.00  0.00    +0.000 OA
ATOM     24  H   UNL     1       5.599   4.182  19.892  0.00  0.00    +0.000 HD
ENDBRANCH  17  23
ENDBRANCH  16  22
ENDBRANCH  14  16
ENDBRANCH   1  14
TORSDOF 5
ENDMDL
MODEL 5
REMARK VINA RESULT:      -7.7      1.020      1.724
REMARK  Name = 
REMARK  5 active torsions:
REMARK  status: ('A' for Active; 'I' for Inactive)
REMARK    1  A    between atoms: O_1  and  C_2
REMARK    2  A    between atoms: C_7  and  C_8
REMARK    3  A    between atoms: C_8  and  N_9
REMARK    4  A    between atoms: N_9  and  C_10
REMARK    5  A    between atoms: C_13  and  C_14
REMARK                            x       y       z     vdW  Elec       q    Type
REMARK                         _______ _______ _______ _____ _____    ______ ____
ROOT
ATOM      1  C   UNL     1       3.189   5.848  18.133  0.00  0.00    +0.000 A 
ATOM      2  C   UNL     1       3.009   7.174  17.725  0.00  0.00    +0.000 A 
ATOM      3  C   UNL     1       2.367   8.112  18.543  0.00  0.00    +0.000 A 
ATOM      4  C   UNL     1       1.826   7.757  19.788  0.00  0.00    +0.000 A 
ATOM      5  C   UNL     1       2.008   6.425  20.196  0.00  0.00    +0.000 A 
ATOM      6  C   UNL     1       2.674   5.491  19.380  0.00  0.00    +0.000 A 
ENDROOT
BRANCH   4   7
ATOM      7  C   UNL     1       1.068   8.743  20.599  0.00  0.00    +0.000 A 
ATOM      8  C   UNL     1       1.105   8.700  22.008  0.00  0.00    +0.000 A 
ATOM      9  C   UNL     1       0.375   9.598  22.794  0.00  0.00    +0.000 A 
ATOM     10  C   UNL     1      -0.394  10.577  22.181  0.00  0.00    +0.000 A 
ATOM     11 CL   UNL     1      -1.298  11.682  23.142  0.00  0.00    +0.000 Cl
ATOM     12  C   UNL     1      -0.436  10.666  20.793  0.00  0.00    +0.000 A 
ATOM     13  C   UNL     1       0.286   9.753  20.010  0.00  0.00    +0.000 A 
ENDBRANCH   4   7
BRANCH   1  14
ATOM     14  N   UNL     1       3.715   4.940  17.217  0.00  0.00    +0.000 N 
ATOM     15  H   UNL     1       3.732   5.301  16.268  0.00  0.00    +0.000 HD
BRANCH  14  16
ATOM     16  C   UNL     1       4.937   4.190  17.496  0.00  0.00    +0.000 C 
BRANCH  16  22
ATOM     17  C   UNL     1       6.459   6.157  16.906  0.00  0.00    +0.000 A 
ATOM     18  C   UNL     1       7.460   7.068  17.249  0.00  0.00    +0.000 A 
ATOM     19  C   UNL     1       8.071   6.996  18.501  0.00  0.00    +0.000 A 
ATOM     20  C   UNL     1       7.687   6.009  19.404  0.00  0.00    +0.000 A 
ATOM     21  C   UNL     1       6.688   5.101  19.057  0.00  0.00    +0.000 A 
ATOM     22  C   UNL     1       6.053   5.163  17.803  0.00  0.00    +0.000 A 
BRANCH  17  23
ATOM     23  O   UNL     1       5.862   6.236  15.680  0.00  0.00    +0.000 OA
ATOM     24  H   UNL     1       5.758   7.173  15.445  0.00  0.00    +0.000 HD
ENDBRANCH  17  23
ENDBRANCH  16  22
ENDBRANCH  14  16
ENDBRANCH   1  14
TORSDOF 5
ENDMDL
MODEL 6
REMARK VINA RESULT:      -7.6      2.081      3.487
REMARK  Name = 
REMARK  5 active torsions:
REMARK  status: ('A' for Active; 'I' for Inactive)
REMARK    1  A    between atoms: O_1  and  C_2
REMARK    2  A    between atoms: C_7  and  C_8
REMARK    3  A    between atoms: C_8  and  N_9
REMARK    4  A    between atoms: N_9  and  C_10
REMARK    5  A    between atoms: C_13  and  C_14
REMARK                            x       y       z     vdW  Elec       q    Type
REMARK                         _______ _______ _______ _____ _____    ______ ____
ROOT
ATOM      1  C   UNL     1       3.293   6.813  18.321  0.00  0.00    +0.000 A 
ATOM      2  C   UNL     1       2.918   6.490  19.629  0.00  0.00    +0.000 A 
ATOM      3  C   UNL     1       2.029   7.290  20.357  0.00  0.00    +0.000 A 
ATOM      4  C   UNL     1       1.510   8.483  19.830  0.00  0.00    +0.000 A 
ATOM      5  C   UNL     1       1.888   8.806  18.516  0.00  0.00    +0.000 A 
ATOM      6  C   UNL     1       2.764   7.987  17.780  0.00  0.00    +0.000 A 
ENDROOT
BRANCH   4   7
ATOM      7  C   UNL     1       0.643   9.365  20.651  0.00  0.00    +0.000 A 
ATOM      8  C   UNL     1       0.454   9.115  22.025  0.00  0.00    +0.000 A 
ATOM      9  C   UNL     1      -0.383   9.914  22.813  0.00  0.00    +0.000 A 
ATOM     10  C   UNL     1      -1.034  10.997  22.241  0.00  0.00    +0.000 A 
ATOM     11 CL   UNL     1      -2.068  11.980  23.203  0.00  0.00    +0.000 Cl
ATOM     12  C   UNL     1      -0.852  11.289  20.893  0.00  0.00    +0.000 A 
ATOM     13  C   UNL     1      -0.025  10.476  20.104  0.00  0.00    +0.000 A 
ENDBRANCH   4   7
BRANCH   1  14
ATOM     14  N   UNL     1       4.281   6.048  17.707  0.00  0.00    +0.000 N 
ATOM     15  H   UNL     1       5.078   5.872  18.313  0.00  0.00    +0.000 HD
BRANCH  14  16
ATOM     16  C   UNL     1       3.956   4.849  16.938  0.00  0.00    +0.000 C 
BRANCH  16  22
ATOM     17  C   UNL     1       3.926   3.179  18.872  0.00  0.00    +0.000 A 
ATOM     18  C   UNL     1       3.237   2.307  19.718  0.00  0.00    +0.000 A 
ATOM     19  C   UNL     1       1.870   2.099  19.542  0.00  0.00    +0.000 A 
ATOM     20  C   UNL     1       1.193   2.756  18.519  0.00  0.00    +0.000 A 
ATOM     21  C   UNL     1       1.885   3.626  17.676  0.00  0.00    +0.000 A 
ATOM     22  C   UNL     1       3.264   3.855  17.842  0.00  0.00    +0.000 A 
BRANCH  17  23
ATOM     23  O   UNL     1       5.265   3.381  19.051  0.00  0.00    +0.000 OA
ATOM     24  H   UNL     1       5.515   4.213  18.616  0.00  0.00    +0.000 HD
ENDBRANCH  17  23
ENDBRANCH  16  22
ENDBRANCH  14  16
ENDBRANCH   1  14
TORSDOF 5
ENDMDL
MODEL 7
REMARK VINA RESULT:      -7.6      1.008      1.396
REMARK  Name = 
REMARK  5 active torsions:
REMARK  status: ('A' for Active; 'I' for Inactive)
REMARK    1  A    between atoms: O_1  and  C_2
REMARK    2  A    between atoms: C_7  and  C_8
REMARK    3  A    between atoms: C_8  and  N_9
REMARK    4  A    between atoms: N_9  and  C_10
REMARK    5  A    between atoms: C_13  and  C_14
REMARK                            x       y       z     vdW  Elec       q    Type
REMARK                         _______ _______ _______ _____ _____    ______ ____
ROOT
ATOM      1  C   UNL     1       2.892   6.470  18.353  0.00  0.00    +0.000 A 
ATOM      2  C   UNL     1       2.549   7.749  17.906  0.00  0.00    +0.000 A 
ATOM      3  C   UNL     1       1.882   8.662  18.733  0.00  0.00    +0.000 A 
ATOM      4  C   UNL     1       1.478   8.320  20.033  0.00  0.00    +0.000 A 
ATOM      5  C   UNL     1       1.824   7.033  20.480  0.00  0.00    +0.000 A 
ATOM      6  C   UNL     1       2.514   6.128  19.653  0.00  0.00    +0.000 A 
ENDROOT
BRANCH   4   7
ATOM      7  C   UNL     1       0.691   9.268  20.861  0.00  0.00    +0.000 A 
ATOM      8  C   UNL     1       0.205  10.473  20.314  0.00  0.00    +0.000 A 
ATOM      9  C   UNL     1      -0.513  11.396  21.082  0.00  0.00    +0.000 A 
ATOM     10  C   UNL     1      -0.779  11.120  22.415  0.00  0.00    +0.000 A 
ATOM     11 CL   UNL     1      -1.657  12.253  23.366  0.00  0.00    +0.000 Cl
ATOM     12  C   UNL     1      -0.337   9.929  22.983  0.00  0.00    +0.000 A 
ATOM     13  C   UNL     1       0.396   9.014  22.213  0.00  0.00    +0.000 A 
ENDBRANCH   4   7
BRANCH   1  14
ATOM     14  N   UNL     1       3.433   5.572  17.437  0.00  0.00    +0.000 N 
ATOM     15  H   UNL     1       3.634   5.998  16.537  0.00  0.00    +0.000 HD
BRANCH  14  16
ATOM     16  C   UNL     1       4.501   4.646  17.808  0.00  0.00    +0.000 C 
BRANCH  16  22
ATOM     17  C   UNL     1       6.254   6.363  17.092  0.00  0.00    +0.000 A 
ATOM     18  C   UNL     1       7.412   7.099  17.346  0.00  0.00    +0.000 A 
ATOM     19  C   UNL     1       8.115   6.907  18.535  0.00  0.00    +0.000 A 
ATOM     20  C   UNL     1       7.664   5.974  19.465  0.00  0.00    +0.000 A 
ATOM     21  C   UNL     1       6.507   5.240  19.206  0.00  0.00    +0.000 A 
ATOM     22  C   UNL     1       5.779   5.427  18.017  0.00  0.00    +0.000 A 
BRANCH  17  23
ATOM     23  O   UNL     1       5.568   6.559  15.926  0.00  0.00    +0.000 OA
ATOM     24  H   UNL     1       5.917   7.354  15.491  0.00  0.00    +0.000 HD
ENDBRANCH  17  23
ENDBRANCH  16  22
ENDBRANCH  14  16
ENDBRANCH   1  14
TORSDOF 5
ENDMDL
MODEL 8
REMARK VINA RESULT:      -7.6      4.335      6.933
REMARK  Name = 
REMARK  5 active torsions:
REMARK  status: ('A' for Active; 'I' for Inactive)
REMARK    1  A    between atoms: O_1  and  C_2
REMARK    2  A    between atoms: C_7  and  C_8
REMARK    3  A    between atoms: C_8  and  N_9
REMARK    4  A    between atoms: N_9  and  C_10
REMARK    5  A    between atoms: C_13  and  C_14
REMARK                            x       y       z     vdW  Elec       q    Type
REMARK                         _______ _______ _______ _____ _____    ______ ____
ROOT
ATOM      1  C   UNL     1       6.919   5.558  17.640  0.00  0.00    +0.000 A 
ATOM      2  C   UNL     1       7.825   5.807  18.676  0.00  0.00    +0.000 A 
ATOM      3  C   UNL     1       8.304   7.097  18.937  0.00  0.00    +0.000 A 
ATOM      4  C   UNL     1       7.942   8.194  18.140  0.00  0.00    +0.000 A 
ATOM      5  C   UNL     1       7.033   7.941  17.099  0.00  0.00    +0.000 A 
ATOM      6  C   UNL     1       6.536   6.647  16.855  0.00  0.00    +0.000 A 
ENDROOT
BRANCH   4   7
ATOM      7  C   UNL     1       8.534   9.535  18.374  0.00  0.00    +0.000 A 
ATOM      8  C   UNL     1       9.386   9.766  19.474  0.00  0.00    +0.000 A 
ATOM      9  C   UNL     1       9.931  11.028  19.733  0.00  0.00    +0.000 A 
ATOM     10  C   UNL     1       9.649  12.086  18.880  0.00  0.00    +0.000 A 
ATOM     11 CL   UNL     1      10.311  13.641  19.197  0.00  0.00    +0.000 Cl
ATOM     12  C   UNL     1       8.831  11.890  17.772  0.00  0.00    +0.000 A 
ATOM     13  C   UNL     1       8.275  10.626  17.525  0.00  0.00    +0.000 A 
ENDBRANCH   4   7
BRANCH   1  14
ATOM     14  N   UNL     1       6.589   4.236  17.354  0.00  0.00    +0.000 N 
ATOM     15  H   UNL     1       6.856   3.593  18.093  0.00  0.00    +0.000 HD
BRANCH  14  16
ATOM     16  C   UNL     1       5.281   3.872  16.815  0.00  0.00    +0.000 C 
BRANCH  16  22
ATOM     17  C   UNL     1       4.235   3.518  19.119  0.00  0.00    +0.000 A 
ATOM     18  C   UNL     1       3.268   3.828  20.079  0.00  0.00    +0.000 A 
ATOM     19  C   UNL     1       2.273   4.762  19.792  0.00  0.00    +0.000 A 
ATOM     20  C   UNL     1       2.240   5.380  18.545  0.00  0.00    +0.000 A 
ATOM     21  C   UNL     1       3.207   5.067  17.590  0.00  0.00    +0.000 A 
ATOM     22  C   UNL     1       4.225   4.134  17.864  0.00  0.00    +0.000 A 
BRANCH  17  23
ATOM     23  O   UNL     1       5.209   2.605  19.408  0.00  0.00    +0.000 OA
ATOM     24  H   UNL     1       4.836   1.931  20.001  0.00  0.00    +0.000 HD
ENDBRANCH  17  23
ENDBRANCH  16  22
ENDBRANCH  14  16
ENDBRANCH   1  14
TORSDOF 5
ENDMDL
MODEL 9
REMARK VINA RESULT:      -7.5      1.890      3.105
REMARK  Name = 
REMARK  5 active torsions:
REMARK  status: ('A' for Active; 'I' for Inactive)
REMARK    1  A    between atoms: O_1  and  C_2
REMARK    2  A    between atoms: C_7  and  C_8
REMARK    3  A    between atoms: C_8  and  N_9
REMARK    4  A    between atoms: N_9  and  C_10
REMARK    5  A    between atoms: C_13  and  C_14
REMARK                            x       y       z     vdW  Elec       q    Type
REMARK                         _______ _______ _______ _____ _____    ______ ____
ROOT
ATOM      1  C   UNL     1       2.528   7.535  18.519  0.00  0.00    +0.000 A 
ATOM      2  C   UNL     1       1.953   8.717  18.043  0.00  0.00    +0.000 A 
ATOM      3  C   UNL     1       1.186   9.546  18.871  0.00  0.00    +0.000 A 
ATOM      4  C   UNL     1       0.910   9.204  20.204  0.00  0.00    +0.000 A 
ATOM      5  C   UNL     1       1.487   8.015  20.680  0.00  0.00    +0.000 A 
ATOM      6  C   UNL     1       2.277   7.198  19.850  0.00  0.00    +0.000 A 
ENDROOT
BRANCH   4   7
ATOM      7  C   UNL     1       0.018  10.048  21.038  0.00  0.00    +0.000 A 
ATOM      8  C   UNL     1      -0.612  11.187  20.496  0.00  0.00    +0.000 A 
ATOM      9  C   UNL     1      -1.433  12.015  21.270  0.00  0.00    +0.000 A 
ATOM     10  C   UNL     1      -1.658  11.705  22.604  0.00  0.00    +0.000 A 
ATOM     11 CL   UNL     1      -2.662  12.721  23.562  0.00  0.00    +0.000 Cl
ATOM     12  C   UNL     1      -1.072  10.575  23.166  0.00  0.00    +0.000 A 
ATOM     13  C   UNL     1      -0.238   9.757  22.390  0.00  0.00    +0.000 A 
ENDBRANCH   4   7
BRANCH   1  14
ATOM     14  N   UNL     1       3.165   6.695  17.608  0.00  0.00    +0.000 N 
ATOM     15  H   UNL     1       3.396   7.161  16.736  0.00  0.00    +0.000 HD
BRANCH  14  16
ATOM     16  C   UNL     1       4.254   5.810  18.014  0.00  0.00    +0.000 C 
BRANCH  16  22
ATOM     17  C   UNL     1       4.443   3.396  18.831  0.00  0.00    +0.000 A 
ATOM     18  C   UNL     1       3.881   2.138  19.054  0.00  0.00    +0.000 A 
ATOM     19  C   UNL     1       2.565   1.883  18.668  0.00  0.00    +0.000 A 
ATOM     20  C   UNL     1       1.816   2.883  18.055  0.00  0.00    +0.000 A 
ATOM     21  C   UNL     1       2.382   4.139  17.835  0.00  0.00    +0.000 A 
ATOM     22  C   UNL     1       3.705   4.418  18.225  0.00  0.00    +0.000 A 
BRANCH  17  23
ATOM     23  O   UNL     1       5.732   3.640  19.215  0.00  0.00    +0.000 OA
ATOM     24  H   UNL     1       5.955   3.045  19.950  0.00  0.00    +0.000 HD
ENDBRANCH  17  23
ENDBRANCH  16  22
ENDBRANCH  14  16
ENDBRANCH   1  14
TORSDOF 5
ENDMDL
