MODEL 1
REMARK VINA RESULT:      -8.4      0.000      0.000
REMARK  Name = 
REMARK  3 active torsions:
REMARK  status: ('A' for Active; 'I' for Inactive)
REMARK    1  A    between atoms: N_3  and  S_4
REMARK    2  A    between atoms: S_4  and  C_7
REMARK    3  A    between atoms: N_20  and  C_21
REMARK                            x       y       z     vdW  Elec       q    Type
REMARK                         _______ _______ _______ _____ _____    ______ ____
ROOT
ATOM      1  N   UNL     1       1.748   7.514  21.317  0.00  0.00    +0.000 NA
ATOM      2  C   UNL     1       1.843   8.045  20.152  0.00  0.00    +0.000 C 
ATOM      3  N   UNL     1       1.380   9.332  19.918  0.00  0.00    +0.000 N 
ATOM      4  N   UNL     1       2.368   7.386  19.075  0.00  0.00    +0.000 N 
ATOM      5  C   UNL     1       2.966   7.981  17.871  0.00  0.00    +0.000 C 
ATOM      6  C   UNL     1       4.434   7.523  17.673  0.00  0.00    +0.000 C 
ATOM      7  N   UNL     1       4.532   6.053  17.707  0.00  0.00    +0.000 N 
ATOM      8  C   UNL     1       3.944   5.449  18.917  0.00  0.00    +0.000 C 
ATOM      9  C   UNL     1       2.485   5.908  19.102  0.00  0.00    +0.000 C 
ATOM     10  H   UNL     1       1.392   8.210  21.987  0.00  0.00    +0.000 HD
ATOM     11  H   UNL     1       1.602   9.814  19.060  0.00  0.00    +0.000 HD
ENDROOT
BRANCH   7  12
ATOM     12  C   UNL     1       5.012   5.323  16.637  0.00  0.00    +0.000 A 
ATOM     13  C   UNL     1       5.437   5.948  15.452  0.00  0.00    +0.000 A 
ATOM     14  C   UNL     1       5.905   5.224  14.347  0.00  0.00    +0.000 A 
ATOM     15  C   UNL     1       5.969   3.839  14.401  0.00  0.00    +0.000 A 
ATOM     16  C   UNL     1       5.577   3.187  15.562  0.00  0.00    +0.000 A 
ATOM     17  C   UNL     1       5.108   3.922  16.662  0.00  0.00    +0.000 A 
ENDBRANCH   7  12
BRANCH   3  18
ATOM     18  S   UNL     1       0.344  10.243  20.854  0.00  0.00    +0.000 S 
ATOM     19  O   UNL     1      -0.165   9.414  21.925  0.00  0.00    +0.000 OA
ATOM     20  O   UNL     1       1.035  11.487  21.119  0.00  0.00    +0.000 OA
BRANCH  18  21
ATOM     21  C   UNL     1      -1.009  10.597  19.748  0.00  0.00    +0.000 A 
ATOM     22  C   UNL     1      -1.889  11.639  20.045  0.00  0.00    +0.000 A 
ATOM     23  C   UNL     1      -2.882  11.988  19.125  0.00  0.00    +0.000 A 
ATOM     24  C   UNL     1      -2.999  11.315  17.896  0.00  0.00    +0.000 A 
ATOM     25  C   UNL     1      -3.980  11.677  16.956  0.00  0.00    +0.000 A 
ATOM     26  C   UNL     1      -4.078  11.013  15.732  0.00  0.00    +0.000 A 
ATOM     27  C   UNL     1      -3.196   9.980  15.433  0.00  0.00    +0.000 A 
ATOM     28  C   UNL     1      -2.216   9.607  16.356  0.00  0.00    +0.000 A 
ATOM     29  C   UNL     1      -2.102  10.265  17.594  0.00  0.00    +0.000 A 
ATOM     30  C   UNL     1      -1.109   9.914  18.528  0.00  0.00    +0.000 A 
ENDBRANCH  18  21
ENDBRANCH   3  18
TORSDOF 3
ENDMDL
MODEL 2
REMARK VINA RESULT:      -8.3      3.273      9.113
REMARK  Name = 
REMARK  3 active torsions:
REMARK  status: ('A' for Active; 'I' for Inactive)
REMARK    1  A    between atoms: N_3  and  S_4
REMARK    2  A    between atoms: S_4  and  C_7
REMARK    3  A    between atoms: N_20  and  C_21
REMARK                            x       y       z     vdW  Elec       q    Type
REMARK                         _______ _______ _______ _____ _____    ______ ____
ROOT
ATOM      1  N   UNL     1       2.185   5.655  20.363  0.00  0.00    +0.000 NA
ATOM      2  C   UNL     1       2.565   6.453  19.433  0.00  0.00    +0.000 C 
ATOM      3  N   UNL     1       3.377   6.005  18.401  0.00  0.00    +0.000 N 
ATOM      4  N   UNL     1       2.232   7.779  19.409  0.00  0.00    +0.000 N 
ATOM      5  C   UNL     1       2.175   8.663  18.235  0.00  0.00    +0.000 C 
ATOM      6  C   UNL     1       0.763   9.274  18.044  0.00  0.00    +0.000 C 
ATOM      7  N   UNL     1       0.303   9.923  19.285  0.00  0.00    +0.000 N 
ATOM      8  C   UNL     1       0.347   9.040  20.465  0.00  0.00    +0.000 C 
ATOM      9  C   UNL     1       1.755   8.441  20.646  0.00  0.00    +0.000 C 
ATOM     10  H   UNL     1       2.489   4.696  20.143  0.00  0.00    +0.000 HD
ATOM     11  H   UNL     1       3.539   6.577  17.585  0.00  0.00    +0.000 HD
ENDROOT
BRANCH   7  12
ATOM     12  C   UNL     1      -0.008  11.268  19.339  0.00  0.00    +0.000 A 
ATOM     13  C   UNL     1       0.966  12.257  19.122  0.00  0.00    +0.000 A 
ATOM     14  C   UNL     1       0.677  13.626  19.196  0.00  0.00    +0.000 A 
ATOM     15  C   UNL     1      -0.614  14.048  19.485  0.00  0.00    +0.000 A 
ATOM     16  C   UNL     1      -1.608  13.100  19.685  0.00  0.00    +0.000 A 
ATOM     17  C   UNL     1      -1.306  11.731  19.610  0.00  0.00    +0.000 A 
ENDBRANCH   7  12
BRANCH   3  18
ATOM     18  S   UNL     1       4.285   4.610  18.332  0.00  0.00    +0.000 S 
ATOM     19  O   UNL     1       5.208   4.600  19.447  0.00  0.00    +0.000 OA
ATOM     20  O   UNL     1       3.345   3.530  18.116  0.00  0.00    +0.000 OA
BRANCH  18  21
ATOM     21  C   UNL     1       5.237   4.809  16.837  0.00  0.00    +0.000 A 
ATOM     22  C   UNL     1       6.436   5.522  16.873  0.00  0.00    +0.000 A 
ATOM     23  C   UNL     1       7.237   5.584  15.728  0.00  0.00    +0.000 A 
ATOM     24  C   UNL     1       6.860   4.926  14.544  0.00  0.00    +0.000 A 
ATOM     25  C   UNL     1       7.671   4.964  13.397  0.00  0.00    +0.000 A 
ATOM     26  C   UNL     1       7.295   4.295  12.231  0.00  0.00    +0.000 A 
ATOM     27  C   UNL     1       6.103   3.579  12.198  0.00  0.00    +0.000 A 
ATOM     28  C   UNL     1       5.284   3.531  13.329  0.00  0.00    +0.000 A 
ATOM     29  C   UNL     1       5.647   4.199  14.513  0.00  0.00    +0.000 A 
ATOM     30  C   UNL     1       4.842   4.146  15.667  0.00  0.00    +0.000 A 
ENDBRANCH  18  21
ENDBRANCH   3  18
TORSDOF 3
ENDMDL
MODEL 3
REMARK VINA RESULT:      -8.2      0.737      1.642
REMARK  Name = 
REMARK  3 active torsions:
REMARK  status: ('A' for Active; 'I' for Inactive)
REMARK    1  A    between atoms: N_3  and  S_4
REMARK    2  A    between atoms: S_4  and  C_7
REMARK    3  A    between atoms: N_20  and  C_21
REMARK                            x       y       z     vdW  Elec       q    Type
REMARK                         _______ _______ _______ _____ _____    ______ ____
ROOT
ATOM      1  N   UNL     1       1.658   7.901  21.323  0.00  0.00    +0.000 NA
ATOM      2  C   UNL     1       1.689   8.304  20.104  0.00  0.00    +0.000 C 
ATOM      3  N   UNL     1       1.132   9.523  19.744  0.00  0.00    +0.000 N 
ATOM      4  N   UNL     1       2.232   7.564  19.091  0.00  0.00    +0.000 N 
ATOM      5  C   UNL     1       2.760   8.059  17.810  0.00  0.00    +0.000 C 
ATOM      6  C   UNL     1       4.251   7.679  17.618  0.00  0.00    +0.000 C 
ATOM      7  N   UNL     1       4.451   6.232  17.811  0.00  0.00    +0.000 N 
ATOM      8  C   UNL     1       3.935   5.730  19.098  0.00  0.00    +0.000 C 
ATOM      9  C   UNL     1       2.452   6.110  19.276  0.00  0.00    +0.000 C 
ATOM     10  H   UNL     1       1.270   8.643  21.923  0.00  0.00    +0.000 HD
ATOM     11  H   UNL     1       1.300   9.919  18.832  0.00  0.00    +0.000 HD
ENDROOT
BRANCH   7  12
ATOM     12  C   UNL     1       4.955   5.421  16.813  0.00  0.00    +0.000 A 
ATOM     13  C   UNL     1       5.389   5.948  15.585  0.00  0.00    +0.000 A 
ATOM     14  C   UNL     1       5.881   5.139  14.552  0.00  0.00    +0.000 A 
ATOM     15  C   UNL     1       5.962   3.765  14.725  0.00  0.00    +0.000 A 
ATOM     16  C   UNL     1       5.562   3.209  15.933  0.00  0.00    +0.000 A 
ATOM     17  C   UNL     1       5.069   4.028  16.960  0.00  0.00    +0.000 A 
ENDBRANCH   7  12
BRANCH   3  18
ATOM     18  S   UNL     1       0.058  10.462  20.606  0.00  0.00    +0.000 S 
ATOM     19  O   UNL     1      -0.537   9.652  21.647  0.00  0.00    +0.000 OA
ATOM     20  O   UNL     1       0.757  11.693  20.909  0.00  0.00    +0.000 OA
BRANCH  18  21
ATOM     21  C   UNL     1      -1.212  10.837  19.412  0.00  0.00    +0.000 A 
ATOM     22  C   UNL     1      -1.122  10.315  18.121  0.00  0.00    +0.000 A 
ATOM     23  C   UNL     1      -2.172  10.517  17.219  0.00  0.00    +0.000 A 
ATOM     24  C   UNL     1      -3.324  11.227  17.598  0.00  0.00    +0.000 A 
ATOM     25  C   UNL     1      -4.394  11.413  16.704  0.00  0.00    +0.000 A 
ATOM     26  C   UNL     1      -5.540  12.106  17.095  0.00  0.00    +0.000 A 
ATOM     27  C   UNL     1      -5.633  12.621  18.384  0.00  0.00    +0.000 A 
ATOM     28  C   UNL     1      -4.579  12.446  19.284  0.00  0.00    +0.000 A 
ATOM     29  C   UNL     1      -3.416  11.750  18.908  0.00  0.00    +0.000 A 
ATOM     30  C   UNL     1      -2.352  11.548  19.809  0.00  0.00    +0.000 A 
ENDBRANCH  18  21
ENDBRANCH   3  18
TORSDOF 3
ENDMDL
MODEL 4
REMARK VINA RESULT:      -7.9      2.294      3.328
REMARK  Name = 
REMARK  3 active torsions:
REMARK  status: ('A' for Active; 'I' for Inactive)
REMARK    1  A    between atoms: N_3  and  S_4
REMARK    2  A    between atoms: S_4  and  C_7
REMARK    3  A    between atoms: N_20  and  C_21
REMARK                            x       y       z     vdW  Elec       q    Type
REMARK                         _______ _______ _______ _____ _____    ______ ____
ROOT
ATOM      1  N   UNL     1       0.857  10.954  21.334  0.00  0.00    +0.000 NA
ATOM      2  C   UNL     1       0.686  10.739  20.080  0.00  0.00    +0.000 C 
ATOM      3  N   UNL     1       0.257  11.755  19.237  0.00  0.00    +0.000 N 
ATOM      4  N   UNL     1       0.878   9.516  19.502  0.00  0.00    +0.000 N 
ATOM      5  C   UNL     1       1.186   9.234  18.091  0.00  0.00    +0.000 C 
ATOM      6  C   UNL     1       2.525   8.468  17.937  0.00  0.00    +0.000 C 
ATOM      7  N   UNL     1       2.539   7.265  18.787  0.00  0.00    +0.000 N 
ATOM      8  C   UNL     1       2.243   7.540  20.206  0.00  0.00    +0.000 C 
ATOM      9  C   UNL     1       0.909   8.298  20.347  0.00  0.00    +0.000 C 
ATOM     10  H   UNL     1       0.726  11.955  21.535  0.00  0.00    +0.000 HD
ATOM     11  H   UNL     1       0.282  11.642  18.235  0.00  0.00    +0.000 HD
ENDROOT
BRANCH   7  12
ATOM     12  C   UNL     1       2.686   5.995  18.263  0.00  0.00    +0.000 A 
ATOM     13  C   UNL     1       3.866   5.602  17.607  0.00  0.00    +0.000 A 
ATOM     14  C   UNL     1       4.026   4.327  17.048  0.00  0.00    +0.000 A 
ATOM     15  C   UNL     1       3.001   3.397  17.139  0.00  0.00    +0.000 A 
ATOM     16  C   UNL     1       1.828   3.741  17.798  0.00  0.00    +0.000 A 
ATOM     17  C   UNL     1       1.678   5.021  18.353  0.00  0.00    +0.000 A 
ENDBRANCH   7  12
BRANCH   3  18
ATOM     18  S   UNL     1      -0.450  13.208  19.648  0.00  0.00    +0.000 S 
ATOM     19  O   UNL     1       0.090  13.646  20.917  0.00  0.00    +0.000 OA
ATOM     20  O   UNL     1      -0.375  14.038  18.464  0.00  0.00    +0.000 OA
BRANCH  18  21
ATOM     21  C   UNL     1      -2.162  12.777  19.903  0.00  0.00    +0.000 A 
ATOM     22  C   UNL     1      -2.818  13.211  21.055  0.00  0.00    +0.000 A 
ATOM     23  C   UNL     1      -4.188  12.969  21.203  0.00  0.00    +0.000 A 
ATOM     24  C   UNL     1      -4.918  12.307  20.200  0.00  0.00    +0.000 A 
ATOM     25  C   UNL     1      -6.299  12.081  20.331  0.00  0.00    +0.000 A 
ATOM     26  C   UNL     1      -7.018  11.436  19.323  0.00  0.00    +0.000 A 
ATOM     27  C   UNL     1      -6.365  11.010  18.171  0.00  0.00    +0.000 A 
ATOM     28  C   UNL     1      -4.992  11.226  18.025  0.00  0.00    +0.000 A 
ATOM     29  C   UNL     1      -4.252  11.874  19.031  0.00  0.00    +0.000 A 
ATOM     30  C   UNL     1      -2.871  12.115  18.891  0.00  0.00    +0.000 A 
ENDBRANCH  18  21
ENDBRANCH   3  18
TORSDOF 3
ENDMDL
MODEL 5
REMARK VINA RESULT:      -7.9      3.661      9.188
REMARK  Name = 
REMARK  3 active torsions:
REMARK  status: ('A' for Active; 'I' for Inactive)
REMARK    1  A    between atoms: N_3  and  S_4
REMARK    2  A    between atoms: S_4  and  C_7
REMARK    3  A    between atoms: N_20  and  C_21
REMARK                            x       y       z     vdW  Elec       q    Type
REMARK                         _______ _______ _______ _____ _____    ______ ____
ROOT
ATOM      1  N   UNL     1       1.849   5.219  20.095  0.00  0.00    +0.000 NA
ATOM      2  C   UNL     1       2.384   6.124  19.359  0.00  0.00    +0.000 C 
ATOM      3  N   UNL     1       3.206   5.780  18.295  0.00  0.00    +0.000 N 
ATOM      4  N   UNL     1       2.211   7.461  19.582  0.00  0.00    +0.000 N 
ATOM      5  C   UNL     1       2.339   8.552  18.604  0.00  0.00    +0.000 C 
ATOM      6  C   UNL     1       1.024   9.365  18.475  0.00  0.00    +0.000 C 
ATOM      7  N   UNL     1       0.559   9.820  19.797  0.00  0.00    +0.000 N 
ATOM      8  C   UNL     1       0.418   8.730  20.781  0.00  0.00    +0.000 C 
ATOM      9  C   UNL     1       1.731   7.932  20.903  0.00  0.00    +0.000 C 
ATOM     10  H   UNL     1       2.054   4.288  19.704  0.00  0.00    +0.000 HD
ATOM     11  H   UNL     1       3.490   6.470  17.616  0.00  0.00    +0.000 HD
ENDROOT
BRANCH   7  12
ATOM     12  C   UNL     1       0.406  11.158  20.102  0.00  0.00    +0.000 A 
ATOM     13  C   UNL     1      -0.180  11.574  21.310  0.00  0.00    +0.000 A 
ATOM     14  C   UNL     1      -0.366  12.926  21.628  0.00  0.00    +0.000 A 
ATOM     15  C   UNL     1       0.041  13.910  20.739  0.00  0.00    +0.000 A 
ATOM     16  C   UNL     1       0.642  13.539  19.544  0.00  0.00    +0.000 A 
ATOM     17  C   UNL     1       0.823  12.182  19.235  0.00  0.00    +0.000 A 
ENDBRANCH   7  12
BRANCH   3  18
ATOM     18  S   UNL     1       3.948   4.318  17.994  0.00  0.00    +0.000 S 
ATOM     19  O   UNL     1       4.791   3.983  19.120  0.00  0.00    +0.000 OA
ATOM     20  O   UNL     1       2.902   3.426  17.536  0.00  0.00    +0.000 OA
BRANCH  18  21
ATOM     21  C   UNL     1       5.008   4.671  16.604  0.00  0.00    +0.000 A 
ATOM     22  C   UNL     1       6.080   5.550  16.760  0.00  0.00    +0.000 A 
ATOM     23  C   UNL     1       6.976   5.741  15.703  0.00  0.00    +0.000 A 
ATOM     24  C   UNL     1       6.821   5.050  14.489  0.00  0.00    +0.000 A 
ATOM     25  C   UNL     1       7.731   5.219  13.431  0.00  0.00    +0.000 A 
ATOM     26  C   UNL     1       7.578   4.516  12.235  0.00  0.00    +0.000 A 
ATOM     27  C   UNL     1       6.513   3.634  12.082  0.00  0.00    +0.000 A 
ATOM     28  C   UNL     1       5.598   3.455  13.124  0.00  0.00    +0.000 A 
ATOM     29  C   UNL     1       5.737   4.155  14.336  0.00  0.00    +0.000 A 
ATOM     30  C   UNL     1       4.835   3.972  15.402  0.00  0.00    +0.000 A 
ENDBRANCH  18  21
ENDBRANCH   3  18
TORSDOF 3
ENDMDL
MODEL 6
REMARK VINA RESULT:      -7.6      2.215      2.435
REMARK  Name = 
REMARK  3 active torsions:
REMARK  status: ('A' for Active; 'I' for Inactive)
REMARK    1  A    between atoms: N_3  and  S_4
REMARK    2  A    between atoms: S_4  and  C_7
REMARK    3  A    between atoms: N_20  and  C_21
REMARK                            x       y       z     vdW  Elec       q    Type
REMARK                         _______ _______ _______ _____ _____    ______ ____
ROOT
ATOM      1  N   UNL     1       0.995   8.843  22.025  0.00  0.00    +0.000 NA
ATOM      2  C   UNL     1       1.366   8.765  20.798  0.00  0.00    +0.000 C 
ATOM      3  N   UNL     1       1.511   9.909  20.026  0.00  0.00    +0.000 N 
ATOM      4  N   UNL     1       1.610   7.576  20.169  0.00  0.00    +0.000 N 
ATOM      5  C   UNL     1       2.464   7.348  18.994  0.00  0.00    +0.000 C 
ATOM      6  C   UNL     1       3.602   6.339  19.298  0.00  0.00    +0.000 C 
ATOM      7  N   UNL     1       3.059   5.097  19.873  0.00  0.00    +0.000 N 
ATOM      8  C   UNL     1       2.210   5.316  21.059  0.00  0.00    +0.000 C 
ATOM      9  C   UNL     1       1.081   6.316  20.745  0.00  0.00    +0.000 C 
ATOM     10  H   UNL     1       0.940   9.832  22.308  0.00  0.00    +0.000 HD
ATOM     11  H   UNL     1       1.960   9.871  19.123  0.00  0.00    +0.000 HD
ENDROOT
BRANCH   7  12
ATOM     12  C   UNL     1       3.231   3.868  19.266  0.00  0.00    +0.000 A 
ATOM     13  C   UNL     1       2.502   3.505  18.121  0.00  0.00    +0.000 A 
ATOM     14  C   UNL     1       2.645   2.255  17.503  0.00  0.00    +0.000 A 
ATOM     15  C   UNL     1       3.539   1.327  18.016  0.00  0.00    +0.000 A 
ATOM     16  C   UNL     1       4.293   1.657  19.134  0.00  0.00    +0.000 A 
ATOM     17  C   UNL     1       4.140   2.911  19.745  0.00  0.00    +0.000 A 
ENDBRANCH   7  12
BRANCH   3  18
ATOM     18  S   UNL     1       0.921  11.439  20.325  0.00  0.00    +0.000 S 
ATOM     19  O   UNL     1       0.749  11.600  21.753  0.00  0.00    +0.000 OA
ATOM     20  O   UNL     1       1.746  12.344  19.553  0.00  0.00    +0.000 OA
BRANCH  18  21
ATOM     21  C   UNL     1      -0.699  11.410  19.581  0.00  0.00    +0.000 A 
ATOM     22  C   UNL     1      -1.739  12.136  20.163  0.00  0.00    +0.000 A 
ATOM     23  C   UNL     1      -2.979  12.204  19.519  0.00  0.00    +0.000 A 
ATOM     24  C   UNL     1      -3.190  11.563  18.286  0.00  0.00    +0.000 A 
ATOM     25  C   UNL     1      -4.427  11.647  17.622  0.00  0.00    +0.000 A 
ATOM     26  C   UNL     1      -4.622  11.020  16.390  0.00  0.00    +0.000 A 
ATOM     27  C   UNL     1      -3.583  10.302  15.807  0.00  0.00    +0.000 A 
ATOM     28  C   UNL     1      -2.348  10.208  16.454  0.00  0.00    +0.000 A 
ATOM     29  C   UNL     1      -2.133  10.833  17.695  0.00  0.00    +0.000 A 
ATOM     30  C   UNL     1      -0.889  10.764  18.352  0.00  0.00    +0.000 A 
ENDBRANCH  18  21
ENDBRANCH   3  18
TORSDOF 3
ENDMDL
MODEL 7
REMARK VINA RESULT:      -7.6      2.262      3.620
REMARK  Name = 
REMARK  3 active torsions:
REMARK  status: ('A' for Active; 'I' for Inactive)
REMARK    1  A    between atoms: N_3  and  S_4
REMARK    2  A    between atoms: S_4  and  C_7
REMARK    3  A    between atoms: N_20  and  C_21
REMARK                            x       y       z     vdW  Elec       q    Type
REMARK                         _______ _______ _______ _____ _____    ______ ____
ROOT
ATOM      1  N   UNL     1       0.790  10.754  21.340  0.00  0.00    +0.000 NA
ATOM      2  C   UNL     1       0.672  10.571  20.075  0.00  0.00    +0.000 C 
ATOM      3  N   UNL     1       0.251  11.600  19.244  0.00  0.00    +0.000 N 
ATOM      4  N   UNL     1       0.915   9.369  19.472  0.00  0.00    +0.000 N 
ATOM      5  C   UNL     1       1.283   9.134  18.067  0.00  0.00    +0.000 C 
ATOM      6  C   UNL     1       2.644   8.402  17.945  0.00  0.00    +0.000 C 
ATOM      7  N   UNL     1       2.654   7.176  18.762  0.00  0.00    +0.000 N 
ATOM      8  C   UNL     1       2.297   7.405  20.175  0.00  0.00    +0.000 C 
ATOM      9  C   UNL     1       0.941   8.129  20.285  0.00  0.00    +0.000 C 
ATOM     10  H   UNL     1       0.628  11.746  21.563  0.00  0.00    +0.000 HD
ATOM     11  H   UNL     1       0.318  11.516  18.241  0.00  0.00    +0.000 HD
ENDROOT
BRANCH   7  12
ATOM     12  C   UNL     1       2.851   5.926  18.210  0.00  0.00    +0.000 A 
ATOM     13  C   UNL     1       4.031   5.604  17.519  0.00  0.00    +0.000 A 
ATOM     14  C   UNL     1       4.240   4.349  16.931  0.00  0.00    +0.000 A 
ATOM     15  C   UNL     1       3.265   3.367  17.028  0.00  0.00    +0.000 A 
ATOM     16  C   UNL     1       2.094   3.640  17.721  0.00  0.00    +0.000 A 
ATOM     17  C   UNL     1       1.894   4.901  18.304  0.00  0.00    +0.000 A 
ENDBRANCH   7  12
BRANCH   3  18
ATOM     18  S   UNL     1      -0.504  13.025  19.666  0.00  0.00    +0.000 S 
ATOM     19  O   UNL     1      -0.261  13.283  21.069  0.00  0.00    +0.000 OA
ATOM     20  O   UNL     1      -0.146  13.986  18.644  0.00  0.00    +0.000 OA
BRANCH  18  21
ATOM     21  C   UNL     1      -2.236  12.646  19.474  0.00  0.00    +0.000 A 
ATOM     22  C   UNL     1      -2.661  11.897  18.375  0.00  0.00    +0.000 A 
ATOM     23  C   UNL     1      -4.000  11.506  18.282  0.00  0.00    +0.000 A 
ATOM     24  C   UNL     1      -4.924  11.845  19.286  0.00  0.00    +0.000 A 
ATOM     25  C   UNL     1      -6.267  11.435  19.211  0.00  0.00    +0.000 A 
ATOM     26  C   UNL     1      -7.174  11.763  20.220  0.00  0.00    +0.000 A 
ATOM     27  C   UNL     1      -6.749  12.504  21.318  0.00  0.00    +0.000 A 
ATOM     28  C   UNL     1      -5.418  12.921  21.408  0.00  0.00    +0.000 A 
ATOM     29  C   UNL     1      -4.490  12.599  20.400  0.00  0.00    +0.000 A 
ATOM     30  C   UNL     1      -3.142  12.994  20.485  0.00  0.00    +0.000 A 
ENDBRANCH  18  21
ENDBRANCH   3  18
TORSDOF 3
ENDMDL
MODEL 8
REMARK VINA RESULT:      -7.5      2.724      3.793
REMARK  Name = 
REMARK  3 active torsions:
REMARK  status: ('A' for Active; 'I' for Inactive)
REMARK    1  A    between atoms: N_3  and  S_4
REMARK    2  A    between atoms: S_4  and  C_7
REMARK    3  A    between atoms: N_20  and  C_21
REMARK                            x       y       z     vdW  Elec       q    Type
REMARK                         _______ _______ _______ _____ _____    ______ ____
ROOT
ATOM      1  N   UNL     1       1.121  10.457  21.993  0.00  0.00    +0.000 NA
ATOM      2  C   UNL     1       1.035  10.318  20.720  0.00  0.00    +0.000 C 
ATOM      3  N   UNL     1       0.888  11.422  19.893  0.00  0.00    +0.000 N 
ATOM      4  N   UNL     1       1.050   9.098  20.103  0.00  0.00    +0.000 N 
ATOM      5  C   UNL     1       1.434   8.806  18.714  0.00  0.00    +0.000 C 
ATOM      6  C   UNL     1       2.614   7.802  18.643  0.00  0.00    +0.000 C 
ATOM      7  N   UNL     1       2.320   6.594  19.432  0.00  0.00    +0.000 N 
ATOM      8  C   UNL     1       1.944   6.877  20.830  0.00  0.00    +0.000 C 
ATOM      9  C   UNL     1       0.769   7.872  20.888  0.00  0.00    +0.000 C 
ATOM     10  H   UNL     1       1.161  11.458  22.230  0.00  0.00    +0.000 HD
ATOM     11  H   UNL     1       0.988  11.337  18.892  0.00  0.00    +0.000 HD
ENDROOT
BRANCH   7  12
ATOM     12  C   UNL     1       2.276   5.336  18.862  0.00  0.00    +0.000 A 
ATOM     13  C   UNL     1       1.408   4.341  19.343  0.00  0.00    +0.000 A 
ATOM     14  C   UNL     1       1.365   3.052  18.794  0.00  0.00    +0.000 A 
ATOM     15  C   UNL     1       2.194   2.723  17.731  0.00  0.00    +0.000 A 
ATOM     16  C   UNL     1       3.051   3.686  17.215  0.00  0.00    +0.000 A 
ATOM     17  C   UNL     1       3.086   4.973  17.774  0.00  0.00    +0.000 A 
ENDBRANCH   7  12
BRANCH   3  18
ATOM     18  S   UNL     1       0.429  12.970  20.308  0.00  0.00    +0.000 S 
ATOM     19  O   UNL     1       1.168  13.373  21.485  0.00  0.00    +0.000 OA
ATOM     20  O   UNL     1       0.472  13.742  19.084  0.00  0.00    +0.000 OA
BRANCH  18  21
ATOM     21  C   UNL     1      -1.282  12.783  20.774  0.00  0.00    +0.000 A 
ATOM     22  C   UNL     1      -1.668  13.031  22.092  0.00  0.00    +0.000 A 
ATOM     23  C   UNL     1      -3.025  12.993  22.433  0.00  0.00    +0.000 A 
ATOM     24  C   UNL     1      -4.007  12.723  21.464  0.00  0.00    +0.000 A 
ATOM     25  C   UNL     1      -5.373  12.707  21.794  0.00  0.00    +0.000 A 
ATOM     26  C   UNL     1      -6.342  12.453  20.821  0.00  0.00    +0.000 A 
ATOM     27  C   UNL     1      -5.956  12.213  19.506  0.00  0.00    +0.000 A 
ATOM     28  C   UNL     1      -4.602  12.224  19.161  0.00  0.00    +0.000 A 
ATOM     29  C   UNL     1      -3.612  12.479  20.128  0.00  0.00    +0.000 A 
ATOM     30  C   UNL     1      -2.245  12.512  19.793  0.00  0.00    +0.000 A 
ENDBRANCH  18  21
ENDBRANCH   3  18
TORSDOF 3
ENDMDL
MODEL 9
REMARK VINA RESULT:      -7.5      2.982      3.787
REMARK  Name = 
REMARK  3 active torsions:
REMARK  status: ('A' for Active; 'I' for Inactive)
REMARK    1  A    between atoms: N_3  and  S_4
REMARK    2  A    between atoms: S_4  and  C_7
REMARK    3  A    between atoms: N_20  and  C_21
REMARK                            x       y       z     vdW  Elec       q    Type
REMARK                         _______ _______ _______ _____ _____    ______ ____
ROOT
ATOM      1  N   UNL     1       1.577   7.960  21.170  0.00  0.00    +0.000 NA
ATOM      2  C   UNL     1       1.705   8.407  19.973  0.00  0.00    +0.000 C 
ATOM      3  N   UNL     1       1.253   9.674  19.635  0.00  0.00    +0.000 N 
ATOM      4  N   UNL     1       2.254   7.670  18.960  0.00  0.00    +0.000 N 
ATOM      5  C   UNL     1       2.887   8.176  17.733  0.00  0.00    +0.000 C 
ATOM      6  C   UNL     1       4.358   7.701  17.606  0.00  0.00    +0.000 C 
ATOM      7  N   UNL     1       4.448   6.238  17.748  0.00  0.00    +0.000 N 
ATOM      8  C   UNL     1       3.826   5.724  18.983  0.00  0.00    +0.000 C 
ATOM      9  C   UNL     1       2.365   6.198  19.096  0.00  0.00    +0.000 C 
ATOM     10  H   UNL     1       1.206   8.704  21.779  0.00  0.00    +0.000 HD
ATOM     11  H   UNL     1       1.500  10.093  18.751  0.00  0.00    +0.000 HD
ENDROOT
BRANCH   7  12
ATOM     12  C   UNL     1       4.952   5.432  16.746  0.00  0.00    +0.000 A 
ATOM     13  C   UNL     1       5.078   4.042  16.914  0.00  0.00    +0.000 A 
ATOM     14  C   UNL     1       5.609   3.210  15.919  0.00  0.00    +0.000 A 
ATOM     15  C   UNL     1       6.025   3.752  14.711  0.00  0.00    +0.000 A 
ATOM     16  C   UNL     1       5.898   5.118  14.501  0.00  0.00    +0.000 A 
ATOM     17  C   UNL     1       5.367   5.942  15.505  0.00  0.00    +0.000 A 
ENDBRANCH   7  12
BRANCH   3  18
ATOM     18  S   UNL     1       0.197  10.652  20.475  0.00  0.00    +0.000 S 
ATOM     19  O   UNL     1      -1.157  10.288  20.119  0.00  0.00    +0.000 OA
ATOM     20  O   UNL     1       0.649  10.641  21.851  0.00  0.00    +0.000 OA
BRANCH  18  21
ATOM     21  C   UNL     1       0.519  12.275  19.811  0.00  0.00    +0.000 A 
ATOM     22  C   UNL     1      -0.394  13.306  20.036  0.00  0.00    +0.000 A 
ATOM     23  C   UNL     1      -0.089  14.604  19.611  0.00  0.00    +0.000 A 
ATOM     24  C   UNL     1       1.130  14.888  18.972  0.00  0.00    +0.000 A 
ATOM     25  C   UNL     1       1.454  16.194  18.564  0.00  0.00    +0.000 A 
ATOM     26  C   UNL     1       2.673  16.469  17.944  0.00  0.00    +0.000 A 
ATOM     27  C   UNL     1       3.586  15.443  17.726  0.00  0.00    +0.000 A 
ATOM     28  C   UNL     1       3.280  14.139  18.125  0.00  0.00    +0.000 A 
ATOM     29  C   UNL     1       2.056  13.843  18.751  0.00  0.00    +0.000 A 
ATOM     30  C   UNL     1       1.740  12.538  19.176  0.00  0.00    +0.000 A 
ENDBRANCH  18  21
ENDBRANCH   3  18
TORSDOF 3
ENDMDL
