MODEL 1
REMARK VINA RESULT:      -9.2      0.000      0.000
REMARK  Name = 
REMARK  7 active torsions:
REMARK  status: ('A' for Active; 'I' for Inactive)
REMARK    1  A    between atoms: C_1  and  C_2
REMARK    2  A    between atoms: C_2  and  C_4
REMARK    3  A    between atoms: N_6  and  C_7
REMARK    4  A    between atoms: C_7  and  C_8
REMARK    5  A    between atoms: C_13  and  C_14
REMARK    6  A    between atoms: C_17  and  C_18
REMARK    7  A    between atoms: C_18  and  C_19
REMARK                            x       y       z     vdW  Elec       q    Type
REMARK                         _______ _______ _______ _____ _____    ______ ____
ROOT
ATOM      1  C   UNL     1       1.259   8.916  20.288  0.00  0.00    +0.000 A 
ATOM      2  C   UNL     1       1.932   7.686  20.194  0.00  0.00    +0.000 A 
ATOM      3  N   UNL     1       2.512   7.290  19.040  0.00  0.00    +0.000 N 
ATOM      4  C   UNL     1       2.418   8.063  17.936  0.00  0.00    +0.000 A 
ATOM      5  C   UNL     1       1.773   9.309  17.987  0.00  0.00    +0.000 A 
ATOM      6  C   UNL     1       1.198   9.770  19.176  0.00  0.00    +0.000 A 
ENDROOT
BRANCH   1   8
ATOM      7  C   UNL     1      -0.630   8.890  22.060  0.00  0.00    +0.000 C 
ATOM      8  C   UNL     1       0.765   9.234  21.655  0.00  0.00    +0.000 C 
ATOM      9  O   UNL     1       1.579   9.696  22.441  0.00  0.00    +0.000 OA
ENDBRANCH   1   8
BRANCH   3  10
ATOM     10  C   UNL     1       3.291   6.010  19.023  0.00  0.00    +0.000 C 
BRANCH  10  11
ATOM     11  C   UNL     1       2.504   4.879  19.650  0.00  0.00    +0.000 A 
ATOM     12  C   UNL     1       2.662   4.609  21.026  0.00  0.00    +0.000 A 
ATOM     13  C   UNL     1       2.029   3.520  21.627  0.00  0.00    +0.000 A 
ATOM     14  C   UNL     1       1.206   2.696  20.873  0.00  0.00    +0.000 A 
ATOM     15  C   UNL     1       0.987   2.979  19.526  0.00  0.00    +0.000 A 
ATOM     16  C   UNL     1       1.616   4.072  18.903  0.00  0.00    +0.000 A 
ATOM     17  C   UNL     1       1.301   4.334  17.453  0.00  0.00    +0.000 C 
ENDBRANCH  10  11
ENDBRANCH   3  10
BRANCH   6  18
ATOM     18  C   UNL     1       0.779  11.225  19.268  0.00  0.00    +0.000 C 
BRANCH  18  19
ATOM     19  C   UNL     1      -0.578  11.732  18.764  0.00  0.00    +0.000 C 
ATOM     20  C   UNL     1      -1.401  12.729  19.613  0.00  0.00    +0.000 C 
ATOM     21  C   UNL     1      -2.827  12.298  19.380  0.00  0.00    +0.000 A 
ATOM     22  C   UNL     1      -3.988  12.660  20.043  0.00  0.00    +0.000 A 
ATOM     23  C   UNL     1      -5.166  12.114  19.554  0.00  0.00    +0.000 A 
ATOM     24  C   UNL     1      -5.212  11.317  18.419  0.00  0.00    +0.000 A 
ATOM     25  C   UNL     1      -4.071  10.874  17.798  0.00  0.00    +0.000 A 
ATOM     26  C   UNL     1      -2.902  11.311  18.390  0.00  0.00    +0.000 A 
ATOM     27  C   UNL     1      -1.597  10.672  18.429  0.00  0.00    +0.000 C 
ATOM     28  O   UNL     1      -1.437   9.465  18.431  0.00  0.00    +0.000 OA
ATOM     29  O   UNL     1      -6.479  10.957  18.088  0.00  0.00    +0.000 OA
ATOM     30  C   UNL     1      -7.231  11.616  19.127  0.00  0.00    +0.000 C 
ATOM     31  O   UNL     1      -6.396  12.247  20.124  0.00  0.00    +0.000 OA
ENDBRANCH  18  19
ENDBRANCH   6  18
TORSDOF 5
ENDMDL
MODEL 2
REMARK VINA RESULT:      -9.0      1.525      2.216
REMARK  Name = 
REMARK  7 active torsions:
REMARK  status: ('A' for Active; 'I' for Inactive)
REMARK    1  A    between atoms: C_1  and  C_2
REMARK    2  A    between atoms: C_2  and  C_4
REMARK    3  A    between atoms: N_6  and  C_7
REMARK    4  A    between atoms: C_7  and  C_8
REMARK    5  A    between atoms: C_13  and  C_14
REMARK    6  A    between atoms: C_17  and  C_18
REMARK    7  A    between atoms: C_18  and  C_19
REMARK                            x       y       z     vdW  Elec       q    Type
REMARK                         _______ _______ _______ _____ _____    ______ ____
ROOT
ATOM      1  C   UNL     1       1.093   8.820  20.176  0.00  0.00    +0.000 A 
ATOM      2  C   UNL     1       2.074   7.828  20.007  0.00  0.00    +0.000 A 
ATOM      3  N   UNL     1       2.581   7.543  18.788  0.00  0.00    +0.000 N 
ATOM      4  C   UNL     1       2.119   8.189  17.695  0.00  0.00    +0.000 A 
ATOM      5  C   UNL     1       1.154   9.202  17.818  0.00  0.00    +0.000 A 
ATOM      6  C   UNL     1       0.637   9.552  19.069  0.00  0.00    +0.000 A 
ENDROOT
BRANCH   1   8
ATOM      7  C   UNL     1      -0.611   8.634  22.118  0.00  0.00    +0.000 C 
ATOM      8  C   UNL     1       0.719   9.067  21.595  0.00  0.00    +0.000 C 
ATOM      9  O   UNL     1       1.580   9.548  22.316  0.00  0.00    +0.000 OA
ENDBRANCH   1   8
BRANCH   3  10
ATOM     10  C   UNL     1       3.688   6.538  18.681  0.00  0.00    +0.000 C 
BRANCH  10  11
ATOM     11  C   UNL     1       3.155   5.171  18.307  0.00  0.00    +0.000 A 
ATOM     12  C   UNL     1       2.005   4.678  18.960  0.00  0.00    +0.000 A 
ATOM     13  C   UNL     1       1.533   3.388  18.715  0.00  0.00    +0.000 A 
ATOM     14  C   UNL     1       2.181   2.576  17.796  0.00  0.00    +0.000 A 
ATOM     15  C   UNL     1       3.281   3.065  17.095  0.00  0.00    +0.000 A 
ATOM     16  C   UNL     1       3.773   4.361  17.328  0.00  0.00    +0.000 A 
ATOM     17  C   UNL     1       4.945   4.830  16.504  0.00  0.00    +0.000 C 
ENDBRANCH  10  11
ENDBRANCH   3  10
BRANCH   6  18
ATOM     18  C   UNL     1      -0.168  10.832  19.194  0.00  0.00    +0.000 C 
BRANCH  18  19
ATOM     19  C   UNL     1      -1.697  10.842  19.306  0.00  0.00    +0.000 C 
ATOM     20  C   UNL     1      -2.570  10.374  18.118  0.00  0.00    +0.000 C 
ATOM     21  C   UNL     1      -3.759  11.300  18.167  0.00  0.00    +0.000 A 
ATOM     22  C   UNL     1      -4.758  11.518  17.233  0.00  0.00    +0.000 A 
ATOM     23  C   UNL     1      -5.751  12.416  17.599  0.00  0.00    +0.000 A 
ATOM     24  C   UNL     1      -5.804  13.009  18.852  0.00  0.00    +0.000 A 
ATOM     25  C   UNL     1      -4.783  12.877  19.761  0.00  0.00    +0.000 A 
ATOM     26  C   UNL     1      -3.734  12.095  19.318  0.00  0.00    +0.000 A 
ATOM     27  C   UNL     1      -2.325  12.165  19.670  0.00  0.00    +0.000 C 
ATOM     28  O   UNL     1      -1.753  13.198  19.965  0.00  0.00    +0.000 OA
ATOM     29  O   UNL     1      -6.901  13.794  19.010  0.00  0.00    +0.000 OA
ATOM     30  C   UNL     1      -7.541  13.630  17.727  0.00  0.00    +0.000 C 
ATOM     31  O   UNL     1      -6.755  12.857  16.792  0.00  0.00    +0.000 OA
ENDBRANCH  18  19
ENDBRANCH   6  18
TORSDOF 5
ENDMDL
MODEL 3
REMARK VINA RESULT:      -9.0      1.385      2.263
REMARK  Name = 
REMARK  7 active torsions:
REMARK  status: ('A' for Active; 'I' for Inactive)
REMARK    1  A    between atoms: C_1  and  C_2
REMARK    2  A    between atoms: C_2  and  C_4
REMARK    3  A    between atoms: N_6  and  C_7
REMARK    4  A    between atoms: C_7  and  C_8
REMARK    5  A    between atoms: C_13  and  C_14
REMARK    6  A    between atoms: C_17  and  C_18
REMARK    7  A    between atoms: C_18  and  C_19
REMARK                            x       y       z     vdW  Elec       q    Type
REMARK                         _______ _______ _______ _____ _____    ______ ____
ROOT
ATOM      1  C   UNL     1       0.963   8.907  20.137  0.00  0.00    +0.000 A 
ATOM      2  C   UNL     1       1.953   7.910  20.180  0.00  0.00    +0.000 A 
ATOM      3  N   UNL     1       2.521   7.436  19.051  0.00  0.00    +0.000 N 
ATOM      4  C   UNL     1       2.113   7.890  17.846  0.00  0.00    +0.000 A 
ATOM      5  C   UNL     1       1.141   8.899  17.753  0.00  0.00    +0.000 A 
ATOM      6  C   UNL     1       0.561   9.443  18.904  0.00  0.00    +0.000 A 
ENDROOT
BRANCH   1   8
ATOM      7  C   UNL     1      -0.573   8.670  22.209  0.00  0.00    +0.000 C 
ATOM      8  C   UNL     1       0.517   9.379  21.475  0.00  0.00    +0.000 C 
ATOM      9  O   UNL     1       1.147  10.302  21.972  0.00  0.00    +0.000 OA
ENDBRANCH   1   8
BRANCH   3  10
ATOM     10  C   UNL     1       3.634   6.438  19.165  0.00  0.00    +0.000 C 
BRANCH  10  11
ATOM     11  C   UNL     1       3.169   5.049  18.781  0.00  0.00    +0.000 A 
ATOM     12  C   UNL     1       3.434   4.570  17.480  0.00  0.00    +0.000 A 
ATOM     13  C   UNL     1       2.944   3.336  17.050  0.00  0.00    +0.000 A 
ATOM     14  C   UNL     1       2.204   2.545  17.918  0.00  0.00    +0.000 A 
ATOM     15  C   UNL     1       1.983   2.971  19.226  0.00  0.00    +0.000 A 
ATOM     16  C   UNL     1       2.467   4.212  19.677  0.00  0.00    +0.000 A 
ATOM     17  C   UNL     1       2.218   4.586  21.115  0.00  0.00    +0.000 C 
ENDBRANCH  10  11
ENDBRANCH   3  10
BRANCH   6  18
ATOM     18  C   UNL     1      -0.252  10.718  18.777  0.00  0.00    +0.000 C 
BRANCH  18  19
ATOM     19  C   UNL     1      -1.772  10.755  18.973  0.00  0.00    +0.000 C 
ATOM     20  C   UNL     1      -2.717  10.340  17.820  0.00  0.00    +0.000 C 
ATOM     21  C   UNL     1      -3.882  11.288  17.960  0.00  0.00    +0.000 A 
ATOM     22  C   UNL     1      -4.924  11.553  17.088  0.00  0.00    +0.000 A 
ATOM     23  C   UNL     1      -5.877  12.459  17.533  0.00  0.00    +0.000 A 
ATOM     24  C   UNL     1      -5.850  13.015  18.804  0.00  0.00    +0.000 A 
ATOM     25  C   UNL     1      -4.786  12.836  19.652  0.00  0.00    +0.000 A 
ATOM     26  C   UNL     1      -3.778  12.047  19.131  0.00  0.00    +0.000 A 
ATOM     27  C   UNL     1      -2.351  12.078  19.407  0.00  0.00    +0.000 C 
ATOM     28  O   UNL     1      -1.743  13.091  19.701  0.00  0.00    +0.000 OA
ATOM     29  O   UNL     1      -6.920  13.816  19.043  0.00  0.00    +0.000 OA
ATOM     30  C   UNL     1      -7.631  13.703  17.793  0.00  0.00    +0.000 C 
ATOM     31  O   UNL     1      -6.913  12.944  16.795  0.00  0.00    +0.000 OA
ENDBRANCH  18  19
ENDBRANCH   6  18
TORSDOF 5
ENDMDL
MODEL 4
REMARK VINA RESULT:      -8.8      2.183      2.921
REMARK  Name = 
REMARK  7 active torsions:
REMARK  status: ('A' for Active; 'I' for Inactive)
REMARK    1  A    between atoms: C_1  and  C_2
REMARK    2  A    between atoms: C_2  and  C_4
REMARK    3  A    between atoms: N_6  and  C_7
REMARK    4  A    between atoms: C_7  and  C_8
REMARK    5  A    between atoms: C_13  and  C_14
REMARK    6  A    between atoms: C_17  and  C_18
REMARK    7  A    between atoms: C_18  and  C_19
REMARK                            x       y       z     vdW  Elec       q    Type
REMARK                         _______ _______ _______ _____ _____    ______ ____
ROOT
ATOM      1  C   UNL     1       1.181   8.783  20.538  0.00  0.00    +0.000 A 
ATOM      2  C   UNL     1       1.983   7.651  20.315  0.00  0.00    +0.000 A 
ATOM      3  N   UNL     1       2.431   7.341  19.079  0.00  0.00    +0.000 N 
ATOM      4  C   UNL     1       2.077   8.102  18.021  0.00  0.00    +0.000 A 
ATOM      5  C   UNL     1       1.294   9.254  18.198  0.00  0.00    +0.000 A 
ATOM      6  C   UNL     1       0.848   9.629  19.469  0.00  0.00    +0.000 A 
ENDROOT
BRANCH   1   8
ATOM      7  C   UNL     1      -0.469   8.637  22.529  0.00  0.00    +0.000 C 
ATOM      8  C   UNL     1       0.860   9.026  21.970  0.00  0.00    +0.000 C 
ATOM      9  O   UNL     1       1.760   9.465  22.671  0.00  0.00    +0.000 OA
ENDBRANCH   1   8
BRANCH   3  10
ATOM     10  C   UNL     1       3.355   6.172  18.916  0.00  0.00    +0.000 C 
BRANCH  10  11
ATOM     11  C   UNL     1       2.586   4.871  18.825  0.00  0.00    +0.000 A 
ATOM     12  C   UNL     1       1.529   4.632  19.730  0.00  0.00    +0.000 A 
ATOM     13  C   UNL     1       0.853   3.411  19.745  0.00  0.00    +0.000 A 
ATOM     14  C   UNL     1       1.200   2.416  18.842  0.00  0.00    +0.000 A 
ATOM     15  C   UNL     1       2.199   2.654  17.899  0.00  0.00    +0.000 A 
ATOM     16  C   UNL     1       2.892   3.877  17.869  0.00  0.00    +0.000 A 
ATOM     17  C   UNL     1       3.934   4.071  16.798  0.00  0.00    +0.000 C 
ENDBRANCH  10  11
ENDBRANCH   3  10
BRANCH   6  18
ATOM     18  C   UNL     1       0.267  11.018  19.658  0.00  0.00    +0.000 C 
BRANCH  18  19
ATOM     19  C   UNL     1      -1.084  11.266  20.339  0.00  0.00    +0.000 C 
ATOM     20  C   UNL     1      -2.216  12.000  19.581  0.00  0.00    +0.000 C 
ATOM     21  C   UNL     1      -2.881  12.826  20.653  0.00  0.00    +0.000 A 
ATOM     22  C   UNL     1      -3.801  13.855  20.543  0.00  0.00    +0.000 A 
ATOM     23  C   UNL     1      -4.262  14.392  21.737  0.00  0.00    +0.000 A 
ATOM     24  C   UNL     1      -3.899  13.889  22.978  0.00  0.00    +0.000 A 
ATOM     25  C   UNL     1      -2.926  12.931  23.116  0.00  0.00    +0.000 A 
ATOM     26  C   UNL     1      -2.374  12.513  21.920  0.00  0.00    +0.000 A 
ATOM     27  C   UNL     1      -1.038  12.008  21.651  0.00  0.00    +0.000 C 
ATOM     28  O   UNL     1      -0.048  12.355  22.269  0.00  0.00    +0.000 OA
ATOM     29  O   UNL     1      -4.528  14.524  24.001  0.00  0.00    +0.000 OA
ATOM     30  C   UNL     1      -5.333  15.477  23.276  0.00  0.00    +0.000 C 
ATOM     31  O   UNL     1      -5.076  15.477  21.854  0.00  0.00    +0.000 OA
ENDBRANCH  18  19
ENDBRANCH   6  18
TORSDOF 5
ENDMDL
MODEL 5
REMARK VINA RESULT:      -8.8      4.251      6.658
REMARK  Name = 
REMARK  7 active torsions:
REMARK  status: ('A' for Active; 'I' for Inactive)
REMARK    1  A    between atoms: C_1  and  C_2
REMARK    2  A    between atoms: C_2  and  C_4
REMARK    3  A    between atoms: N_6  and  C_7
REMARK    4  A    between atoms: C_7  and  C_8
REMARK    5  A    between atoms: C_13  and  C_14
REMARK    6  A    between atoms: C_17  and  C_18
REMARK    7  A    between atoms: C_18  and  C_19
REMARK                            x       y       z     vdW  Elec       q    Type
REMARK                         _______ _______ _______ _____ _____    ______ ____
ROOT
ATOM      1  C   UNL     1       3.719   4.565  17.359  0.00  0.00    +0.000 A 
ATOM      2  C   UNL     1       4.910   4.381  16.637  0.00  0.00    +0.000 A 
ATOM      3  N   UNL     1       5.641   5.434  16.210  0.00  0.00    +0.000 N 
ATOM      4  C   UNL     1       5.212   6.694  16.441  0.00  0.00    +0.000 A 
ATOM      5  C   UNL     1       4.037   6.926  17.175  0.00  0.00    +0.000 A 
ATOM      6  C   UNL     1       3.278   5.861  17.668  0.00  0.00    +0.000 A 
ENDROOT
BRANCH   1   8
ATOM      7  C   UNL     1       3.573   2.635  19.081  0.00  0.00    +0.000 C 
ATOM      8  C   UNL     1       3.095   3.300  17.832  0.00  0.00    +0.000 C 
ATOM      9  O   UNL     1       2.126   2.896  17.206  0.00  0.00    +0.000 OA
ENDBRANCH   1   8
BRANCH   3  10
ATOM     10  C   UNL     1       6.948   5.176  15.522  0.00  0.00    +0.000 C 
BRANCH  10  11
ATOM     11  C   UNL     1       6.735   4.651  14.118  0.00  0.00    +0.000 A 
ATOM     12  C   UNL     1       5.633   3.808  13.858  0.00  0.00    +0.000 A 
ATOM     13  C   UNL     1       5.449   3.225  12.603  0.00  0.00    +0.000 A 
ATOM     14  C   UNL     1       6.346   3.491  11.578  0.00  0.00    +0.000 A 
ATOM     15  C   UNL     1       7.406   4.369  11.796  0.00  0.00    +0.000 A 
ATOM     16  C   UNL     1       7.609   4.965  13.053  0.00  0.00    +0.000 A 
ATOM     17  C   UNL     1       8.757   5.930  13.199  0.00  0.00    +0.000 C 
ENDBRANCH  10  11
ENDBRANCH   3  10
BRANCH   6  18
ATOM     18  C   UNL     1       2.198   6.149  18.695  0.00  0.00    +0.000 C 
BRANCH  18  19
ATOM     19  C   UNL     1       2.226   7.382  19.605  0.00  0.00    +0.000 C 
ATOM     20  C   UNL     1       1.667   7.301  21.045  0.00  0.00    +0.000 C 
ATOM     21  C   UNL     1       1.025   8.651  21.251  0.00  0.00    +0.000 A 
ATOM     22  C   UNL     1       0.171   9.088  22.248  0.00  0.00    +0.000 A 
ATOM     23  C   UNL     1      -0.216  10.420  22.180  0.00  0.00    +0.000 A 
ATOM     24  C   UNL     1       0.276  11.298  21.225  0.00  0.00    +0.000 A 
ATOM     25  C   UNL     1       1.053  10.870  20.178  0.00  0.00    +0.000 A 
ATOM     26  C   UNL     1       1.306   9.512  20.184  0.00  0.00    +0.000 A 
ATOM     27  C   UNL     1       1.554   8.619  19.063  0.00  0.00    +0.000 C 
ATOM     28  O   UNL     1       1.069   8.773  17.958  0.00  0.00    +0.000 OA
ATOM     29  O   UNL     1      -0.187  12.564  21.396  0.00  0.00    +0.000 OA
ATOM     30  C   UNL     1      -1.018  12.396  22.563  0.00  0.00    +0.000 C 
ATOM     31  O   UNL     1      -1.134  11.019  22.988  0.00  0.00    +0.000 OA
ENDBRANCH  18  19
ENDBRANCH   6  18
TORSDOF 5
ENDMDL
MODEL 6
REMARK VINA RESULT:      -8.7      3.410      5.449
REMARK  Name = 
REMARK  7 active torsions:
REMARK  status: ('A' for Active; 'I' for Inactive)
REMARK    1  A    between atoms: C_1  and  C_2
REMARK    2  A    between atoms: C_2  and  C_4
REMARK    3  A    between atoms: N_6  and  C_7
REMARK    4  A    between atoms: C_7  and  C_8
REMARK    5  A    between atoms: C_13  and  C_14
REMARK    6  A    between atoms: C_17  and  C_18
REMARK    7  A    between atoms: C_18  and  C_19
REMARK                            x       y       z     vdW  Elec       q    Type
REMARK                         _______ _______ _______ _____ _____    ______ ____
ROOT
ATOM      1  C   UNL     1       2.545   4.806  20.123  0.00  0.00    +0.000 A 
ATOM      2  C   UNL     1       3.770   4.309  19.646  0.00  0.00    +0.000 A 
ATOM      3  N   UNL     1       4.603   5.079  18.912  0.00  0.00    +0.000 N 
ATOM      4  C   UNL     1       4.247   6.342  18.590  0.00  0.00    +0.000 A 
ATOM      5  C   UNL     1       3.042   6.888  19.059  0.00  0.00    +0.000 A 
ATOM      6  C   UNL     1       2.175   6.133  19.857  0.00  0.00    +0.000 A 
ENDROOT
BRANCH   1   8
ATOM      7  C   UNL     1       0.668   3.051  20.446  0.00  0.00    +0.000 C 
ATOM      8  C   UNL     1       1.802   3.854  20.992  0.00  0.00    +0.000 C 
ATOM      9  O   UNL     1       2.224   3.700  22.128  0.00  0.00    +0.000 OA
ENDBRANCH   1   8
BRANCH   3  10
ATOM     10  C   UNL     1       5.934   4.523  18.507  0.00  0.00    +0.000 C 
BRANCH  10  11
ATOM     11  C   UNL     1       6.155   4.658  17.015  0.00  0.00    +0.000 A 
ATOM     12  C   UNL     1       5.560   3.721  16.144  0.00  0.00    +0.000 A 
ATOM     13  C   UNL     1       5.811   3.749  14.771  0.00  0.00    +0.000 A 
ATOM     14  C   UNL     1       6.638   4.727  14.239  0.00  0.00    +0.000 A 
ATOM     15  C   UNL     1       7.188   5.699  15.073  0.00  0.00    +0.000 A 
ATOM     16  C   UNL     1       6.947   5.687  16.458  0.00  0.00    +0.000 A 
ATOM     17  C   UNL     1       7.548   6.792  17.288  0.00  0.00    +0.000 C 
ENDBRANCH  10  11
ENDBRANCH   3  10
BRANCH   6  18
ATOM     18  C   UNL     1       1.047   6.842  20.581  0.00  0.00    +0.000 C 
BRANCH  18  19
ATOM     19  C   UNL     1       1.204   8.236  21.199  0.00  0.00    +0.000 C 
ATOM     20  C   UNL     1       0.414   8.618  22.473  0.00  0.00    +0.000 C 
ATOM     21  C   UNL     1       0.069  10.070  22.253  0.00  0.00    +0.000 A 
ATOM     22  C   UNL     1      -0.815  10.889  22.934  0.00  0.00    +0.000 A 
ATOM     23  C   UNL     1      -0.874  12.210  22.510  0.00  0.00    +0.000 A 
ATOM     24  C   UNL     1      -0.047  12.720  21.519  0.00  0.00    +0.000 A 
ATOM     25  C   UNL     1       0.774  11.911  20.772  0.00  0.00    +0.000 A 
ATOM     26  C   UNL     1       0.709  10.574  21.114  0.00  0.00    +0.000 A 
ATOM     27  C   UNL     1       0.927   9.402  20.283  0.00  0.00    +0.000 C 
ATOM     28  O   UNL     1       0.677   9.363  19.092  0.00  0.00    +0.000 OA
ATOM     29  O   UNL     1      -0.232  14.050  21.321  0.00  0.00    +0.000 OA
ATOM     30  C   UNL     1      -1.259  14.331  22.295  0.00  0.00    +0.000 C 
ATOM     31  O   UNL     1      -1.751  13.147  22.962  0.00  0.00    +0.000 OA
ENDBRANCH  18  19
ENDBRANCH   6  18
TORSDOF 5
ENDMDL
MODEL 7
REMARK VINA RESULT:      -8.7      3.485      5.427
REMARK  Name = 
REMARK  7 active torsions:
REMARK  status: ('A' for Active; 'I' for Inactive)
REMARK    1  A    between atoms: C_1  and  C_2
REMARK    2  A    between atoms: C_2  and  C_4
REMARK    3  A    between atoms: N_6  and  C_7
REMARK    4  A    between atoms: C_7  and  C_8
REMARK    5  A    between atoms: C_13  and  C_14
REMARK    6  A    between atoms: C_17  and  C_18
REMARK    7  A    between atoms: C_18  and  C_19
REMARK                            x       y       z     vdW  Elec       q    Type
REMARK                         _______ _______ _______ _____ _____    ______ ____
ROOT
ATOM      1  C   UNL     1       0.819   9.445  20.280  0.00  0.00    +0.000 A 
ATOM      2  C   UNL     1       1.630   8.307  20.427  0.00  0.00    +0.000 A 
ATOM      3  N   UNL     1       2.165   7.684  19.355  0.00  0.00    +0.000 N 
ATOM      4  C   UNL     1       1.893   8.128  18.108  0.00  0.00    +0.000 A 
ATOM      5  C   UNL     1       1.104   9.273  17.914  0.00  0.00    +0.000 A 
ATOM      6  C   UNL     1       0.568   9.968  19.003  0.00  0.00    +0.000 A 
ENDROOT
BRANCH   1   8
ATOM      7  C   UNL     1      -0.454   9.294  22.531  0.00  0.00    +0.000 C 
ATOM      8  C   UNL     1       0.394  10.057  21.568  0.00  0.00    +0.000 C 
ATOM      9  O   UNL     1       0.849  11.161  21.830  0.00  0.00    +0.000 OA
ENDBRANCH   1   8
BRANCH   3  10
ATOM     10  C   UNL     1       3.094   6.528  19.578  0.00  0.00    +0.000 C 
BRANCH  10  11
ATOM     11  C   UNL     1       2.387   5.206  19.368  0.00  0.00    +0.000 A 
ATOM     12  C   UNL     1       1.412   4.791  20.301  0.00  0.00    +0.000 A 
ATOM     13  C   UNL     1       0.803   3.540  20.200  0.00  0.00    +0.000 A 
ATOM     14  C   UNL     1       1.133   2.691  19.154  0.00  0.00    +0.000 A 
ATOM     15  C   UNL     1       2.046   3.106  18.187  0.00  0.00    +0.000 A 
ATOM     16  C   UNL     1       2.672   4.362  18.271  0.00  0.00    +0.000 A 
ATOM     17  C   UNL     1       3.622   4.753  17.169  0.00  0.00    +0.000 C 
ENDBRANCH  10  11
ENDBRANCH   3  10
BRANCH   6  18
ATOM     18  C   UNL     1      -0.020  11.347  18.770  0.00  0.00    +0.000 C 
BRANCH  18  19
ATOM     19  C   UNL     1       0.844  12.576  18.463  0.00  0.00    +0.000 C 
ATOM     20  C   UNL     1       2.359  12.563  18.778  0.00  0.00    +0.000 C 
ATOM     21  C   UNL     1       2.637  13.973  19.234  0.00  0.00    +0.000 A 
ATOM     22  C   UNL     1       3.752  14.504  19.859  0.00  0.00    +0.000 A 
ATOM     23  C   UNL     1       3.718  15.868  20.113  0.00  0.00    +0.000 A 
ATOM     24  C   UNL     1       2.676  16.685  19.700  0.00  0.00    +0.000 A 
ATOM     25  C   UNL     1       1.524  16.172  19.158  0.00  0.00    +0.000 A 
ATOM     26  C   UNL     1       1.519  14.794  19.048  0.00  0.00    +0.000 A 
ATOM     27  C   UNL     1       0.394  13.874  19.085  0.00  0.00    +0.000 C 
ATOM     28  O   UNL     1      -0.619  14.072  19.730  0.00  0.00    +0.000 OA
ATOM     29  O   UNL     1       2.891  17.993  19.995  0.00  0.00    +0.000 OA
ATOM     30  C   UNL     1       4.184  17.920  20.631  0.00  0.00    +0.000 C 
ATOM     31  O   UNL     1       4.654  16.565  20.816  0.00  0.00    +0.000 OA
ENDBRANCH  18  19
ENDBRANCH   6  18
TORSDOF 5
ENDMDL
MODEL 8
REMARK VINA RESULT:      -8.7      3.414      8.935
REMARK  Name = 
REMARK  7 active torsions:
REMARK  status: ('A' for Active; 'I' for Inactive)
REMARK    1  A    between atoms: C_1  and  C_2
REMARK    2  A    between atoms: C_2  and  C_4
REMARK    3  A    between atoms: N_6  and  C_7
REMARK    4  A    between atoms: C_7  and  C_8
REMARK    5  A    between atoms: C_13  and  C_14
REMARK    6  A    between atoms: C_17  and  C_18
REMARK    7  A    between atoms: C_18  and  C_19
REMARK                            x       y       z     vdW  Elec       q    Type
REMARK                         _______ _______ _______ _____ _____    ______ ____
ROOT
ATOM      1  C   UNL     1       0.950   9.293  20.518  0.00  0.00    +0.000 A 
ATOM      2  C   UNL     1       0.341  10.461  20.028  0.00  0.00    +0.000 A 
ATOM      3  N   UNL     1       0.285  10.721  18.704  0.00  0.00    +0.000 N 
ATOM      4  C   UNL     1       0.857   9.871  17.823  0.00  0.00    +0.000 A 
ATOM      5  C   UNL     1       1.460   8.682  18.264  0.00  0.00    +0.000 A 
ATOM      6  C   UNL     1       1.498   8.360  19.624  0.00  0.00    +0.000 A 
ENDROOT
BRANCH   1   8
ATOM      7  C   UNL     1      -0.462   8.724  22.613  0.00  0.00    +0.000 C 
ATOM      8  C   UNL     1       0.836   9.121  21.991  0.00  0.00    +0.000 C 
ATOM      9  O   UNL     1       1.866   9.227  22.640  0.00  0.00    +0.000 OA
ENDBRANCH   1   8
BRANCH   3  10
ATOM     10  C   UNL     1      -0.455  11.938  18.236  0.00  0.00    +0.000 C 
BRANCH  10  11
ATOM     11  C   UNL     1      -1.921  11.635  18.008  0.00  0.00    +0.000 A 
ATOM     12  C   UNL     1      -2.314  10.995  16.813  0.00  0.00    +0.000 A 
ATOM     13  C   UNL     1      -3.660  10.780  16.517  0.00  0.00    +0.000 A 
ATOM     14  C   UNL     1      -4.639  11.176  17.418  0.00  0.00    +0.000 A 
ATOM     15  C   UNL     1      -4.270  11.754  18.631  0.00  0.00    +0.000 A 
ATOM     16  C   UNL     1      -2.918  11.979  18.947  0.00  0.00    +0.000 A 
ATOM     17  C   UNL     1      -2.598  12.577  20.293  0.00  0.00    +0.000 C 
ENDBRANCH  10  11
ENDBRANCH   3  10
BRANCH   6  18
ATOM     18  C   UNL     1       1.885   6.950  20.029  0.00  0.00    +0.000 C 
BRANCH  18  19
ATOM     19  C   UNL     1       3.091   6.216  19.430  0.00  0.00    +0.000 C 
ATOM     20  C   UNL     1       4.289   7.016  18.866  0.00  0.00    +0.000 C 
ATOM     21  C   UNL     1       4.723   6.206  17.670  0.00  0.00    +0.000 A 
ATOM     22  C   UNL     1       5.590   6.530  16.641  0.00  0.00    +0.000 A 
ATOM     23  C   UNL     1       5.819   5.536  15.700  0.00  0.00    +0.000 A 
ATOM     24  C   UNL     1       5.286   4.260  15.808  0.00  0.00    +0.000 A 
ATOM     25  C   UNL     1       4.358   3.941  16.768  0.00  0.00    +0.000 A 
ATOM     26  C   UNL     1       4.033   4.989  17.607  0.00  0.00    +0.000 A 
ATOM     27  C   UNL     1       2.789   5.250  18.312  0.00  0.00    +0.000 C 
ATOM     28  O   UNL     1       1.694   4.925  17.890  0.00  0.00    +0.000 OA
ATOM     29  O   UNL     1       5.703   3.436  14.812  0.00  0.00    +0.000 OA
ATOM     30  C   UNL     1       6.562   4.323  14.065  0.00  0.00    +0.000 C 
ATOM     31  O   UNL     1       6.541   5.683  14.555  0.00  0.00    +0.000 OA
ENDBRANCH  18  19
ENDBRANCH   6  18
TORSDOF 5
ENDMDL
MODEL 9
REMARK VINA RESULT:      -8.7      3.637      5.052
REMARK  Name = 
REMARK  7 active torsions:
REMARK  status: ('A' for Active; 'I' for Inactive)
REMARK    1  A    between atoms: C_1  and  C_2
REMARK    2  A    between atoms: C_2  and  C_4
REMARK    3  A    between atoms: N_6  and  C_7
REMARK    4  A    between atoms: C_7  and  C_8
REMARK    5  A    between atoms: C_13  and  C_14
REMARK    6  A    between atoms: C_17  and  C_18
REMARK    7  A    between atoms: C_18  and  C_19
REMARK                            x       y       z     vdW  Elec       q    Type
REMARK                         _______ _______ _______ _____ _____    ______ ____
ROOT
ATOM      1  C   UNL     1       1.258   8.763  20.507  0.00  0.00    +0.000 A 
ATOM      2  C   UNL     1       1.993   7.565  20.493  0.00  0.00    +0.000 A 
ATOM      3  N   UNL     1       2.529   7.083  19.351  0.00  0.00    +0.000 N 
ATOM      4  C   UNL     1       2.330   7.734  18.184  0.00  0.00    +0.000 A 
ATOM      5  C   UNL     1       1.619   8.944  18.151  0.00  0.00    +0.000 A 
ATOM      6  C   UNL     1       1.087   9.494  19.321  0.00  0.00    +0.000 A 
ENDROOT
BRANCH   1   8
ATOM      7  C   UNL     1      -0.589   9.007  22.306  0.00  0.00    +0.000 C 
ATOM      8  C   UNL     1       0.825   9.194  21.863  0.00  0.00    +0.000 C 
ATOM      9  O   UNL     1       1.695   9.612  22.613  0.00  0.00    +0.000 OA
ENDBRANCH   1   8
BRANCH   3  10
ATOM     10  C   UNL     1       3.377   5.849  19.414  0.00  0.00    +0.000 C 
BRANCH  10  11
ATOM     11  C   UNL     1       2.557   4.605  19.145  0.00  0.00    +0.000 A 
ATOM     12  C   UNL     1       1.496   4.277  20.016  0.00  0.00    +0.000 A 
ATOM     13  C   UNL     1       0.774   3.093  19.863  0.00  0.00    +0.000 A 
ATOM     14  C   UNL     1       1.078   2.227  18.823  0.00  0.00    +0.000 A 
ATOM     15  C   UNL     1       2.081   2.560  17.914  0.00  0.00    +0.000 A 
ATOM     16  C   UNL     1       2.820   3.748  18.053  0.00  0.00    +0.000 A 
ATOM     17  C   UNL     1       3.864   4.054  17.010  0.00  0.00    +0.000 C 
ENDBRANCH  10  11
ENDBRANCH   3  10
BRANCH   6  18
ATOM     18  C   UNL     1       0.593  10.929  19.294  0.00  0.00    +0.000 C 
BRANCH  18  19
ATOM     19  C   UNL     1       1.330  12.074  19.998  0.00  0.00    +0.000 C 
ATOM     20  C   UNL     1       0.592  12.955  21.034  0.00  0.00    +0.000 C 
ATOM     21  C   UNL     1       1.167  14.330  20.802  0.00  0.00    +0.000 A 
ATOM     22  C   UNL     1       0.741  15.563  21.264  0.00  0.00    +0.000 A 
ATOM     23  C   UNL     1       1.522  16.653  20.903  0.00  0.00    +0.000 A 
ATOM     24  C   UNL     1       2.707  16.527  20.193  0.00  0.00    +0.000 A 
ATOM     25  C   UNL     1       3.104  15.330  19.652  0.00  0.00    +0.000 A 
ATOM     26  C   UNL     1       2.236  14.285  19.899  0.00  0.00    +0.000 A 
ATOM     27  C   UNL     1       1.973  13.099  19.099  0.00  0.00    +0.000 C 
ATOM     28  O   UNL     1       2.046  13.075  17.884  0.00  0.00    +0.000 OA
ATOM     29  O   UNL     1       3.337  17.717  20.017  0.00  0.00    +0.000 OA
ATOM     30  C   UNL     1       2.429  18.609  20.697  0.00  0.00    +0.000 C 
ATOM     31  O   UNL     1       1.222  17.957  21.152  0.00  0.00    +0.000 OA
ENDBRANCH  18  19
ENDBRANCH   6  18
TORSDOF 5
ENDMDL
