MODEL 1
REMARK VINA RESULT:      -7.5      0.000      0.000
REMARK  Name = 
REMARK  6 active torsions:
REMARK  status: ('A' for Active; 'I' for Inactive)
REMARK    1  A    between atoms: C_1  and  O_2
REMARK    2  A    between atoms: O_2  and  C_3
REMARK    3  A    between atoms: C_5  and  C_6
REMARK    4  A    between atoms: C_6  and  N_8
REMARK    5  A    between atoms: N_11  and  C_12
REMARK    6  A    between atoms: C_23  and  O_24
REMARK                            x       y       z     vdW  Elec       q    Type
REMARK                         _______ _______ _______ _____ _____    ______ ____
ROOT
ATOM      1  N   UNL     1       2.824   6.256  18.922  0.00  0.00    +0.000 N 
ATOM      2  C   UNL     1       1.987   6.389  20.121  0.00  0.00    +0.000 C 
ATOM      3  C   UNL     1       1.929   7.856  20.583  0.00  0.00    +0.000 C 
ATOM      4  N   UNL     1       1.455   8.698  19.470  0.00  0.00    +0.000 N 
ATOM      5  C   UNL     1       2.246   8.582  18.227  0.00  0.00    +0.000 C 
ATOM      6  C   UNL     1       2.367   7.102  17.808  0.00  0.00    +0.000 C 
ENDROOT
BRANCH   4   7
ATOM      7  C   UNL     1       0.539   9.713  19.668  0.00  0.00    +0.000 A 
ATOM      8  C   UNL     1      -0.208  10.231  18.598  0.00  0.00    +0.000 A 
ATOM      9  C   UNL     1      -1.206  11.196  18.785  0.00  0.00    +0.000 A 
ATOM     10  C   UNL     1      -1.479  11.672  20.061  0.00  0.00    +0.000 A 
ATOM     11  C   UNL     1      -0.743  11.189  21.134  0.00  0.00    +0.000 A 
ATOM     12 CL   UNL     1      -1.073  11.770  22.723  0.00  0.00    +0.000 Cl
ATOM     13  C   UNL     1       0.253  10.227  20.942  0.00  0.00    +0.000 A 
ENDBRANCH   4   7
BRANCH   1  14
ATOM     14  C   UNL     1       3.409   5.026  18.610  0.00  0.00    +0.000 C 
ATOM     15  S   UNL     1       2.979   3.597  19.396  0.00  0.00    +0.000 S 
BRANCH  14  18
ATOM     16  C   UNL     1       6.509   6.219  16.727  0.00  0.00    +0.000 A 
ATOM     17  C   UNL     1       5.445   6.137  17.638  0.00  0.00    +0.000 A 
ATOM     18  C   UNL     1       4.489   5.111  17.568  0.00  0.00    +0.000 A 
ATOM     19  C   UNL     1       4.603   4.158  16.552  0.00  0.00    +0.000 A 
ATOM     20  C   UNL     1       5.657   4.228  15.636  0.00  0.00    +0.000 A 
ATOM     21  C   UNL     1       6.608   5.249  15.726  0.00  0.00    +0.000 A 
BRANCH  16  23
ATOM     22  C   UNL     1       8.004   7.345  18.222  0.00  0.00    +0.000 C 
ATOM     23  O   UNL     1       7.338   7.285  16.966  0.00  0.00    +0.000 OA
ENDBRANCH  16  23
BRANCH  21  24
ATOM     24  O   UNL     1       7.627   5.261  14.814  0.00  0.00    +0.000 OA
ATOM     25  H   UNL     1       7.638   6.115  14.353  0.00  0.00    +0.000 HD
ENDBRANCH  21  24
ENDBRANCH  14  18
ENDBRANCH   1  14
TORSDOF 5
ENDMDL
MODEL 2
REMARK VINA RESULT:      -7.4      1.230      1.557
REMARK  Name = 
REMARK  6 active torsions:
REMARK  status: ('A' for Active; 'I' for Inactive)
REMARK    1  A    between atoms: C_1  and  O_2
REMARK    2  A    between atoms: O_2  and  C_3
REMARK    3  A    between atoms: C_5  and  C_6
REMARK    4  A    between atoms: C_6  and  N_8
REMARK    5  A    between atoms: N_11  and  C_12
REMARK    6  A    between atoms: C_23  and  O_24
REMARK                            x       y       z     vdW  Elec       q    Type
REMARK                         _______ _______ _______ _____ _____    ______ ____
ROOT
ATOM      1  N   UNL     1       2.807   6.424  18.974  0.00  0.00    +0.000 N 
ATOM      2  C   UNL     1       1.930   6.615  20.137  0.00  0.00    +0.000 C 
ATOM      3  C   UNL     1       1.800   8.110  20.479  0.00  0.00    +0.000 C 
ATOM      4  N   UNL     1       1.325   8.842  19.291  0.00  0.00    +0.000 N 
ATOM      5  C   UNL     1       2.156   8.662  18.082  0.00  0.00    +0.000 C 
ATOM      6  C   UNL     1       2.348   7.160  17.785  0.00  0.00    +0.000 C 
ENDROOT
BRANCH   4   7
ATOM      7  C   UNL     1       0.363   9.829  19.384  0.00  0.00    +0.000 A 
ATOM      8  C   UNL     1       0.292  10.663  20.512  0.00  0.00    +0.000 A 
ATOM      9  C   UNL     1      -0.613  11.729  20.593  0.00  0.00    +0.000 A 
ATOM     10  C   UNL     1      -1.481  11.983  19.538  0.00  0.00    +0.000 A 
ATOM     11  C   UNL     1      -1.443  11.163  18.419  0.00  0.00    +0.000 A 
ATOM     12 CL   UNL     1      -2.511  11.469  17.102  0.00  0.00    +0.000 Cl
ATOM     13  C   UNL     1      -0.538  10.100  18.343  0.00  0.00    +0.000 A 
ENDBRANCH   4   7
BRANCH   1  14
ATOM     14  C   UNL     1       3.449   5.199  18.777  0.00  0.00    +0.000 C 
ATOM     15  S   UNL     1       3.118   3.844  19.723  0.00  0.00    +0.000 S 
BRANCH  14  18
ATOM     16  C   UNL     1       6.493   6.281  16.740  0.00  0.00    +0.000 A 
ATOM     17  C   UNL     1       5.458   6.250  17.688  0.00  0.00    +0.000 A 
ATOM     18  C   UNL     1       4.495   5.227  17.698  0.00  0.00    +0.000 A 
ATOM     19  C   UNL     1       4.573   4.225  16.727  0.00  0.00    +0.000 A 
ATOM     20  C   UNL     1       5.597   4.243  15.775  0.00  0.00    +0.000 A 
ATOM     21  C   UNL     1       6.555   5.262  15.785  0.00  0.00    +0.000 A 
BRANCH  16  23
ATOM     22  C   UNL     1       8.040   7.469  18.130  0.00  0.00    +0.000 C 
ATOM     23  O   UNL     1       7.333   7.351  16.900  0.00  0.00    +0.000 OA
ENDBRANCH  16  23
BRANCH  21  24
ATOM     24  O   UNL     1       7.544   5.223  14.842  0.00  0.00    +0.000 OA
ATOM     25  H   UNL     1       8.309   4.742  15.197  0.00  0.00    +0.000 HD
ENDBRANCH  21  24
ENDBRANCH  14  18
ENDBRANCH   1  14
TORSDOF 5
ENDMDL
MODEL 3
REMARK VINA RESULT:      -7.3      4.980      8.440
REMARK  Name = 
REMARK  6 active torsions:
REMARK  status: ('A' for Active; 'I' for Inactive)
REMARK    1  A    between atoms: C_1  and  O_2
REMARK    2  A    between atoms: O_2  and  C_3
REMARK    3  A    between atoms: C_5  and  C_6
REMARK    4  A    between atoms: C_6  and  N_8
REMARK    5  A    between atoms: N_11  and  C_12
REMARK    6  A    between atoms: C_23  and  O_24
REMARK                            x       y       z     vdW  Elec       q    Type
REMARK                         _______ _______ _______ _____ _____    ______ ____
ROOT
ATOM      1  N   UNL     1       1.332   9.794  19.009  0.00  0.00    +0.000 N 
ATOM      2  C   UNL     1       1.664   8.872  17.914  0.00  0.00    +0.000 C 
ATOM      3  C   UNL     1       2.636   7.782  18.399  0.00  0.00    +0.000 C 
ATOM      4  N   UNL     1       2.050   7.089  19.560  0.00  0.00    +0.000 N 
ATOM      5  C   UNL     1       1.670   7.974  20.682  0.00  0.00    +0.000 C 
ATOM      6  C   UNL     1       0.757   9.111  20.178  0.00  0.00    +0.000 C 
ENDROOT
BRANCH   4   7
ATOM      7  C   UNL     1       2.122   5.716  19.697  0.00  0.00    +0.000 A 
ATOM      8  C   UNL     1       1.919   5.103  20.944  0.00  0.00    +0.000 A 
ATOM      9  C   UNL     1       1.898   3.711  21.094  0.00  0.00    +0.000 A 
ATOM     10  C   UNL     1       2.087   2.891  19.989  0.00  0.00    +0.000 A 
ATOM     11  C   UNL     1       2.309   3.472  18.747  0.00  0.00    +0.000 A 
ATOM     12 CL   UNL     1       2.542   2.468  17.366  0.00  0.00    +0.000 Cl
ATOM     13  C   UNL     1       2.329   4.863  18.603  0.00  0.00    +0.000 A 
ENDBRANCH   4   7
BRANCH   1  14
ATOM     14  C   UNL     1       0.884  11.086  18.722  0.00  0.00    +0.000 C 
ATOM     15  S   UNL     1       1.925  12.412  18.671  0.00  0.00    +0.000 S 
BRANCH  14  18
ATOM     16  C   UNL     1      -2.621  10.454  17.344  0.00  0.00    +0.000 A 
ATOM     17  C   UNL     1      -1.228  10.442  17.519  0.00  0.00    +0.000 A 
ATOM     18  C   UNL     1      -0.603  11.188  18.531  0.00  0.00    +0.000 A 
ATOM     19  C   UNL     1      -1.398  11.968  19.375  0.00  0.00    +0.000 A 
ATOM     20  C   UNL     1      -2.787  11.991  19.213  0.00  0.00    +0.000 A 
ATOM     21  C   UNL     1      -3.395  11.234  18.207  0.00  0.00    +0.000 A 
BRANCH  16  23
ATOM     22  C   UNL     1      -3.143  10.240  15.016  0.00  0.00    +0.000 C 
ATOM     23  O   UNL     1      -3.037   9.657  16.310  0.00  0.00    +0.000 OA
ENDBRANCH  16  23
BRANCH  21  24
ATOM     24  O   UNL     1      -4.758  11.280  18.103  0.00  0.00    +0.000 OA
ATOM     25  H   UNL     1      -5.041  12.199  17.973  0.00  0.00    +0.000 HD
ENDBRANCH  21  24
ENDBRANCH  14  18
ENDBRANCH   1  14
TORSDOF 5
ENDMDL
MODEL 4
REMARK VINA RESULT:      -7.3      1.610      2.700
REMARK  Name = 
REMARK  6 active torsions:
REMARK  status: ('A' for Active; 'I' for Inactive)
REMARK    1  A    between atoms: C_1  and  O_2
REMARK    2  A    between atoms: O_2  and  C_3
REMARK    3  A    between atoms: C_5  and  C_6
REMARK    4  A    between atoms: C_6  and  N_8
REMARK    5  A    between atoms: N_11  and  C_12
REMARK    6  A    between atoms: C_23  and  O_24
REMARK                            x       y       z     vdW  Elec       q    Type
REMARK                         _______ _______ _______ _____ _____    ______ ____
ROOT
ATOM      1  N   UNL     1       3.510   4.941  18.863  0.00  0.00    +0.000 N 
ATOM      2  C   UNL     1       3.734   6.269  18.276  0.00  0.00    +0.000 C 
ATOM      3  C   UNL     1       2.437   7.097  18.294  0.00  0.00    +0.000 C 
ATOM      4  N   UNL     1       1.926   7.171  19.675  0.00  0.00    +0.000 N 
ATOM      5  C   UNL     1       1.709   5.861  20.324  0.00  0.00    +0.000 C 
ATOM      6  C   UNL     1       2.988   5.004  20.237  0.00  0.00    +0.000 C 
ENDROOT
BRANCH   4   7
ATOM      7  C   UNL     1       1.424   8.346  20.200  0.00  0.00    +0.000 A 
ATOM      8  C   UNL     1       1.253   9.482  19.392  0.00  0.00    +0.000 A 
ATOM      9  C   UNL     1       0.663  10.657  19.876  0.00  0.00    +0.000 A 
ATOM     10  C   UNL     1       0.231  10.723  21.195  0.00  0.00    +0.000 A 
ATOM     11  C   UNL     1       0.405   9.620  22.019  0.00  0.00    +0.000 A 
ATOM     12 CL   UNL     1      -0.129   9.687  23.656  0.00  0.00    +0.000 Cl
ATOM     13  C   UNL     1       0.995   8.450  21.532  0.00  0.00    +0.000 A 
ENDBRANCH   4   7
BRANCH   1  14
ATOM     14  C   UNL     1       4.356   3.879  18.533  0.00  0.00    +0.000 C 
ATOM     15  S   UNL     1       4.315   2.404  19.348  0.00  0.00    +0.000 S 
BRANCH  14  18
ATOM     16  C   UNL     1       5.803   4.434  15.042  0.00  0.00    +0.000 A 
ATOM     17  C   UNL     1       4.944   4.085  16.096  0.00  0.00    +0.000 A 
ATOM     18  C   UNL     1       5.336   4.199  17.440  0.00  0.00    +0.000 A 
ATOM     19  C   UNL     1       6.623   4.665  17.723  0.00  0.00    +0.000 A 
ATOM     20  C   UNL     1       7.491   5.016  16.684  0.00  0.00    +0.000 A 
ATOM     21  C   UNL     1       7.081   4.907  15.351  0.00  0.00    +0.000 A 
BRANCH  16  23
ATOM     22  C   UNL     1       5.920   3.446  12.863  0.00  0.00    +0.000 C 
ATOM     23  O   UNL     1       5.234   4.259  13.808  0.00  0.00    +0.000 OA
ENDBRANCH  16  23
BRANCH  21  24
ATOM     24  O   UNL     1       7.963   5.279  14.375  0.00  0.00    +0.000 OA
ATOM     25  H   UNL     1       8.442   6.075  14.659  0.00  0.00    +0.000 HD
ENDBRANCH  21  24
ENDBRANCH  14  18
ENDBRANCH   1  14
TORSDOF 5
ENDMDL
MODEL 5
REMARK VINA RESULT:      -7.3      4.693      8.351
REMARK  Name = 
REMARK  6 active torsions:
REMARK  status: ('A' for Active; 'I' for Inactive)
REMARK    1  A    between atoms: C_1  and  O_2
REMARK    2  A    between atoms: O_2  and  C_3
REMARK    3  A    between atoms: C_5  and  C_6
REMARK    4  A    between atoms: C_6  and  N_8
REMARK    5  A    between atoms: N_11  and  C_12
REMARK    6  A    between atoms: C_23  and  O_24
REMARK                            x       y       z     vdW  Elec       q    Type
REMARK                         _______ _______ _______ _____ _____    ______ ____
ROOT
ATOM      1  N   UNL     1       1.226   9.962  19.006  0.00  0.00    +0.000 N 
ATOM      2  C   UNL     1       1.604   9.170  17.829  0.00  0.00    +0.000 C 
ATOM      3  C   UNL     1       2.651   8.106  18.204  0.00  0.00    +0.000 C 
ATOM      4  N   UNL     1       2.127   7.271  19.299  0.00  0.00    +0.000 N 
ATOM      5  C   UNL     1       1.705   8.022  20.501  0.00  0.00    +0.000 C 
ATOM      6  C   UNL     1       0.712   9.137  20.111  0.00  0.00    +0.000 C 
ENDROOT
BRANCH   4   7
ATOM      7  C   UNL     1       2.291   5.900  19.308  0.00  0.00    +0.000 A 
ATOM      8  C   UNL     1       2.955   5.246  18.257  0.00  0.00    +0.000 A 
ATOM      9  C   UNL     1       3.214   3.870  18.283  0.00  0.00    +0.000 A 
ATOM     10  C   UNL     1       2.806   3.108  19.370  0.00  0.00    +0.000 A 
ATOM     11  C   UNL     1       2.132   3.727  20.414  0.00  0.00    +0.000 A 
ATOM     12 CL   UNL     1       1.622   2.794  21.770  0.00  0.00    +0.000 Cl
ATOM     13  C   UNL     1       1.874   5.100  20.383  0.00  0.00    +0.000 A 
ENDBRANCH   4   7
BRANCH   1  14
ATOM     14  C   UNL     1       0.692  11.243  18.844  0.00  0.00    +0.000 C 
ATOM     15  S   UNL     1       1.623  12.638  19.011  0.00  0.00    +0.000 S 
BRANCH  14  18
ATOM     16  C   UNL     1      -2.689  10.430  17.264  0.00  0.00    +0.000 A 
ATOM     17  C   UNL     1      -1.309  10.501  17.513  0.00  0.00    +0.000 A 
ATOM     18  C   UNL     1      -0.787  11.256  18.576  0.00  0.00    +0.000 A 
ATOM     19  C   UNL     1      -1.674  11.962  19.394  0.00  0.00    +0.000 A 
ATOM     20  C   UNL     1      -3.051  11.902  19.157  0.00  0.00    +0.000 A 
ATOM     21  C   UNL     1      -3.556  11.136  18.102  0.00  0.00    +0.000 A 
BRANCH  16  23
ATOM     22  C   UNL     1      -2.983  10.227  14.895  0.00  0.00    +0.000 C 
ATOM     23  O   UNL     1      -2.998   9.637  16.190  0.00  0.00    +0.000 OA
ENDBRANCH  16  23
BRANCH  21  24
ATOM     24  O   UNL     1      -4.911  11.100  17.925  0.00  0.00    +0.000 OA
ATOM     25  H   UNL     1      -5.138  10.381  17.313  0.00  0.00    +0.000 HD
ENDBRANCH  21  24
ENDBRANCH  14  18
ENDBRANCH   1  14
TORSDOF 5
ENDMDL
MODEL 6
REMARK VINA RESULT:      -7.2      1.264      1.990
REMARK  Name = 
REMARK  6 active torsions:
REMARK  status: ('A' for Active; 'I' for Inactive)
REMARK    1  A    between atoms: C_1  and  O_2
REMARK    2  A    between atoms: O_2  and  C_3
REMARK    3  A    between atoms: C_5  and  C_6
REMARK    4  A    between atoms: C_6  and  N_8
REMARK    5  A    between atoms: N_11  and  C_12
REMARK    6  A    between atoms: C_23  and  O_24
REMARK                            x       y       z     vdW  Elec       q    Type
REMARK                         _______ _______ _______ _____ _____    ______ ____
ROOT
ATOM      1  N   UNL     1       2.498   6.114  19.383  0.00  0.00    +0.000 N 
ATOM      2  C   UNL     1       1.576   6.457  20.475  0.00  0.00    +0.000 C 
ATOM      3  C   UNL     1       1.657   7.959  20.801  0.00  0.00    +0.000 C 
ATOM      4  N   UNL     1       1.395   8.737  19.576  0.00  0.00    +0.000 N 
ATOM      5  C   UNL     1       2.277   8.411  18.436  0.00  0.00    +0.000 C 
ATOM      6  C   UNL     1       2.253   6.894  18.160  0.00  0.00    +0.000 C 
ENDROOT
BRANCH   4   7
ATOM      7  C   UNL     1       0.596   9.865  19.592  0.00  0.00    +0.000 A 
ATOM      8  C   UNL     1      -0.200  10.200  18.485  0.00  0.00    +0.000 A 
ATOM      9  C   UNL     1      -1.085  11.285  18.507  0.00  0.00    +0.000 A 
ATOM     10  C   UNL     1      -1.191  12.071  19.648  0.00  0.00    +0.000 A 
ATOM     11  C   UNL     1      -0.402  11.771  20.750  0.00  0.00    +0.000 A 
ATOM     12 CL   UNL     1      -0.525  12.735  22.173  0.00  0.00    +0.000 Cl
ATOM     13  C   UNL     1       0.481  10.687  20.723  0.00  0.00    +0.000 A 
ENDBRANCH   4   7
BRANCH   1  14
ATOM     14  C   UNL     1       2.953   4.800  19.240  0.00  0.00    +0.000 C 
ATOM     15  S   UNL     1       2.057   3.472  19.765  0.00  0.00    +0.000 S 
BRANCH  14  18
ATOM     16  C   UNL     1       5.745   4.056  16.744  0.00  0.00    +0.000 A 
ATOM     17  C   UNL     1       4.491   4.118  17.371  0.00  0.00    +0.000 A 
ATOM     18  C   UNL     1       4.327   4.693  18.642  0.00  0.00    +0.000 A 
ATOM     19  C   UNL     1       5.452   5.203  19.295  0.00  0.00    +0.000 A 
ATOM     20  C   UNL     1       6.709   5.147  18.683  0.00  0.00    +0.000 A 
ATOM     21  C   UNL     1       6.853   4.581  17.413  0.00  0.00    +0.000 A 
BRANCH  16  23
ATOM     22  C   UNL     1       5.690   4.312  14.362  0.00  0.00    +0.000 C 
ATOM     23  O   UNL     1       5.696   3.467  15.507  0.00  0.00    +0.000 OA
ENDBRANCH  16  23
BRANCH  21  24
ATOM     24  O   UNL     1       8.101   4.567  16.854  0.00  0.00    +0.000 OA
ATOM     25  H   UNL     1       8.725   5.017  17.446  0.00  0.00    +0.000 HD
ENDBRANCH  21  24
ENDBRANCH  14  18
ENDBRANCH   1  14
TORSDOF 5
ENDMDL
MODEL 7
REMARK VINA RESULT:      -7.2      1.247      1.782
REMARK  Name = 
REMARK  6 active torsions:
REMARK  status: ('A' for Active; 'I' for Inactive)
REMARK    1  A    between atoms: C_1  and  O_2
REMARK    2  A    between atoms: O_2  and  C_3
REMARK    3  A    between atoms: C_5  and  C_6
REMARK    4  A    between atoms: C_6  and  N_8
REMARK    5  A    between atoms: N_11  and  C_12
REMARK    6  A    between atoms: C_23  and  O_24
REMARK                            x       y       z     vdW  Elec       q    Type
REMARK                         _______ _______ _______ _____ _____    ______ ____
ROOT
ATOM      1  N   UNL     1       3.507   5.165  18.809  0.00  0.00    +0.000 N 
ATOM      2  C   UNL     1       3.634   6.493  18.194  0.00  0.00    +0.000 C 
ATOM      3  C   UNL     1       2.301   7.257  18.272  0.00  0.00    +0.000 C 
ATOM      4  N   UNL     1       1.862   7.327  19.678  0.00  0.00    +0.000 N 
ATOM      5  C   UNL     1       1.743   6.018  20.354  0.00  0.00    +0.000 C 
ATOM      6  C   UNL     1       3.057   5.222  20.208  0.00  0.00    +0.000 C 
ENDROOT
BRANCH   4   7
ATOM      7  C   UNL     1       1.332   8.485  20.214  0.00  0.00    +0.000 A 
ATOM      8  C   UNL     1       1.116   9.619  19.414  0.00  0.00    +0.000 A 
ATOM      9  C   UNL     1       0.498  10.773  19.911  0.00  0.00    +0.000 A 
ATOM     10  C   UNL     1       0.081  10.821  21.235  0.00  0.00    +0.000 A 
ATOM     11  C   UNL     1       0.298   9.720  22.052  0.00  0.00    +0.000 A 
ATOM     12 CL   UNL     1      -0.216   9.764  23.696  0.00  0.00    +0.000 Cl
ATOM     13  C   UNL     1       0.917   8.570  21.552  0.00  0.00    +0.000 A 
ENDBRANCH   4   7
BRANCH   1  14
ATOM     14  C   UNL     1       4.385   4.140  18.446  0.00  0.00    +0.000 C 
ATOM     15  S   UNL     1       4.507   2.704  19.321  0.00  0.00    +0.000 S 
BRANCH  14  18
ATOM     16  C   UNL     1       7.067   5.790  16.286  0.00  0.00    +0.000 A 
ATOM     17  C   UNL     1       6.199   5.492  17.348  0.00  0.00    +0.000 A 
ATOM     18  C   UNL     1       5.244   4.466  17.257  0.00  0.00    +0.000 A 
ATOM     19  C   UNL     1       5.157   3.736  16.069  0.00  0.00    +0.000 A 
ATOM     20  C   UNL     1       6.015   4.021  15.002  0.00  0.00    +0.000 A 
ATOM     21  C   UNL     1       6.968   5.039  15.112  0.00  0.00    +0.000 A 
BRANCH  16  23
ATOM     22  C   UNL     1       7.578   7.714  17.619  0.00  0.00    +0.000 C 
ATOM     23  O   UNL     1       7.929   6.816  16.572  0.00  0.00    +0.000 OA
ENDBRANCH  16  23
BRANCH  21  24
ATOM     24  O   UNL     1       7.793   5.265  14.045  0.00  0.00    +0.000 OA
ATOM     25  H   UNL     1       7.258   5.486  13.265  0.00  0.00    +0.000 HD
ENDBRANCH  21  24
ENDBRANCH  14  18
ENDBRANCH   1  14
TORSDOF 5
ENDMDL
MODEL 8
REMARK VINA RESULT:      -7.2      1.900      2.572
REMARK  Name = 
REMARK  6 active torsions:
REMARK  status: ('A' for Active; 'I' for Inactive)
REMARK    1  A    between atoms: C_1  and  O_2
REMARK    2  A    between atoms: O_2  and  C_3
REMARK    3  A    between atoms: C_5  and  C_6
REMARK    4  A    between atoms: C_6  and  N_8
REMARK    5  A    between atoms: N_11  and  C_12
REMARK    6  A    between atoms: C_23  and  O_24
REMARK                            x       y       z     vdW  Elec       q    Type
REMARK                         _______ _______ _______ _____ _____    ______ ____
ROOT
ATOM      1  N   UNL     1       2.637   6.490  19.433  0.00  0.00    +0.000 N 
ATOM      2  C   UNL     1       1.663   6.982  20.416  0.00  0.00    +0.000 C 
ATOM      3  C   UNL     1       1.681   8.520  20.474  0.00  0.00    +0.000 C 
ATOM      4  N   UNL     1       1.440   9.061  19.124  0.00  0.00    +0.000 N 
ATOM      5  C   UNL     1       2.376   8.575  18.088  0.00  0.00    +0.000 C 
ATOM      6  C   UNL     1       2.413   7.033  18.084  0.00  0.00    +0.000 C 
ENDROOT
BRANCH   4   7
ATOM      7  C   UNL     1       0.605  10.141  18.914  0.00  0.00    +0.000 A 
ATOM      8  C   UNL     1       0.981  11.433  19.315  0.00  0.00    +0.000 A 
ATOM      9  C   UNL     1       0.195  12.558  19.035  0.00  0.00    +0.000 A 
ATOM     10  C   UNL     1      -1.002  12.412  18.344  0.00  0.00    +0.000 A 
ATOM     11  C   UNL     1      -1.405  11.143  17.952  0.00  0.00    +0.000 A 
ATOM     12 CL   UNL     1      -2.886  10.948  17.092  0.00  0.00    +0.000 Cl
ATOM     13  C   UNL     1      -0.617  10.024  18.235  0.00  0.00    +0.000 A 
ENDBRANCH   4   7
BRANCH   1  14
ATOM     14  C   UNL     1       3.140   5.190  19.538  0.00  0.00    +0.000 C 
ATOM     15  S   UNL     1       2.374   3.996  20.449  0.00  0.00    +0.000 S 
BRANCH  14  18
ATOM     16  C   UNL     1       5.651   4.199  16.837  0.00  0.00    +0.000 A 
ATOM     17  C   UNL     1       4.464   4.356  17.570  0.00  0.00    +0.000 A 
ATOM     18  C   UNL     1       4.447   4.984  18.826  0.00  0.00    +0.000 A 
ATOM     19  C   UNL     1       5.653   5.451  19.356  0.00  0.00    +0.000 A 
ATOM     20  C   UNL     1       6.844   5.301  18.639  0.00  0.00    +0.000 A 
ATOM     21  C   UNL     1       6.842   4.684  17.385  0.00  0.00    +0.000 A 
BRANCH  16  23
ATOM     22  C   UNL     1       5.636   4.331  14.445  0.00  0.00    +0.000 C 
ATOM     23  O   UNL     1       5.459   3.570  15.635  0.00  0.00    +0.000 OA
ENDBRANCH  16  23
BRANCH  21  24
ATOM     24  O   UNL     1       8.032   4.577  16.719  0.00  0.00    +0.000 OA
ATOM     25  H   UNL     1       8.623   5.295  16.998  0.00  0.00    +0.000 HD
ENDBRANCH  21  24
ENDBRANCH  14  18
ENDBRANCH   1  14
TORSDOF 5
ENDMDL
MODEL 9
REMARK VINA RESULT:      -7.2      1.253      1.730
REMARK  Name = 
REMARK  6 active torsions:
REMARK  status: ('A' for Active; 'I' for Inactive)
REMARK    1  A    between atoms: C_1  and  O_2
REMARK    2  A    between atoms: O_2  and  C_3
REMARK    3  A    between atoms: C_5  and  C_6
REMARK    4  A    between atoms: C_6  and  N_8
REMARK    5  A    between atoms: N_11  and  C_12
REMARK    6  A    between atoms: C_23  and  O_24
REMARK                            x       y       z     vdW  Elec       q    Type
REMARK                         _______ _______ _______ _____ _____    ______ ____
ROOT
ATOM      1  N   UNL     1       2.826   5.468  18.650  0.00  0.00    +0.000 N 
ATOM      2  C   UNL     1       2.039   5.261  19.872  0.00  0.00    +0.000 C 
ATOM      3  C   UNL     1       2.150   6.482  20.803  0.00  0.00    +0.000 C 
ATOM      4  N   UNL     1       1.741   7.693  20.068  0.00  0.00    +0.000 N 
ATOM      5  C   UNL     1       2.484   7.934  18.813  0.00  0.00    +0.000 C 
ATOM      6  C   UNL     1       2.434   6.681  17.915  0.00  0.00    +0.000 C 
ENDROOT
BRANCH   4   7
ATOM      7  C   UNL     1       0.945   8.659  20.651  0.00  0.00    +0.000 A 
ATOM      8  C   UNL     1       0.660   8.628  22.025  0.00  0.00    +0.000 A 
ATOM      9  C   UNL     1      -0.069   9.643  22.658  0.00  0.00    +0.000 A 
ATOM     10  C   UNL     1      -0.539  10.722  21.920  0.00  0.00    +0.000 A 
ATOM     11  C   UNL     1      -0.286  10.768  20.555  0.00  0.00    +0.000 A 
ATOM     12 CL   UNL     1      -0.861  12.102  19.628  0.00  0.00    +0.000 Cl
ATOM     13  C   UNL     1       0.441   9.752  19.929  0.00  0.00    +0.000 A 
ENDBRANCH   4   7
BRANCH   1  14
ATOM     14  C   UNL     1       3.267   4.369  17.908  0.00  0.00    +0.000 C 
ATOM     15  S   UNL     1       2.563   2.844  18.049  0.00  0.00    +0.000 S 
BRANCH  14  18
ATOM     16  C   UNL     1       6.782   5.415  16.843  0.00  0.00    +0.000 A 
ATOM     17  C   UNL     1       5.626   5.188  17.606  0.00  0.00    +0.000 A 
ATOM     18  C   UNL     1       4.456   4.660  17.036  0.00  0.00    +0.000 A 
ATOM     19  C   UNL     1       4.450   4.368  15.669  0.00  0.00    +0.000 A 
ATOM     20  C   UNL     1       5.594   4.590  14.896  0.00  0.00    +0.000 A 
ATOM     21  C   UNL     1       6.755   5.106  15.480  0.00  0.00    +0.000 A 
BRANCH  16  23
ATOM     22  C   UNL     1       7.671   5.978  18.996  0.00  0.00    +0.000 C 
ATOM     23  O   UNL     1       7.818   5.925  17.581  0.00  0.00    +0.000 OA
ENDBRANCH  16  23
BRANCH  21  24
ATOM     24  O   UNL     1       7.850   5.288  14.682  0.00  0.00    +0.000 OA
ATOM     25  H   UNL     1       7.890   4.578  14.021  0.00  0.00    +0.000 HD
ENDBRANCH  21  24
ENDBRANCH  14  18
ENDBRANCH   1  14
TORSDOF 5
ENDMDL
