MODEL 1
REMARK VINA RESULT:      -7.1      0.000      0.000
REMARK  Name = 
REMARK  7 active torsions:
REMARK  status: ('A' for Active; 'I' for Inactive)
REMARK    1  A    between atoms: O_1  and  C_2
REMARK    2  A    between atoms: C_2  and  C_3
REMARK    3  A    between atoms: C_5  and  O_6
REMARK    4  A    between atoms: O_6  and  C_7
REMARK    5  A    between atoms: C_16  and  O_17
REMARK    6  A    between atoms: C_18  and  O_19
REMARK    7  A    between atoms: C_20  and  O_21
REMARK                            x       y       z     vdW  Elec       q    Type
REMARK                         _______ _______ _______ _____ _____    ______ ____
ROOT
ATOM      1  C   UNL     1       2.067   3.214  18.238  0.00  0.00    +0.000 C 
ATOM      2  O   UNL     1       2.530   4.553  18.103  0.00  0.00    +0.000 OA
ATOM      3  C   UNL     1       3.926   4.740  17.889  0.00  0.00    +0.000 C 
ATOM      4  C   UNL     1       4.844   3.915  18.825  0.00  0.00    +0.000 C 
ATOM      5  C   UNL     1       4.345   2.474  18.950  0.00  0.00    +0.000 C 
ATOM      6  C   UNL     1       2.852   2.434  19.297  0.00  0.00    +0.000 C 
ENDROOT
BRANCH   4   7
ATOM      7  O   UNL     1       6.209   3.918  18.368  0.00  0.00    +0.000 OA
ATOM      8  H   UNL     1       6.221   3.890  17.396  0.00  0.00    +0.000 HD
ENDBRANCH   4   7
BRANCH   5   9
ATOM      9  O   UNL     1       5.091   1.744  19.934  0.00  0.00    +0.000 OA
ATOM     10  H   UNL     1       4.898   0.795  19.826  0.00  0.00    +0.000 HD
ENDBRANCH   5   9
BRANCH   6  11
ATOM     11  O   UNL     1       2.367   1.087  19.338  0.00  0.00    +0.000 OA
ATOM     12  H   UNL     1       3.054   0.520  19.731  0.00  0.00    +0.000 HD
ENDBRANCH   6  11
BRANCH   1  13
ATOM     13  C   UNL     1       0.576   3.301  18.603  0.00  0.00    +0.000 C 
BRANCH  13  14
ATOM     14  O   UNL     1       0.408   3.187  20.021  0.00  0.00    +0.000 OA
ATOM     15  H   UNL     1       0.867   3.950  20.414  0.00  0.00    +0.000 HD
ENDBRANCH  13  14
ENDBRANCH   1  13
BRANCH   3  16
ATOM     16  O   UNL     1       4.270   6.137  17.997  0.00  0.00    +0.000 OA
BRANCH  16  17
ATOM     17  C   UNL     1       3.340   6.968  18.496  0.00  0.00    +0.000 A 
ATOM     18  C   UNL     1       2.720   8.043  17.896  0.00  0.00    +0.000 A 
ATOM     19  C   UNL     1       1.791   8.603  18.820  0.00  0.00    +0.000 A 
ATOM     20  C   UNL     1       0.884   9.676  18.782  0.00  0.00    +0.000 A 
ATOM     21  C   UNL     1       0.085   9.938  19.904  0.00  0.00    +0.000 A 
ATOM     22  C   UNL     1       0.199   9.165  21.057  0.00  0.00    +0.000 A 
ATOM     23  C   UNL     1       1.099   8.101  21.121  0.00  0.00    +0.000 A 
ATOM     24  C   UNL     1       1.868   7.841  19.983  0.00  0.00    +0.000 A 
ATOM     25  N   UNL     1       2.781   6.842  19.746  0.00  0.00    +0.000 N 
ATOM     26  H   UNL     1       3.000   6.097  20.397  0.00  0.00    +0.000 HD
ENDBRANCH  16  17
ENDBRANCH   3  16
TORSDOF 7
ENDMDL
MODEL 2
REMARK VINA RESULT:      -7.0      3.661      6.162
REMARK  Name = 
REMARK  7 active torsions:
REMARK  status: ('A' for Active; 'I' for Inactive)
REMARK    1  A    between atoms: O_1  and  C_2
REMARK    2  A    between atoms: C_2  and  C_3
REMARK    3  A    between atoms: C_5  and  O_6
REMARK    4  A    between atoms: O_6  and  C_7
REMARK    5  A    between atoms: C_16  and  O_17
REMARK    6  A    between atoms: C_18  and  O_19
REMARK    7  A    between atoms: C_20  and  O_21
REMARK                            x       y       z     vdW  Elec       q    Type
REMARK                         _______ _______ _______ _____ _____    ______ ____
ROOT
ATOM      1  C   UNL     1       2.646   5.452  19.019  0.00  0.00    +0.000 C 
ATOM      2  O   UNL     1       3.956   5.413  18.464  0.00  0.00    +0.000 OA
ATOM      3  C   UNL     1       4.580   4.136  18.359  0.00  0.00    +0.000 C 
ATOM      4  C   UNL     1       4.476   3.254  19.628  0.00  0.00    +0.000 C 
ATOM      5  C   UNL     1       3.060   3.292  20.206  0.00  0.00    +0.000 C 
ATOM      6  C   UNL     1       2.568   4.736  20.371  0.00  0.00    +0.000 C 
ENDROOT
BRANCH   4   7
ATOM      7  O   UNL     1       4.854   1.892  19.360  0.00  0.00    +0.000 OA
ATOM      8  H   UNL     1       5.823   1.834  19.299  0.00  0.00    +0.000 HD
ENDBRANCH   4   7
BRANCH   5   9
ATOM      9  O   UNL     1       2.990   2.610  21.466  0.00  0.00    +0.000 OA
ATOM     10  H   UNL     1       2.268   3.003  21.990  0.00  0.00    +0.000 HD
ENDBRANCH   5   9
BRANCH   6  11
ATOM     11  O   UNL     1       1.215   4.771  20.839  0.00  0.00    +0.000 OA
ATOM     12  H   UNL     1       1.190   4.414  21.745  0.00  0.00    +0.000 HD
ENDBRANCH   6  11
BRANCH   1  13
ATOM     13  C   UNL     1       2.272   6.937  19.155  0.00  0.00    +0.000 C 
BRANCH  13  14
ATOM     14  O   UNL     1       2.289   7.326  20.534  0.00  0.00    +0.000 OA
ATOM     15  H   UNL     1       2.772   6.627  21.010  0.00  0.00    +0.000 HD
ENDBRANCH  13  14
ENDBRANCH   1  13
BRANCH   3  16
ATOM     16  O   UNL     1       5.968   4.282  17.994  0.00  0.00    +0.000 OA
BRANCH  16  17
ATOM     17  C   UNL     1       6.260   4.369  16.686  0.00  0.00    +0.000 A 
ATOM     18  C   UNL     1       7.148   5.206  16.046  0.00  0.00    +0.000 A 
ATOM     19  C   UNL     1       7.123   4.910  14.652  0.00  0.00    +0.000 A 
ATOM     20  C   UNL     1       7.798   5.409  13.523  0.00  0.00    +0.000 A 
ATOM     21  C   UNL     1       7.533   4.851  12.265  0.00  0.00    +0.000 A 
ATOM     22  C   UNL     1       6.595   3.831  12.120  0.00  0.00    +0.000 A 
ATOM     23  C   UNL     1       5.907   3.327  13.224  0.00  0.00    +0.000 A 
ATOM     24  C   UNL     1       6.205   3.880  14.473  0.00  0.00    +0.000 A 
ATOM     25  N   UNL     1       5.729   3.549  15.719  0.00  0.00    +0.000 N 
ATOM     26  H   UNL     1       5.086   2.789  15.906  0.00  0.00    +0.000 HD
ENDBRANCH  16  17
ENDBRANCH   3  16
TORSDOF 7
ENDMDL
MODEL 3
REMARK VINA RESULT:      -6.9      3.735      6.273
REMARK  Name = 
REMARK  7 active torsions:
REMARK  status: ('A' for Active; 'I' for Inactive)
REMARK    1  A    between atoms: O_1  and  C_2
REMARK    2  A    between atoms: C_2  and  C_3
REMARK    3  A    between atoms: C_5  and  O_6
REMARK    4  A    between atoms: O_6  and  C_7
REMARK    5  A    between atoms: C_16  and  O_17
REMARK    6  A    between atoms: C_18  and  O_19
REMARK    7  A    between atoms: C_20  and  O_21
REMARK                            x       y       z     vdW  Elec       q    Type
REMARK                         _______ _______ _______ _____ _____    ______ ____
ROOT
ATOM      1  C   UNL     1       2.580   5.817  19.014  0.00  0.00    +0.000 C 
ATOM      2  O   UNL     1       3.866   5.805  18.403  0.00  0.00    +0.000 OA
ATOM      3  C   UNL     1       4.456   4.532  18.156  0.00  0.00    +0.000 C 
ATOM      4  C   UNL     1       4.384   3.539  19.343  0.00  0.00    +0.000 C 
ATOM      5  C   UNL     1       2.993   3.550  19.981  0.00  0.00    +0.000 C 
ATOM      6  C   UNL     1       2.541   4.981  20.297  0.00  0.00    +0.000 C 
ENDROOT
BRANCH   4   7
ATOM      7  O   UNL     1       4.721   2.200  18.937  0.00  0.00    +0.000 OA
ATOM      8  H   UNL     1       3.933   1.772  18.561  0.00  0.00    +0.000 HD
ENDBRANCH   4   7
BRANCH   5   9
ATOM      9  O   UNL     1       2.959   2.756  21.176  0.00  0.00    +0.000 OA
ATOM     10  H   UNL     1       2.446   1.948  20.994  0.00  0.00    +0.000 HD
ENDBRANCH   5   9
BRANCH   6  11
ATOM     11  O   UNL     1       1.208   4.997  20.823  0.00  0.00    +0.000 OA
ATOM     12  H   UNL     1       0.985   5.911  21.074  0.00  0.00    +0.000 HD
ENDBRANCH   6  11
BRANCH   1  13
ATOM     13  C   UNL     1       2.244   7.290  19.300  0.00  0.00    +0.000 C 
BRANCH  13  14
ATOM     14  O   UNL     1       2.235   7.528  20.713  0.00  0.00    +0.000 OA
ATOM     15  H   UNL     1       3.041   7.112  21.066  0.00  0.00    +0.000 HD
ENDBRANCH  13  14
ENDBRANCH   1  13
BRANCH   3  16
ATOM     16  O   UNL     1       5.831   4.685  17.748  0.00  0.00    +0.000 OA
BRANCH  16  17
ATOM     17  C   UNL     1       6.109   4.558  16.440  0.00  0.00    +0.000 A 
ATOM     18  C   UNL     1       5.542   3.715  15.508  0.00  0.00    +0.000 A 
ATOM     19  C   UNL     1       6.156   3.960  14.245  0.00  0.00    +0.000 A 
ATOM     20  C   UNL     1       5.997   3.435  12.950  0.00  0.00    +0.000 A 
ATOM     21  C   UNL     1       6.782   3.942  11.905  0.00  0.00    +0.000 A 
ATOM     22  C   UNL     1       7.728   4.936  12.141  0.00  0.00    +0.000 A 
ATOM     23  C   UNL     1       7.909   5.466  13.418  0.00  0.00    +0.000 A 
ATOM     24  C   UNL     1       7.099   4.964  14.442  0.00  0.00    +0.000 A 
ATOM     25  N   UNL     1       7.023   5.331  15.764  0.00  0.00    +0.000 N 
ATOM     26  H   UNL     1       7.554   6.084  16.184  0.00  0.00    +0.000 HD
ENDBRANCH  16  17
ENDBRANCH   3  16
TORSDOF 7
ENDMDL
MODEL 4
REMARK VINA RESULT:      -6.9      2.240      4.125
REMARK  Name = 
REMARK  7 active torsions:
REMARK  status: ('A' for Active; 'I' for Inactive)
REMARK    1  A    between atoms: O_1  and  C_2
REMARK    2  A    between atoms: C_2  and  C_3
REMARK    3  A    between atoms: C_5  and  O_6
REMARK    4  A    between atoms: O_6  and  C_7
REMARK    5  A    between atoms: C_16  and  O_17
REMARK    6  A    between atoms: C_18  and  O_19
REMARK    7  A    between atoms: C_20  and  O_21
REMARK                            x       y       z     vdW  Elec       q    Type
REMARK                         _______ _______ _______ _____ _____    ______ ____
ROOT
ATOM      1  C   UNL     1       7.084   5.704  17.835  0.00  0.00    +0.000 C 
ATOM      2  O   UNL     1       6.014   5.652  18.773  0.00  0.00    +0.000 OA
ATOM      3  C   UNL     1       5.170   4.505  18.733  0.00  0.00    +0.000 C 
ATOM      4  C   UNL     1       4.702   4.091  17.316  0.00  0.00    +0.000 C 
ATOM      5  C   UNL     1       5.863   4.135  16.321  0.00  0.00    +0.000 C 
ATOM      6  C   UNL     1       6.606   5.475  16.398  0.00  0.00    +0.000 C 
ENDROOT
BRANCH   4   7
ATOM      7  O   UNL     1       4.112   2.778  17.314  0.00  0.00    +0.000 OA
ATOM      8  H   UNL     1       4.610   2.203  17.921  0.00  0.00    +0.000 HD
ENDBRANCH   4   7
BRANCH   5   9
ATOM      9  O   UNL     1       5.412   3.909  14.978  0.00  0.00    +0.000 OA
ATOM     10  H   UNL     1       5.940   3.185  14.593  0.00  0.00    +0.000 HD
ENDBRANCH   5   9
BRANCH   6  11
ATOM     11  O   UNL     1       7.740   5.488  15.522  0.00  0.00    +0.000 OA
ATOM     12  H   UNL     1       7.499   5.965  14.708  0.00  0.00    +0.000 HD
ENDBRANCH   6  11
BRANCH   1  13
ATOM     13  C   UNL     1       7.736   7.088  17.990  0.00  0.00    +0.000 C 
BRANCH  13  14
ATOM     14  O   UNL     1       7.362   7.935  16.896  0.00  0.00    +0.000 OA
ATOM     15  H   UNL     1       7.067   8.776  17.288  0.00  0.00    +0.000 HD
ENDBRANCH  13  14
ENDBRANCH   1  13
BRANCH   3  16
ATOM     16  O   UNL     1       4.016   4.700  19.576  0.00  0.00    +0.000 OA
BRANCH  16  17
ATOM     17  C   UNL     1       3.323   5.840  19.425  0.00  0.00    +0.000 A 
ATOM     18  C   UNL     1       3.125   6.595  18.289  0.00  0.00    +0.000 A 
ATOM     19  C   UNL     1       2.302   7.710  18.625  0.00  0.00    +0.000 A 
ATOM     20  C   UNL     1       1.765   8.794  17.908  0.00  0.00    +0.000 A 
ATOM     21  C   UNL     1       0.954   9.722  18.576  0.00  0.00    +0.000 A 
ATOM     22  C   UNL     1       0.698   9.595  19.939  0.00  0.00    +0.000 A 
ATOM     23  C   UNL     1       1.228   8.534  20.672  0.00  0.00    +0.000 A 
ATOM     24  C   UNL     1       2.013   7.605  19.982  0.00  0.00    +0.000 A 
ATOM     25  N   UNL     1       2.610   6.451  20.430  0.00  0.00    +0.000 N 
ATOM     26  H   UNL     1       2.521   6.085  21.370  0.00  0.00    +0.000 HD
ENDBRANCH  16  17
ENDBRANCH   3  16
TORSDOF 7
ENDMDL
MODEL 5
REMARK VINA RESULT:      -6.8      1.906      3.857
REMARK  Name = 
REMARK  7 active torsions:
REMARK  status: ('A' for Active; 'I' for Inactive)
REMARK    1  A    between atoms: O_1  and  C_2
REMARK    2  A    between atoms: C_2  and  C_3
REMARK    3  A    between atoms: C_5  and  O_6
REMARK    4  A    between atoms: O_6  and  C_7
REMARK    5  A    between atoms: C_16  and  O_17
REMARK    6  A    between atoms: C_18  and  O_19
REMARK    7  A    between atoms: C_20  and  O_21
REMARK                            x       y       z     vdW  Elec       q    Type
REMARK                         _______ _______ _______ _____ _____    ______ ____
ROOT
ATOM      1  C   UNL     1       6.785   4.785  18.523  0.00  0.00    +0.000 C 
ATOM      2  O   UNL     1       5.612   4.931  19.316  0.00  0.00    +0.000 OA
ATOM      3  C   UNL     1       4.466   4.179  18.927  0.00  0.00    +0.000 C 
ATOM      4  C   UNL     1       4.137   4.230  17.414  0.00  0.00    +0.000 C 
ATOM      5  C   UNL     1       5.403   4.056  16.572  0.00  0.00    +0.000 C 
ATOM      6  C   UNL     1       6.509   5.013  17.034  0.00  0.00    +0.000 C 
ENDROOT
BRANCH   4   7
ATOM      7  O   UNL     1       3.170   3.230  17.047  0.00  0.00    +0.000 OA
ATOM      8  H   UNL     1       3.375   2.400  17.511  0.00  0.00    +0.000 HD
ENDBRANCH   4   7
BRANCH   5   9
ATOM      9  O   UNL     1       5.137   4.260  15.177  0.00  0.00    +0.000 OA
ATOM     10  H   UNL     1       5.985   4.247  14.697  0.00  0.00    +0.000 HD
ENDBRANCH   5   9
BRANCH   6  11
ATOM     11  O   UNL     1       7.719   4.798  16.298  0.00  0.00    +0.000 OA
ATOM     12  H   UNL     1       8.347   4.316  16.865  0.00  0.00    +0.000 HD
ENDBRANCH   6  11
BRANCH   1  13
ATOM     13  C   UNL     1       7.807   5.800  19.062  0.00  0.00    +0.000 C 
BRANCH  13  14
ATOM     14  O   UNL     1       8.042   5.570  20.456  0.00  0.00    +0.000 OA
ATOM     15  H   UNL     1       8.828   4.998  20.511  0.00  0.00    +0.000 HD
ENDBRANCH  13  14
ENDBRANCH   1  13
BRANCH   3  16
ATOM     16  O   UNL     1       3.309   4.598  19.679  0.00  0.00    +0.000 OA
BRANCH  16  17
ATOM     17  C   UNL     1       2.853   5.845  19.472  0.00  0.00    +0.000 A 
ATOM     18  C   UNL     1       2.908   6.614  18.329  0.00  0.00    +0.000 A 
ATOM     19  C   UNL     1       2.273   7.862  18.593  0.00  0.00    +0.000 A 
ATOM     20  C   UNL     1       2.015   9.020  17.838  0.00  0.00    +0.000 A 
ATOM     21  C   UNL     1       1.326  10.085  18.432  0.00  0.00    +0.000 A 
ATOM     22  C   UNL     1       0.918  10.019  19.762  0.00  0.00    +0.000 A 
ATOM     23  C   UNL     1       1.171   8.885  20.534  0.00  0.00    +0.000 A 
ATOM     24  C   UNL     1       1.838   7.822  19.915  0.00  0.00    +0.000 A 
ATOM     25  N   UNL     1       2.168   6.583  20.407  0.00  0.00    +0.000 N 
ATOM     26  H   UNL     1       1.922   6.247  21.331  0.00  0.00    +0.000 HD
ENDBRANCH  16  17
ENDBRANCH   3  16
TORSDOF 7
ENDMDL
MODEL 6
REMARK VINA RESULT:      -6.8      1.248      1.929
REMARK  Name = 
REMARK  7 active torsions:
REMARK  status: ('A' for Active; 'I' for Inactive)
REMARK    1  A    between atoms: O_1  and  C_2
REMARK    2  A    between atoms: C_2  and  C_3
REMARK    3  A    between atoms: C_5  and  O_6
REMARK    4  A    between atoms: O_6  and  C_7
REMARK    5  A    between atoms: C_16  and  O_17
REMARK    6  A    between atoms: C_18  and  O_19
REMARK    7  A    between atoms: C_20  and  O_21
REMARK                            x       y       z     vdW  Elec       q    Type
REMARK                         _______ _______ _______ _____ _____    ______ ____
ROOT
ATOM      1  C   UNL     1       3.696   3.719  17.950  0.00  0.00    +0.000 C 
ATOM      2  O   UNL     1       3.273   4.980  17.444  0.00  0.00    +0.000 OA
ATOM      3  C   UNL     1       4.289   5.925  17.121  0.00  0.00    +0.000 C 
ATOM      4  C   UNL     1       5.393   6.087  18.196  0.00  0.00    +0.000 C 
ATOM      5  C   UNL     1       5.851   4.724  18.720  0.00  0.00    +0.000 C 
ATOM      6  C   UNL     1       4.653   3.862  19.138  0.00  0.00    +0.000 C 
ENDROOT
BRANCH   4   7
ATOM      7  O   UNL     1       6.526   6.816  17.687  0.00  0.00    +0.000 OA
ATOM      8  H   UNL     1       6.850   7.423  18.374  0.00  0.00    +0.000 HD
ENDBRANCH   4   7
BRANCH   5   9
ATOM      9  O   UNL     1       6.755   4.865  19.825  0.00  0.00    +0.000 OA
ATOM     10  H   UNL     1       7.546   4.323  19.646  0.00  0.00    +0.000 HD
ENDBRANCH   5   9
BRANCH   6  11
ATOM     11  O   UNL     1       5.075   2.559  19.557  0.00  0.00    +0.000 OA
ATOM     12  H   UNL     1       4.286   2.033  19.779  0.00  0.00    +0.000 HD
ENDBRANCH   6  11
BRANCH   1  13
ATOM     13  C   UNL     1       2.421   2.958  18.352  0.00  0.00    +0.000 C 
BRANCH  13  14
ATOM     14  O   UNL     1       2.655   1.545  18.308  0.00  0.00    +0.000 OA
ATOM     15  H   UNL     1       2.410   1.199  19.185  0.00  0.00    +0.000 HD
ENDBRANCH  13  14
ENDBRANCH   1  13
BRANCH   3  16
ATOM     16  O   UNL     1       3.707   7.214  16.840  0.00  0.00    +0.000 OA
BRANCH  16  17
ATOM     17  C   UNL     1       2.916   7.756  17.780  0.00  0.00    +0.000 A 
ATOM     18  C   UNL     1       2.168   8.913  17.729  0.00  0.00    +0.000 A 
ATOM     19  C   UNL     1       1.478   9.060  18.967  0.00  0.00    +0.000 A 
ATOM     20  C   UNL     1       0.582  10.009  19.492  0.00  0.00    +0.000 A 
ATOM     21  C   UNL     1       0.066   9.821  20.782  0.00  0.00    +0.000 A 
ATOM     22  C   UNL     1       0.449   8.726  21.552  0.00  0.00    +0.000 A 
ATOM     23  C   UNL     1       1.343   7.778  21.055  0.00  0.00    +0.000 A 
ATOM     24  C   UNL     1       1.827   7.969  19.757  0.00  0.00    +0.000 A 
ATOM     25  N   UNL     1       2.664   7.182  19.004  0.00  0.00    +0.000 N 
ATOM     26  H   UNL     1       3.033   6.286  19.301  0.00  0.00    +0.000 HD
ENDBRANCH  16  17
ENDBRANCH   3  16
TORSDOF 7
ENDMDL
MODEL 7
REMARK VINA RESULT:      -6.8      2.295      4.310
REMARK  Name = 
REMARK  7 active torsions:
REMARK  status: ('A' for Active; 'I' for Inactive)
REMARK    1  A    between atoms: O_1  and  C_2
REMARK    2  A    between atoms: C_2  and  C_3
REMARK    3  A    between atoms: C_5  and  O_6
REMARK    4  A    between atoms: O_6  and  C_7
REMARK    5  A    between atoms: C_16  and  O_17
REMARK    6  A    between atoms: C_18  and  O_19
REMARK    7  A    between atoms: C_20  and  O_21
REMARK                            x       y       z     vdW  Elec       q    Type
REMARK                         _______ _______ _______ _____ _____    ______ ____
ROOT
ATOM      1  C   UNL     1       7.067   5.629  17.830  0.00  0.00    +0.000 C 
ATOM      2  O   UNL     1       6.008   5.521  18.775  0.00  0.00    +0.000 OA
ATOM      3  C   UNL     1       5.180   4.364  18.694  0.00  0.00    +0.000 C 
ATOM      4  C   UNL     1       4.703   4.003  17.265  0.00  0.00    +0.000 C 
ATOM      5  C   UNL     1       5.853   4.108  16.262  0.00  0.00    +0.000 C 
ATOM      6  C   UNL     1       6.577   5.454  16.389  0.00  0.00    +0.000 C 
ENDROOT
BRANCH   4   7
ATOM      7  O   UNL     1       4.133   2.683  17.213  0.00  0.00    +0.000 OA
ATOM      8  H   UNL     1       3.346   2.696  16.642  0.00  0.00    +0.000 HD
ENDBRANCH   4   7
BRANCH   5   9
ATOM      9  O   UNL     1       5.391   3.932  14.915  0.00  0.00    +0.000 OA
ATOM     10  H   UNL     1       4.634   4.529  14.769  0.00  0.00    +0.000 HD
ENDBRANCH   5   9
BRANCH   6  11
ATOM     11  O   UNL     1       7.702   5.522  15.504  0.00  0.00    +0.000 OA
ATOM     12  H   UNL     1       8.021   4.618  15.338  0.00  0.00    +0.000 HD
ENDBRANCH   6  11
BRANCH   1  13
ATOM     13  C   UNL     1       7.700   7.015  18.038  0.00  0.00    +0.000 C 
BRANCH  13  14
ATOM     14  O   UNL     1       7.380   7.873  16.936  0.00  0.00    +0.000 OA
ATOM     15  H   UNL     1       6.408   7.898  16.881  0.00  0.00    +0.000 HD
ENDBRANCH  13  14
ENDBRANCH   1  13
BRANCH   3  16
ATOM     16  O   UNL     1       4.032   4.505  19.557  0.00  0.00    +0.000 OA
BRANCH  16  17
ATOM     17  C   UNL     1       3.336   5.651  19.480  0.00  0.00    +0.000 A 
ATOM     18  C   UNL     1       2.543   6.253  20.433  0.00  0.00    +0.000 A 
ATOM     19  C   UNL     1       2.028   7.466  19.891  0.00  0.00    +0.000 A 
ATOM     20  C   UNL     1       1.192   8.489  20.374  0.00  0.00    +0.000 A 
ATOM     21  C   UNL     1       0.900   9.582  19.547  0.00  0.00    +0.000 A 
ATOM     22  C   UNL     1       1.405   9.652  18.251  0.00  0.00    +0.000 A 
ATOM     23  C   UNL     1       2.228   8.645  17.747  0.00  0.00    +0.000 A 
ATOM     24  C   UNL     1       2.528   7.576  18.597  0.00  0.00    +0.000 A 
ATOM     25  N   UNL     1       3.342   6.488  18.389  0.00  0.00    +0.000 N 
ATOM     26  H   UNL     1       3.891   6.332  17.553  0.00  0.00    +0.000 HD
ENDBRANCH  16  17
ENDBRANCH   3  16
TORSDOF 7
ENDMDL
MODEL 8
REMARK VINA RESULT:      -6.8      1.341      1.558
REMARK  Name = 
REMARK  7 active torsions:
REMARK  status: ('A' for Active; 'I' for Inactive)
REMARK    1  A    between atoms: O_1  and  C_2
REMARK    2  A    between atoms: C_2  and  C_3
REMARK    3  A    between atoms: C_5  and  O_6
REMARK    4  A    between atoms: O_6  and  C_7
REMARK    5  A    between atoms: C_16  and  O_17
REMARK    6  A    between atoms: C_18  and  O_19
REMARK    7  A    between atoms: C_20  and  O_21
REMARK                            x       y       z     vdW  Elec       q    Type
REMARK                         _______ _______ _______ _____ _____    ______ ____
ROOT
ATOM      1  C   UNL     1       1.424   3.686  19.063  0.00  0.00    +0.000 C 
ATOM      2  O   UNL     1       1.854   5.040  19.148  0.00  0.00    +0.000 OA
ATOM      3  C   UNL     1       2.693   5.523  18.102  0.00  0.00    +0.000 C 
ATOM      4  C   UNL     1       3.862   4.581  17.718  0.00  0.00    +0.000 C 
ATOM      5  C   UNL     1       3.384   3.131  17.614  0.00  0.00    +0.000 C 
ATOM      6  C   UNL     1       2.595   2.718  18.864  0.00  0.00    +0.000 C 
ENDROOT
BRANCH   4   7
ATOM      7  O   UNL     1       4.478   4.978  16.480  0.00  0.00    +0.000 OA
ATOM      8  H   UNL     1       3.958   4.627  15.736  0.00  0.00    +0.000 HD
ENDBRANCH   4   7
BRANCH   5   9
ATOM      9  O   UNL     1       4.483   2.231  17.416  0.00  0.00    +0.000 OA
ATOM     10  H   UNL     1       4.276   1.654  16.658  0.00  0.00    +0.000 HD
ENDBRANCH   5   9
BRANCH   6  11
ATOM     11  O   UNL     1       2.082   1.387  18.734  0.00  0.00    +0.000 OA
ATOM     12  H   UNL     1       1.124   1.438  18.570  0.00  0.00    +0.000 HD
ENDBRANCH   6  11
BRANCH   1  13
ATOM     13  C   UNL     1       0.669   3.383  20.368  0.00  0.00    +0.000 C 
BRANCH  13  14
ATOM     14  O   UNL     1       1.518   2.667  21.274  0.00  0.00    +0.000 OA
ATOM     15  H   UNL     1       2.412   3.037  21.163  0.00  0.00    +0.000 HD
ENDBRANCH  13  14
ENDBRANCH   1  13
BRANCH   3  16
ATOM     16  O   UNL     1       3.221   6.822  18.440  0.00  0.00    +0.000 OA
BRANCH  16  17
ATOM     17  C   UNL     1       2.404   7.678  19.075  0.00  0.00    +0.000 A 
ATOM     18  C   UNL     1       1.717   8.762  18.572  0.00  0.00    +0.000 A 
ATOM     19  C   UNL     1       0.965   9.351  19.630  0.00  0.00    +0.000 A 
ATOM     20  C   UNL     1       0.087  10.445  19.728  0.00  0.00    +0.000 A 
ATOM     21  C   UNL     1      -0.510  10.734  20.963  0.00  0.00    +0.000 A 
ATOM     22  C   UNL     1      -0.223   9.970  22.092  0.00  0.00    +0.000 A 
ATOM     23  C   UNL     1       0.652   8.886  22.020  0.00  0.00    +0.000 A 
ATOM     24  C   UNL     1       1.217   8.598  20.773  0.00  0.00    +0.000 A 
ATOM     25  N   UNL     1       2.057   7.576  20.402  0.00  0.00    +0.000 N 
ATOM     26  H   UNL     1       2.365   6.832  21.017  0.00  0.00    +0.000 HD
ENDBRANCH  16  17
ENDBRANCH   3  16
TORSDOF 7
ENDMDL
MODEL 9
REMARK VINA RESULT:      -6.7      3.859      5.766
REMARK  Name = 
REMARK  7 active torsions:
REMARK  status: ('A' for Active; 'I' for Inactive)
REMARK    1  A    between atoms: O_1  and  C_2
REMARK    2  A    between atoms: C_2  and  C_3
REMARK    3  A    between atoms: C_5  and  O_6
REMARK    4  A    between atoms: O_6  and  C_7
REMARK    5  A    between atoms: C_16  and  O_17
REMARK    6  A    between atoms: C_18  and  O_19
REMARK    7  A    between atoms: C_20  and  O_21
REMARK                            x       y       z     vdW  Elec       q    Type
REMARK                         _______ _______ _______ _____ _____    ______ ____
ROOT
ATOM      1  C   UNL     1       8.057   5.215  18.415  0.00  0.00    +0.000 C 
ATOM      2  O   UNL     1       7.059   4.306  17.964  0.00  0.00    +0.000 OA
ATOM      3  C   UNL     1       6.416   4.606  16.729  0.00  0.00    +0.000 C 
ATOM      4  C   UNL     1       5.952   6.076  16.577  0.00  0.00    +0.000 C 
ATOM      5  C   UNL     1       7.039   7.044  17.049  0.00  0.00    +0.000 C 
ATOM      6  C   UNL     1       7.552   6.661  18.443  0.00  0.00    +0.000 C 
ENDROOT
BRANCH   4   7
ATOM      7  O   UNL     1       5.590   6.381  15.218  0.00  0.00    +0.000 OA
ATOM      8  H   UNL     1       6.192   5.914  14.614  0.00  0.00    +0.000 HD
ENDBRANCH   4   7
BRANCH   5   9
ATOM      9  O   UNL     1       6.565   8.398  17.063  0.00  0.00    +0.000 OA
ATOM     10  H   UNL     1       5.970   8.508  17.827  0.00  0.00    +0.000 HD
ENDBRANCH   5   9
BRANCH   6  11
ATOM     11  O   UNL     1       8.623   7.520  18.854  0.00  0.00    +0.000 OA
ATOM     12  H   UNL     1       8.727   7.448  19.819  0.00  0.00    +0.000 HD
ENDBRANCH   6  11
BRANCH   1  13
ATOM     13  C   UNL     1       8.477   4.746  19.818  0.00  0.00    +0.000 C 
BRANCH  13  14
ATOM     14  O   UNL     1       7.960   5.639  20.812  0.00  0.00    +0.000 OA
ATOM     15  H   UNL     1       6.994   5.656  20.689  0.00  0.00    +0.000 HD
ENDBRANCH  13  14
ENDBRANCH   1  13
BRANCH   3  16
ATOM     16  O   UNL     1       5.290   3.729  16.521  0.00  0.00    +0.000 OA
BRANCH  16  17
ATOM     17  C   UNL     1       4.386   3.636  17.511  0.00  0.00    +0.000 A 
ATOM     18  C   UNL     1       3.069   4.044  17.529  0.00  0.00    +0.000 A 
ATOM     19  C   UNL     1       2.511   3.713  18.798  0.00  0.00    +0.000 A 
ATOM     20  C   UNL     1       1.245   3.864  19.391  0.00  0.00    +0.000 A 
ATOM     21  C   UNL     1       1.037   3.388  20.692  0.00  0.00    +0.000 A 
ATOM     22  C   UNL     1       2.073   2.793  21.409  0.00  0.00    +0.000 A 
ATOM     23  C   UNL     1       3.339   2.640  20.844  0.00  0.00    +0.000 A 
ATOM     24  C   UNL     1       3.519   3.099  19.535  0.00  0.00    +0.000 A 
ATOM     25  N   UNL     1       4.625   3.033  18.723  0.00  0.00    +0.000 N 
ATOM     26  H   UNL     1       5.497   2.582  18.974  0.00  0.00    +0.000 HD
ENDBRANCH  16  17
ENDBRANCH   3  16
TORSDOF 7
ENDMDL
