MODEL 1
REMARK VINA RESULT:      -8.1      0.000      0.000
REMARK  Name = 
REMARK  5 active torsions:
REMARK  status: ('A' for Active; 'I' for Inactive)
REMARK    1  A    between atoms: C_1  and  S_2
REMARK    2  A    between atoms: S_2  and  C_5
REMARK    3  A    between atoms: C_9  and  C_10
REMARK    4  A    between atoms: C_13  and  N_14
REMARK    5  A    between atoms: C_16  and  C_17
REMARK                            x       y       z     vdW  Elec       q    Type
REMARK                         _______ _______ _______ _____ _____    ______ ____
ROOT
ATOM      1  C   UNL     1       2.521   6.585  19.337  0.00  0.00    +0.000 A 
ATOM      2  C   UNL     1       2.029   6.143  20.561  0.00  0.00    +0.000 A 
ATOM      3  N   UNL     1       1.235   6.835  21.392  0.00  0.00    +0.000 NA
ATOM      4  C   UNL     1       0.835   8.073  21.056  0.00  0.00    +0.000 A 
ATOM      5  C   UNL     1       1.277   8.680  19.847  0.00  0.00    +0.000 A 
ATOM      6  C   UNL     1       1.026  10.014  19.274  0.00  0.00    +0.000 A 
ATOM      7  C   UNL     1       1.640  10.158  18.047  0.00  0.00    +0.000 A 
ATOM      8  S   UNL     1       2.565   8.819  17.602  0.00  0.00    +0.000 S 
ATOM      9  C   UNL     1       2.115   7.910  19.008  0.00  0.00    +0.000 A 
ENDROOT
BRANCH   6  10
ATOM     10  C   UNL     1       0.282  11.157  19.832  0.00  0.00    +0.000 A 
ATOM     11  C   UNL     1       0.952  12.189  20.504  0.00  0.00    +0.000 A 
ATOM     12  C   UNL     1       0.253  13.260  21.065  0.00  0.00    +0.000 A 
ATOM     13  C   UNL     1      -1.122  13.351  20.889  0.00  0.00    +0.000 A 
ATOM     14  F   UNL     1      -1.772  14.398  21.417  0.00  0.00    +0.000 F 
ATOM     15  C   UNL     1      -1.802  12.376  20.168  0.00  0.00    +0.000 A 
ATOM     16 CL   UNL     1      -3.494  12.522  19.879  0.00  0.00    +0.000 Cl
ATOM     17  C   UNL     1      -1.111  11.273  19.658  0.00  0.00    +0.000 A 
ENDBRANCH   6  10
BRANCH   1  22
ATOM     18  C   UNL     1       5.563   5.137  17.552  0.00  0.00    +0.000 A 
ATOM     19  C   UNL     1       5.005   4.073  16.844  0.00  0.00    +0.000 A 
ATOM     20  C   UNL     1       3.642   3.825  16.962  0.00  0.00    +0.000 A 
ATOM     21  C   UNL     1       2.854   4.629  17.794  0.00  0.00    +0.000 A 
ATOM     22  C   UNL     1       3.392   5.722  18.508  0.00  0.00    +0.000 A 
ATOM     23  C   UNL     1       4.765   5.970  18.347  0.00  0.00    +0.000 A 
BRANCH  18  25
ATOM     24  C   UNL     1       7.781   5.903  19.060  0.00  0.00    +0.000 C 
ATOM     25  S   UNL     1       7.308   5.459  17.410  0.00  0.00    +0.000 S 
ATOM     26  O   UNL     1       7.466   6.630  16.566  0.00  0.00    +0.000 OA
ATOM     27  O   UNL     1       7.952   4.205  17.073  0.00  0.00    +0.000 OA
ENDBRANCH  18  25
ENDBRANCH   1  22
BRANCH   4  28
ATOM     28  N   UNL     1      -0.037   8.640  21.978  0.00  0.00    +0.000 N 
ATOM     29  H   UNL     1      -0.462   9.460  21.555  0.00  0.00    +0.000 HD
ATOM     30  H   UNL     1       0.382   8.801  22.884  0.00  0.00    +0.000 HD
ENDBRANCH   4  28
TORSDOF 4
ENDMDL
MODEL 2
REMARK VINA RESULT:      -8.0      1.015      1.364
REMARK  Name = 
REMARK  5 active torsions:
REMARK  status: ('A' for Active; 'I' for Inactive)
REMARK    1  A    between atoms: C_1  and  S_2
REMARK    2  A    between atoms: S_2  and  C_5
REMARK    3  A    between atoms: C_9  and  C_10
REMARK    4  A    between atoms: C_13  and  N_14
REMARK    5  A    between atoms: C_16  and  C_17
REMARK                            x       y       z     vdW  Elec       q    Type
REMARK                         _______ _______ _______ _____ _____    ______ ____
ROOT
ATOM      1  C   UNL     1       2.532   6.555  19.312  0.00  0.00    +0.000 A 
ATOM      2  C   UNL     1       2.013   6.119  20.527  0.00  0.00    +0.000 A 
ATOM      3  N   UNL     1       1.207   6.818  21.340  0.00  0.00    +0.000 NA
ATOM      4  C   UNL     1       0.823   8.059  20.995  0.00  0.00    +0.000 A 
ATOM      5  C   UNL     1       1.294   8.660  19.794  0.00  0.00    +0.000 A 
ATOM      6  C   UNL     1       1.065   9.995  19.214  0.00  0.00    +0.000 A 
ATOM      7  C   UNL     1       1.705  10.132  17.999  0.00  0.00    +0.000 A 
ATOM      8  S   UNL     1       2.628   8.785  17.575  0.00  0.00    +0.000 S 
ATOM      9  C   UNL     1       2.144   7.882  18.973  0.00  0.00    +0.000 A 
ENDROOT
BRANCH   6  10
ATOM     10  C   UNL     1       0.319  11.144  19.754  0.00  0.00    +0.000 A 
ATOM     11  C   UNL     1      -1.077  11.213  19.634  0.00  0.00    +0.000 A 
ATOM     12  C   UNL     1      -1.790  12.313  20.114  0.00  0.00    +0.000 A 
ATOM     13  C   UNL     1      -1.121  13.323  20.794  0.00  0.00    +0.000 A 
ATOM     14  F   UNL     1      -1.827  14.361  21.265  0.00  0.00    +0.000 F 
ATOM     15  C   UNL     1       0.253  13.246  20.987  0.00  0.00    +0.000 A 
ATOM     16 CL   UNL     1       1.079  14.455  21.895  0.00  0.00    +0.000 Cl
ATOM     17  C   UNL     1       0.976  12.174  20.454  0.00  0.00    +0.000 A 
ENDBRANCH   6  10
BRANCH   1  22
ATOM     18  C   UNL     1       5.592   5.099  17.563  0.00  0.00    +0.000 A 
ATOM     19  C   UNL     1       5.045   4.017  16.874  0.00  0.00    +0.000 A 
ATOM     20  C   UNL     1       3.684   3.759  16.995  0.00  0.00    +0.000 A 
ATOM     21  C   UNL     1       2.887   4.572  17.809  0.00  0.00    +0.000 A 
ATOM     22  C   UNL     1       3.413   5.683  18.502  0.00  0.00    +0.000 A 
ATOM     23  C   UNL     1       4.785   5.941  18.340  0.00  0.00    +0.000 A 
BRANCH  18  25
ATOM     24  C   UNL     1       7.799   5.916  19.060  0.00  0.00    +0.000 C 
ATOM     25  S   UNL     1       7.334   5.435  17.419  0.00  0.00    +0.000 S 
ATOM     26  O   UNL     1       7.484   6.590  16.551  0.00  0.00    +0.000 OA
ATOM     27  O   UNL     1       7.991   4.181  17.109  0.00  0.00    +0.000 OA
ENDBRANCH  18  25
ENDBRANCH   1  22
BRANCH   4  28
ATOM     28  N   UNL     1      -0.062   8.634  21.897  0.00  0.00    +0.000 N 
ATOM     29  H   UNL     1       0.059   8.180  22.798  0.00  0.00    +0.000 HD
ATOM     30  H   UNL     1      -1.016   8.664  21.564  0.00  0.00    +0.000 HD
ENDBRANCH   4  28
TORSDOF 4
ENDMDL
MODEL 3
REMARK VINA RESULT:      -7.6      0.739      1.135
REMARK  Name = 
REMARK  5 active torsions:
REMARK  status: ('A' for Active; 'I' for Inactive)
REMARK    1  A    between atoms: C_1  and  S_2
REMARK    2  A    between atoms: S_2  and  C_5
REMARK    3  A    between atoms: C_9  and  C_10
REMARK    4  A    between atoms: C_13  and  N_14
REMARK    5  A    between atoms: C_16  and  C_17
REMARK                            x       y       z     vdW  Elec       q    Type
REMARK                         _______ _______ _______ _____ _____    ______ ____
ROOT
ATOM      1  C   UNL     1       2.552   6.343  19.216  0.00  0.00    +0.000 A 
ATOM      2  C   UNL     1       2.082   5.944  20.464  0.00  0.00    +0.000 A 
ATOM      3  N   UNL     1       1.357   6.689  21.312  0.00  0.00    +0.000 NA
ATOM      4  C   UNL     1       1.014   7.943  20.973  0.00  0.00    +0.000 A 
ATOM      5  C   UNL     1       1.445   8.509  19.740  0.00  0.00    +0.000 A 
ATOM      6  C   UNL     1       1.247   9.848  19.158  0.00  0.00    +0.000 A 
ATOM      7  C   UNL     1       1.823   9.943  17.908  0.00  0.00    +0.000 A 
ATOM      8  S   UNL     1       2.657   8.549  17.450  0.00  0.00    +0.000 S 
ATOM      9  C   UNL     1       2.209   7.684  18.883  0.00  0.00    +0.000 A 
ENDROOT
BRANCH   6  10
ATOM     10  C   UNL     1       0.588  11.038  19.725  0.00  0.00    +0.000 A 
ATOM     11  C   UNL     1       1.341  12.054  20.330  0.00  0.00    +0.000 A 
ATOM     12  C   UNL     1       0.723  13.170  20.900  0.00  0.00    +0.000 A 
ATOM     13  C   UNL     1      -0.654  13.319  20.800  0.00  0.00    +0.000 A 
ATOM     14  F   UNL     1      -1.226  14.407  21.335  0.00  0.00    +0.000 F 
ATOM     15  C   UNL     1      -1.417  12.359  20.145  0.00  0.00    +0.000 A 
ATOM     16 CL   UNL     1      -3.115  12.574  19.949  0.00  0.00    +0.000 Cl
ATOM     17  C   UNL     1      -0.806  11.213  19.627  0.00  0.00    +0.000 A 
ENDBRANCH   6  10
BRANCH   1  22
ATOM     18  C   UNL     1       5.366   4.839  17.129  0.00  0.00    +0.000 A 
ATOM     19  C   UNL     1       4.793   3.649  16.682  0.00  0.00    +0.000 A 
ATOM     20  C   UNL     1       3.496   3.337  17.075  0.00  0.00    +0.000 A 
ATOM     21  C   UNL     1       2.792   4.204  17.918  0.00  0.00    +0.000 A 
ATOM     22  C   UNL     1       3.344   5.422  18.369  0.00  0.00    +0.000 A 
ATOM     23  C   UNL     1       4.644   5.730  17.934  0.00  0.00    +0.000 A 
BRANCH  18  25
ATOM     24  C   UNL     1       7.084   4.756  14.932  0.00  0.00    +0.000 C 
ATOM     25  S   UNL     1       7.028   5.245  16.636  0.00  0.00    +0.000 S 
ATOM     26  O   UNL     1       7.926   4.381  17.382  0.00  0.00    +0.000 OA
ATOM     27  O   UNL     1       7.157   6.687  16.700  0.00  0.00    +0.000 OA
ENDBRANCH  18  25
ENDBRANCH   1  22
BRANCH   4  28
ATOM     28  N   UNL     1       0.209   8.569  21.917  0.00  0.00    +0.000 N 
ATOM     29  H   UNL     1      -0.733   8.632  21.542  0.00  0.00    +0.000 HD
ATOM     30  H   UNL     1       0.588   9.442  22.257  0.00  0.00    +0.000 HD
ENDBRANCH   4  28
TORSDOF 4
ENDMDL
MODEL 4
REMARK VINA RESULT:      -7.6      0.893      1.015
REMARK  Name = 
REMARK  5 active torsions:
REMARK  status: ('A' for Active; 'I' for Inactive)
REMARK    1  A    between atoms: C_1  and  S_2
REMARK    2  A    between atoms: S_2  and  C_5
REMARK    3  A    between atoms: C_9  and  C_10
REMARK    4  A    between atoms: C_13  and  N_14
REMARK    5  A    between atoms: C_16  and  C_17
REMARK                            x       y       z     vdW  Elec       q    Type
REMARK                         _______ _______ _______ _____ _____    ______ ____
ROOT
ATOM      1  C   UNL     1       2.328   6.916  19.625  0.00  0.00    +0.000 A 
ATOM      2  C   UNL     1       1.781   6.547  20.850  0.00  0.00    +0.000 A 
ATOM      3  N   UNL     1       0.927   7.274  21.587  0.00  0.00    +0.000 NA
ATOM      4  C   UNL     1       0.517   8.474  21.145  0.00  0.00    +0.000 A 
ATOM      5  C   UNL     1       1.011   9.007  19.921  0.00  0.00    +0.000 A 
ATOM      6  C   UNL     1       0.761  10.292  19.243  0.00  0.00    +0.000 A 
ATOM      7  C   UNL     1       1.437  10.367  18.043  0.00  0.00    +0.000 A 
ATOM      8  S   UNL     1       2.415   9.025  17.742  0.00  0.00    +0.000 S 
ATOM      9  C   UNL     1       1.911   8.203  19.183  0.00  0.00    +0.000 A 
ENDROOT
BRANCH   6  10
ATOM     10  C   UNL     1      -0.038  11.450  19.679  0.00  0.00    +0.000 A 
ATOM     11  C   UNL     1       0.586  12.620  20.136  0.00  0.00    +0.000 A 
ATOM     12  C   UNL     1      -0.162  13.711  20.583  0.00  0.00    +0.000 A 
ATOM     13  C   UNL     1      -1.549  13.674  20.501  0.00  0.00    +0.000 A 
ATOM     14  F   UNL     1      -2.249  14.740  20.915  0.00  0.00    +0.000 F 
ATOM     15  C   UNL     1      -2.191  12.553  19.987  0.00  0.00    +0.000 A 
ATOM     16 CL   UNL     1      -3.904  12.529  19.811  0.00  0.00    +0.000 Cl
ATOM     17  C   UNL     1      -1.444  11.437  19.596  0.00  0.00    +0.000 A 
ENDBRANCH   6  10
BRANCH   1  22
ATOM     18  C   UNL     1       5.514   5.242  18.366  0.00  0.00    +0.000 A 
ATOM     19  C   UNL     1       5.015   4.325  17.443  0.00  0.00    +0.000 A 
ATOM     20  C   UNL     1       3.641   4.248  17.244  0.00  0.00    +0.000 A 
ATOM     21  C   UNL     1       2.781   5.073  17.978  0.00  0.00    +0.000 A 
ATOM     22  C   UNL     1       3.262   6.021  18.906  0.00  0.00    +0.000 A 
ATOM     23  C   UNL     1       4.656   6.102  19.065  0.00  0.00    +0.000 A 
BRANCH  18  25
ATOM     24  C   UNL     1       7.701   6.922  17.941  0.00  0.00    +0.000 C 
ATOM     25  S   UNL     1       7.272   5.346  18.630  0.00  0.00    +0.000 S 
ATOM     26  O   UNL     1       7.894   4.315  17.818  0.00  0.00    +0.000 OA
ATOM     27  O   UNL     1       7.491   5.400  20.062  0.00  0.00    +0.000 OA
ENDBRANCH  18  25
ENDBRANCH   1  22
BRANCH   4  28
ATOM     28  N   UNL     1      -0.415   9.080  21.977  0.00  0.00    +0.000 N 
ATOM     29  H   UNL     1      -1.312   8.625  21.837  0.00  0.00    +0.000 HD
ATOM     30  H   UNL     1      -0.435  10.087  21.897  0.00  0.00    +0.000 HD
ENDBRANCH   4  28
TORSDOF 4
ENDMDL
MODEL 5
REMARK VINA RESULT:      -7.5      1.983      2.379
REMARK  Name = 
REMARK  5 active torsions:
REMARK  status: ('A' for Active; 'I' for Inactive)
REMARK    1  A    between atoms: C_1  and  S_2
REMARK    2  A    between atoms: S_2  and  C_5
REMARK    3  A    between atoms: C_9  and  C_10
REMARK    4  A    between atoms: C_13  and  N_14
REMARK    5  A    between atoms: C_16  and  C_17
REMARK                            x       y       z     vdW  Elec       q    Type
REMARK                         _______ _______ _______ _____ _____    ______ ____
ROOT
ATOM      1  C   UNL     1       2.610   7.815  18.280  0.00  0.00    +0.000 A 
ATOM      2  C   UNL     1       2.682   8.846  17.347  0.00  0.00    +0.000 A 
ATOM      3  N   UNL     1       2.080  10.042  17.441  0.00  0.00    +0.000 NA
ATOM      4  C   UNL     1       1.334  10.331  18.520  0.00  0.00    +0.000 A 
ATOM      5  C   UNL     1       1.138   9.369  19.550  0.00  0.00    +0.000 A 
ATOM      6  C   UNL     1       0.348   9.416  20.793  0.00  0.00    +0.000 A 
ATOM      7  C   UNL     1       0.479   8.248  21.516  0.00  0.00    +0.000 A 
ATOM      8  S   UNL     1       1.417   7.082  20.737  0.00  0.00    +0.000 S 
ATOM      9  C   UNL     1       1.791   8.123  19.403  0.00  0.00    +0.000 A 
ENDROOT
BRANCH   6  10
ATOM     10  C   UNL     1      -0.541  10.472  21.309  0.00  0.00    +0.000 A 
ATOM     11  C   UNL     1      -0.441  10.907  22.639  0.00  0.00    +0.000 A 
ATOM     12  C   UNL     1      -1.300  11.883  23.146  0.00  0.00    +0.000 A 
ATOM     13  C   UNL     1      -2.219  12.496  22.304  0.00  0.00    +0.000 A 
ATOM     14  F   UNL     1      -3.021  13.447  22.804  0.00  0.00    +0.000 F 
ATOM     15  C   UNL     1      -2.292  12.133  20.964  0.00  0.00    +0.000 A 
ATOM     16 CL   UNL     1      -3.374  12.941  19.895  0.00  0.00    +0.000 Cl
ATOM     17  C   UNL     1      -1.473  11.112  20.470  0.00  0.00    +0.000 A 
ENDBRANCH   6  10
BRANCH   1  22
ATOM     18  C   UNL     1       5.356   5.251  17.631  0.00  0.00    +0.000 A 
ATOM     19  C   UNL     1       4.633   4.060  17.574  0.00  0.00    +0.000 A 
ATOM     20  C   UNL     1       3.256   4.097  17.761  0.00  0.00    +0.000 A 
ATOM     21  C   UNL     1       2.617   5.316  18.016  0.00  0.00    +0.000 A 
ATOM     22  C   UNL     1       3.324   6.537  18.061  0.00  0.00    +0.000 A 
ATOM     23  C   UNL     1       4.709   6.477  17.838  0.00  0.00    +0.000 A 
BRANCH  18  25
ATOM     24  C   UNL     1       7.606   6.900  17.644  0.00  0.00    +0.000 C 
ATOM     25  S   UNL     1       7.120   5.213  17.397  0.00  0.00    +0.000 S 
ATOM     26  O   UNL     1       7.367   4.873  16.007  0.00  0.00    +0.000 OA
ATOM     27  O   UNL     1       7.680   4.416  18.469  0.00  0.00    +0.000 OA
ENDBRANCH  18  25
ENDBRANCH   1  22
BRANCH   4  28
ATOM     28  N   UNL     1       0.831  11.626  18.511  0.00  0.00    +0.000 N 
ATOM     29  H   UNL     1       1.199  12.118  19.320  0.00  0.00    +0.000 HD
ATOM     30  H   UNL     1      -0.174  11.668  18.412  0.00  0.00    +0.000 HD
ENDBRANCH   4  28
TORSDOF 4
ENDMDL
MODEL 6
REMARK VINA RESULT:      -7.5      2.245      2.742
REMARK  Name = 
REMARK  5 active torsions:
REMARK  status: ('A' for Active; 'I' for Inactive)
REMARK    1  A    between atoms: C_1  and  S_2
REMARK    2  A    between atoms: S_2  and  C_5
REMARK    3  A    between atoms: C_9  and  C_10
REMARK    4  A    between atoms: C_13  and  N_14
REMARK    5  A    between atoms: C_16  and  C_17
REMARK                            x       y       z     vdW  Elec       q    Type
REMARK                         _______ _______ _______ _____ _____    ______ ____
ROOT
ATOM      1  C   UNL     1       2.315   7.879  18.393  0.00  0.00    +0.000 A 
ATOM      2  C   UNL     1       2.235   8.827  17.377  0.00  0.00    +0.000 A 
ATOM      3  N   UNL     1       1.715  10.059  17.483  0.00  0.00    +0.000 NA
ATOM      4  C   UNL     1       1.219  10.475  18.661  0.00  0.00    +0.000 A 
ATOM      5  C   UNL     1       1.201   9.611  19.791  0.00  0.00    +0.000 A 
ATOM      6  C   UNL     1       0.687   9.801  21.159  0.00  0.00    +0.000 A 
ATOM      7  C   UNL     1       0.916   8.689  21.941  0.00  0.00    +0.000 A 
ATOM      8  S   UNL     1       1.626   7.412  21.096  0.00  0.00    +0.000 S 
ATOM      9  C   UNL     1       1.759   8.321  19.627  0.00  0.00    +0.000 A 
ENDROOT
BRANCH   6  10
ATOM     10  C   UNL     1      -0.033  10.945  21.747  0.00  0.00    +0.000 A 
ATOM     11  C   UNL     1      -1.129  10.740  22.598  0.00  0.00    +0.000 A 
ATOM     12  C   UNL     1      -1.839  11.817  23.134  0.00  0.00    +0.000 A 
ATOM     13  C   UNL     1      -1.408  13.114  22.888  0.00  0.00    +0.000 A 
ATOM     14  F   UNL     1      -2.090  14.134  23.429  0.00  0.00    +0.000 F 
ATOM     15  C   UNL     1      -0.284  13.343  22.103  0.00  0.00    +0.000 A 
ATOM     16 CL   UNL     1       0.301  14.944  21.857  0.00  0.00    +0.000 Cl
ATOM     17  C   UNL     1       0.391  12.267  21.517  0.00  0.00    +0.000 A 
ENDBRANCH   6  10
BRANCH   1  22
ATOM     18  C   UNL     1       4.832   5.100  17.698  0.00  0.00    +0.000 A 
ATOM     19  C   UNL     1       4.009   3.977  17.615  0.00  0.00    +0.000 A 
ATOM     20  C   UNL     1       2.639   4.130  17.799  0.00  0.00    +0.000 A 
ATOM     21  C   UNL     1       2.108   5.394  18.078  0.00  0.00    +0.000 A 
ATOM     22  C   UNL     1       2.917   6.548  18.150  0.00  0.00    +0.000 A 
ATOM     23  C   UNL     1       4.293   6.373  17.930  0.00  0.00    +0.000 A 
BRANCH  18  25
ATOM     24  C   UNL     1       7.155   6.580  17.260  0.00  0.00    +0.000 C 
ATOM     25  S   UNL     1       6.587   4.914  17.468  0.00  0.00    +0.000 S 
ATOM     26  O   UNL     1       6.788   4.210  16.214  0.00  0.00    +0.000 OA
ATOM     27  O   UNL     1       7.133   4.398  18.707  0.00  0.00    +0.000 OA
ENDBRANCH  18  25
ENDBRANCH   1  22
BRANCH   4  28
ATOM     28  N   UNL     1       0.777  11.792  18.638  0.00  0.00    +0.000 N 
ATOM     29  H   UNL     1       0.518  12.026  17.684  0.00  0.00    +0.000 HD
ATOM     30  H   UNL     1       1.419  12.441  19.073  0.00  0.00    +0.000 HD
ENDBRANCH   4  28
TORSDOF 4
ENDMDL
MODEL 7
REMARK VINA RESULT:      -7.5      2.209      2.633
REMARK  Name = 
REMARK  5 active torsions:
REMARK  status: ('A' for Active; 'I' for Inactive)
REMARK    1  A    between atoms: C_1  and  S_2
REMARK    2  A    between atoms: S_2  and  C_5
REMARK    3  A    between atoms: C_9  and  C_10
REMARK    4  A    between atoms: C_13  and  N_14
REMARK    5  A    between atoms: C_16  and  C_17
REMARK                            x       y       z     vdW  Elec       q    Type
REMARK                         _______ _______ _______ _____ _____    ______ ____
ROOT
ATOM      1  C   UNL     1       2.210   7.976  18.475  0.00  0.00    +0.000 A 
ATOM      2  C   UNL     1       2.186   8.903  17.438  0.00  0.00    +0.000 A 
ATOM      3  N   UNL     1       1.722  10.160  17.511  0.00  0.00    +0.000 NA
ATOM      4  C   UNL     1       1.234  10.626  18.673  0.00  0.00    +0.000 A 
ATOM      5  C   UNL     1       1.162   9.788  19.821  0.00  0.00    +0.000 A 
ATOM      6  C   UNL     1       0.642  10.033  21.178  0.00  0.00    +0.000 A 
ATOM      7  C   UNL     1       0.810   8.929  21.987  0.00  0.00    +0.000 A 
ATOM      8  S   UNL     1       1.469   7.602  21.179  0.00  0.00    +0.000 S 
ATOM      9  C   UNL     1       1.661   8.471  19.692  0.00  0.00    +0.000 A 
ENDROOT
BRANCH   6  10
ATOM     10  C   UNL     1      -0.030  11.222  21.732  0.00  0.00    +0.000 A 
ATOM     11  C   UNL     1       0.476  12.508  21.493  0.00  0.00    +0.000 A 
ATOM     12  C   UNL     1      -0.134  13.638  22.041  0.00  0.00    +0.000 A 
ATOM     13  C   UNL     1      -1.308  13.500  22.770  0.00  0.00    +0.000 A 
ATOM     14  F   UNL     1      -1.891  14.599  23.270  0.00  0.00    +0.000 F 
ATOM     15  C   UNL     1      -1.869  12.243  22.964  0.00  0.00    +0.000 A 
ATOM     16 CL   UNL     1      -3.365  12.071  23.800  0.00  0.00    +0.000 Cl
ATOM     17  C   UNL     1      -1.225  11.105  22.467  0.00  0.00    +0.000 A 
ENDBRANCH   6  10
BRANCH   1  22
ATOM     18  C   UNL     1       4.588   5.074  17.794  0.00  0.00    +0.000 A 
ATOM     19  C   UNL     1       3.723   3.980  17.807  0.00  0.00    +0.000 A 
ATOM     20  C   UNL     1       2.370   4.193  18.052  0.00  0.00    +0.000 A 
ATOM     21  C   UNL     1       1.899   5.489  18.294  0.00  0.00    +0.000 A 
ATOM     22  C   UNL     1       2.751   6.613  18.269  0.00  0.00    +0.000 A 
ATOM     23  C   UNL     1       4.107   6.376  17.989  0.00  0.00    +0.000 A 
BRANCH  18  25
ATOM     24  C   UNL     1       6.936   6.442  17.165  0.00  0.00    +0.000 C 
ATOM     25  S   UNL     1       6.321   4.811  17.487  0.00  0.00    +0.000 S 
ATOM     26  O   UNL     1       6.433   4.038  16.263  0.00  0.00    +0.000 OA
ATOM     27  O   UNL     1       6.912   4.339  18.723  0.00  0.00    +0.000 OA
ENDBRANCH  18  25
ENDBRANCH   1  22
BRANCH   4  28
ATOM     28  N   UNL     1       0.855  11.961  18.616  0.00  0.00    +0.000 N 
ATOM     29  H   UNL     1       1.691  12.534  18.679  0.00  0.00    +0.000 HD
ATOM     30  H   UNL     1       0.126  12.203  19.273  0.00  0.00    +0.000 HD
ENDBRANCH   4  28
TORSDOF 4
ENDMDL
MODEL 8
REMARK VINA RESULT:      -7.5      3.094      3.875
REMARK  Name = 
REMARK  5 active torsions:
REMARK  status: ('A' for Active; 'I' for Inactive)
REMARK    1  A    between atoms: C_1  and  S_2
REMARK    2  A    between atoms: S_2  and  C_5
REMARK    3  A    between atoms: C_9  and  C_10
REMARK    4  A    between atoms: C_13  and  N_14
REMARK    5  A    between atoms: C_16  and  C_17
REMARK                            x       y       z     vdW  Elec       q    Type
REMARK                         _______ _______ _______ _____ _____    ______ ____
ROOT
ATOM      1  C   UNL     1       2.413   7.783  18.765  0.00  0.00    +0.000 A 
ATOM      2  C   UNL     1       2.623   8.597  17.655  0.00  0.00    +0.000 A 
ATOM      3  N   UNL     1       2.112   9.822  17.464  0.00  0.00    +0.000 NA
ATOM      4  C   UNL     1       1.324  10.371  18.404  0.00  0.00    +0.000 A 
ATOM      5  C   UNL     1       0.989   9.652  19.585  0.00  0.00    +0.000 A 
ATOM      6  C   UNL     1       0.129  10.000  20.730  0.00  0.00    +0.000 A 
ATOM      7  C   UNL     1       0.123   8.997  21.677  0.00  0.00    +0.000 A 
ATOM      8  S   UNL     1       1.015   7.640  21.219  0.00  0.00    +0.000 S 
ATOM      9  C   UNL     1       1.552   8.363  19.738  0.00  0.00    +0.000 A 
ENDROOT
BRANCH   6  10
ATOM     10  C   UNL     1      -0.706  11.193  20.956  0.00  0.00    +0.000 A 
ATOM     11  C   UNL     1      -1.734  11.527  20.064  0.00  0.00    +0.000 A 
ATOM     12  C   UNL     1      -2.510  12.673  20.251  0.00  0.00    +0.000 A 
ATOM     13  C   UNL     1      -2.317  13.457  21.382  0.00  0.00    +0.000 A 
ATOM     14  F   UNL     1      -3.086  14.541  21.555  0.00  0.00    +0.000 F 
ATOM     15  C   UNL     1      -1.349  13.109  22.318  0.00  0.00    +0.000 A 
ATOM     16 CL   UNL     1      -1.156  14.031  23.760  0.00  0.00    +0.000 Cl
ATOM     17  C   UNL     1      -0.532  11.996  22.100  0.00  0.00    +0.000 A 
ENDBRANCH   6  10
BRANCH   1  22
ATOM     18  C   UNL     1       2.905   4.013  19.053  0.00  0.00    +0.000 A 
ATOM     19  C   UNL     1       4.293   3.905  19.111  0.00  0.00    +0.000 A 
ATOM     20  C   UNL     1       5.063   5.060  19.043  0.00  0.00    +0.000 A 
ATOM     21  C   UNL     1       4.443   6.307  18.902  0.00  0.00    +0.000 A 
ATOM     22  C   UNL     1       3.039   6.445  18.859  0.00  0.00    +0.000 A 
ATOM     23  C   UNL     1       2.282   5.265  18.961  0.00  0.00    +0.000 A 
BRANCH  18  25
ATOM     24  C   UNL     1       1.360   2.505  20.820  0.00  0.00    +0.000 C 
ATOM     25  S   UNL     1       1.911   2.539  19.135  0.00  0.00    +0.000 S 
ATOM     26  O   UNL     1       2.796   1.406  18.928  0.00  0.00    +0.000 OA
ATOM     27  O   UNL     1       0.757   2.747  18.284  0.00  0.00    +0.000 OA
ENDBRANCH  18  25
ENDBRANCH   1  22
BRANCH   4  28
ATOM     28  N   UNL     1       0.924  11.666  18.100  0.00  0.00    +0.000 N 
ATOM     29  H   UNL     1       0.174  11.618  17.417  0.00  0.00    +0.000 HD
ATOM     30  H   UNL     1       1.688  12.276  17.845  0.00  0.00    +0.000 HD
ENDBRANCH   4  28
TORSDOF 4
ENDMDL
MODEL 9
REMARK VINA RESULT:      -7.4      3.366      4.269
REMARK  Name = 
REMARK  5 active torsions:
REMARK  status: ('A' for Active; 'I' for Inactive)
REMARK    1  A    between atoms: C_1  and  S_2
REMARK    2  A    between atoms: S_2  and  C_5
REMARK    3  A    between atoms: C_9  and  C_10
REMARK    4  A    between atoms: C_13  and  N_14
REMARK    5  A    between atoms: C_16  and  C_17
REMARK                            x       y       z     vdW  Elec       q    Type
REMARK                         _______ _______ _______ _____ _____    ______ ____
ROOT
ATOM      1  C   UNL     1       1.109   9.226  19.145  0.00  0.00    +0.000 A 
ATOM      2  C   UNL     1       0.611  10.037  18.129  0.00  0.00    +0.000 A 
ATOM      3  N   UNL     1      -0.153  11.128  18.290  0.00  0.00    +0.000 NA
ATOM      4  C   UNL     1      -0.492  11.530  19.526  0.00  0.00    +0.000 A 
ATOM      5  C   UNL     1      -0.085  10.789  20.671  0.00  0.00    +0.000 A 
ATOM      6  C   UNL     1      -0.351  10.985  22.107  0.00  0.00    +0.000 A 
ATOM      7  C   UNL     1       0.282  10.026  22.870  0.00  0.00    +0.000 A 
ATOM      8  S   UNL     1       1.092   8.866  21.950  0.00  0.00    +0.000 S 
ATOM      9  C   UNL     1       0.717   9.645  20.448  0.00  0.00    +0.000 A 
ENDROOT
BRANCH   6  10
ATOM     10  C   UNL     1      -1.189  11.990  22.784  0.00  0.00    +0.000 A 
ATOM     11  C   UNL     1      -0.779  13.328  22.865  0.00  0.00    +0.000 A 
ATOM     12  C   UNL     1      -1.550  14.282  23.533  0.00  0.00    +0.000 A 
ATOM     13  C   UNL     1      -2.784  13.921  24.060  0.00  0.00    +0.000 A 
ATOM     14  F   UNL     1      -3.520  14.856  24.679  0.00  0.00    +0.000 F 
ATOM     15  C   UNL     1      -3.246  12.616  23.933  0.00  0.00    +0.000 A 
ATOM     16 CL   UNL     1      -4.807  12.179  24.515  0.00  0.00    +0.000 Cl
ATOM     17  C   UNL     1      -2.447  11.647  23.318  0.00  0.00    +0.000 A 
ENDBRANCH   6  10
BRANCH   1  22
ATOM     18  C   UNL     1       2.614   5.723  19.204  0.00  0.00    +0.000 A 
ATOM     19  C   UNL     1       3.632   5.829  18.257  0.00  0.00    +0.000 A 
ATOM     20  C   UNL     1       3.814   7.037  17.594  0.00  0.00    +0.000 A 
ATOM     21  C   UNL     1       2.972   8.121  17.871  0.00  0.00    +0.000 A 
ATOM     22  C   UNL     1       1.946   8.045  18.838  0.00  0.00    +0.000 A 
ATOM     23  C   UNL     1       1.802   6.823  19.515  0.00  0.00    +0.000 A 
BRANCH  18  25
ATOM     24  C   UNL     1       3.850   3.271  19.695  0.00  0.00    +0.000 C 
ATOM     25  S   UNL     1       2.370   4.178  20.054  0.00  0.00    +0.000 S 
ATOM     26  O   UNL     1       1.259   3.499  19.410  0.00  0.00    +0.000 OA
ATOM     27  O   UNL     1       2.345   4.466  21.474  0.00  0.00    +0.000 OA
ENDBRANCH  18  25
ENDBRANCH   1  22
BRANCH   4  28
ATOM     28  N   UNL     1      -1.226  12.709  19.540  0.00  0.00    +0.000 N 
ATOM     29  H   UNL     1      -1.980  12.625  18.865  0.00  0.00    +0.000 HD
ATOM     30  H   UNL     1      -0.658  13.540  19.440  0.00  0.00    +0.000 HD
ENDBRANCH   4  28
TORSDOF 4
ENDMDL
