MODEL 1
REMARK VINA RESULT:      -9.1      0.000      0.000
REMARK  Name = 
REMARK  9 active torsions:
REMARK  status: ('A' for Active; 'I' for Inactive)
REMARK    1  A    between atoms: C_1  and  C_2
REMARK    2  A    between atoms: C_5  and  S_6
REMARK    3  A    between atoms: S_6  and  C_7
REMARK    4  A    between atoms: C_7  and  C_8
REMARK    5  A    between atoms: C_10  and  O_11
REMARK    6  A    between atoms: C_13  and  N_14
REMARK    7  A    between atoms: N_17  and  C_18
REMARK    8  A    between atoms: C_23  and  S_24
REMARK    9  A    between atoms: S_24  and  C_25
REMARK                            x       y       z     vdW  Elec       q    Type
REMARK                         _______ _______ _______ _____ _____    ______ ____
ROOT
ATOM      1  N   UNL     1       2.018   7.456  20.044  0.00  0.00    +0.000 NA
ATOM      2  C   UNL     1       2.325   7.378  18.788  0.00  0.00    +0.000 C 
ATOM      3  N   UNL     1       2.050   8.291  17.806  0.00  0.00    +0.000 N 
ATOM      4  N   UNL     1       2.998   6.308  18.247  0.00  0.00    +0.000 N 
ATOM      5  H   UNL     1       1.688   9.160  18.218  0.00  0.00    +0.000 HD
ATOM      6  H   UNL     1       2.830   8.522  17.208  0.00  0.00    +0.000 HD
ATOM      7  H   UNL     1       3.164   6.380  17.251  0.00  0.00    +0.000 HD
ENDROOT
BRANCH   1  12
ATOM      8  C   UNL     1       0.409  10.620  20.198  0.00  0.00    +0.000 A 
ATOM      9  C   UNL     1       0.082  10.722  21.539  0.00  0.00    +0.000 A 
ATOM     10  C   UNL     1       0.471   9.677  22.336  0.00  0.00    +0.000 A 
ATOM     11  N   UNL     1       1.083   8.580  21.892  0.00  0.00    +0.000 NA
ATOM     12  C   UNL     1       1.344   8.552  20.576  0.00  0.00    +0.000 A 
ATOM     13  N   UNL     1       1.022   9.522  19.704  0.00  0.00    +0.000 NA
BRANCH  10  14
ATOM     14  O   UNL     1       0.297   9.718  23.688  0.00  0.00    +0.000 OA
ATOM     15  H   UNL     1       1.111   9.399  24.107  0.00  0.00    +0.000 HD
ENDBRANCH  10  14
BRANCH   8  16
ATOM     16  C   UNL     1       0.118  11.750  19.225  0.00  0.00    +0.000 C 
BRANCH  16  17
ATOM     17  S   UNL     1      -1.091  12.943  19.931  0.00  0.00    +0.000 S 
BRANCH  17  22
ATOM     18  C   UNL     1      -6.685  11.271  18.211  0.00  0.00    +0.000 C 
ATOM     19  C   UNL     1      -5.296  11.592  18.682  0.00  0.00    +0.000 A 
ATOM     20  C   UNL     1      -5.088  12.401  19.800  0.00  0.00    +0.000 A 
ATOM     21  C   UNL     1      -3.791  12.743  20.188  0.00  0.00    +0.000 A 
ATOM     22  C   UNL     1      -2.678  12.285  19.469  0.00  0.00    +0.000 A 
ATOM     23  C   UNL     1      -2.886  11.457  18.365  0.00  0.00    +0.000 A 
ATOM     24  C   UNL     1      -4.187  11.111  17.977  0.00  0.00    +0.000 A 
ENDBRANCH  17  22
ENDBRANCH  16  17
ENDBRANCH   8  16
ENDBRANCH   1  12
BRANCH   4  25
ATOM     25  C   UNL     1       2.735   4.946  18.565  0.00  0.00    +0.000 A 
ATOM     26  C   UNL     1       1.424   4.440  18.559  0.00  0.00    +0.000 A 
ATOM     27  C   UNL     1       1.174   3.080  18.759  0.00  0.00    +0.000 A 
ATOM     28  C   UNL     1       2.232   2.203  18.965  0.00  0.00    +0.000 A 
ATOM     29  C   UNL     1       3.541   2.685  18.993  0.00  0.00    +0.000 A 
ATOM     30  C   UNL     1       3.804   4.051  18.808  0.00  0.00    +0.000 A 
BRANCH  30  31
ATOM     31  S   UNL     1       5.518   4.578  18.803  0.00  0.00    +0.000 S 
BRANCH  31  32
ATOM     32  C   UNL     1       5.998   4.501  17.079  0.00  0.00    +0.000 A 
ATOM     33  C   UNL     1       5.049   4.051  16.149  0.00  0.00    +0.000 A 
ATOM     34  C   UNL     1       5.312   4.106  14.769  0.00  0.00    +0.000 A 
ATOM     35  C   UNL     1       6.524   4.612  14.315  0.00  0.00    +0.000 A 
ATOM     36  C   UNL     1       7.485   5.035  15.232  0.00  0.00    +0.000 A 
ATOM     37  C   UNL     1       7.226   4.978  16.607  0.00  0.00    +0.000 A 
ENDBRANCH  31  32
ENDBRANCH  30  31
ENDBRANCH   4  25
TORSDOF 8
ENDMDL
MODEL 2
REMARK VINA RESULT:      -9.1      1.588      2.374
REMARK  Name = 
REMARK  9 active torsions:
REMARK  status: ('A' for Active; 'I' for Inactive)
REMARK    1  A    between atoms: C_1  and  C_2
REMARK    2  A    between atoms: C_5  and  S_6
REMARK    3  A    between atoms: S_6  and  C_7
REMARK    4  A    between atoms: C_7  and  C_8
REMARK    5  A    between atoms: C_10  and  O_11
REMARK    6  A    between atoms: C_13  and  N_14
REMARK    7  A    between atoms: N_17  and  C_18
REMARK    8  A    between atoms: C_23  and  S_24
REMARK    9  A    between atoms: S_24  and  C_25
REMARK                            x       y       z     vdW  Elec       q    Type
REMARK                         _______ _______ _______ _____ _____    ______ ____
ROOT
ATOM      1  N   UNL     1       1.985   7.527  20.206  0.00  0.00    +0.000 NA
ATOM      2  C   UNL     1       2.335   7.557  18.959  0.00  0.00    +0.000 C 
ATOM      3  N   UNL     1       2.062   8.534  18.041  0.00  0.00    +0.000 N 
ATOM      4  N   UNL     1       3.061   6.553  18.362  0.00  0.00    +0.000 N 
ATOM      5  H   UNL     1       1.658   9.357  18.505  0.00  0.00    +0.000 HD
ATOM      6  H   UNL     1       2.853   8.835  17.490  0.00  0.00    +0.000 HD
ATOM      7  H   UNL     1       3.257   6.707  17.380  0.00  0.00    +0.000 HD
ENDROOT
BRANCH   1  12
ATOM      8  C   UNL     1       0.109  10.530  20.506  0.00  0.00    +0.000 A 
ATOM      9  C   UNL     1      -0.116  10.605  21.870  0.00  0.00    +0.000 A 
ATOM     10  C   UNL     1       0.432   9.602  22.627  0.00  0.00    +0.000 A 
ATOM     11  N   UNL     1       1.104   8.566  22.130  0.00  0.00    +0.000 NA
ATOM     12  C   UNL     1       1.259   8.558  20.797  0.00  0.00    +0.000 A 
ATOM     13  N   UNL     1       0.779   9.491  19.958  0.00  0.00    +0.000 NA
BRANCH  10  14
ATOM     14  O   UNL     1       0.365   9.630  23.989  0.00  0.00    +0.000 OA
ATOM     15  H   UNL     1       1.078   9.073  24.338  0.00  0.00    +0.000 HD
ENDBRANCH  10  14
BRANCH   8  16
ATOM     16  C   UNL     1      -0.364  11.626  19.565  0.00  0.00    +0.000 C 
BRANCH  16  17
ATOM     17  S   UNL     1      -2.191  11.825  19.639  0.00  0.00    +0.000 S 
BRANCH  17  22
ATOM     18  C   UNL     1      -4.048   9.883  14.178  0.00  0.00    +0.000 C 
ATOM     19  C   UNL     1      -3.570  10.453  15.481  0.00  0.00    +0.000 A 
ATOM     20  C   UNL     1      -2.286  10.179  15.956  0.00  0.00    +0.000 A 
ATOM     21  C   UNL     1      -1.879  10.664  17.200  0.00  0.00    +0.000 A 
ATOM     22  C   UNL     1      -2.742  11.431  17.994  0.00  0.00    +0.000 A 
ATOM     23  C   UNL     1      -4.017  11.726  17.509  0.00  0.00    +0.000 A 
ATOM     24  C   UNL     1      -4.426  11.242  16.259  0.00  0.00    +0.000 A 
ENDBRANCH  17  22
ENDBRANCH  16  17
ENDBRANCH   8  16
ENDBRANCH   1  12
BRANCH   4  25
ATOM     25  C   UNL     1       2.833   5.163  18.566  0.00  0.00    +0.000 A 
ATOM     26  C   UNL     1       1.890   4.713  19.506  0.00  0.00    +0.000 A 
ATOM     27  C   UNL     1       1.582   3.356  19.628  0.00  0.00    +0.000 A 
ATOM     28  C   UNL     1       2.211   2.425  18.809  0.00  0.00    +0.000 A 
ATOM     29  C   UNL     1       3.163   2.847  17.881  0.00  0.00    +0.000 A 
ATOM     30  C   UNL     1       3.492   4.206  17.758  0.00  0.00    +0.000 A 
BRANCH  30  31
ATOM     31  S   UNL     1       4.686   4.667  16.502  0.00  0.00    +0.000 S 
BRANCH  31  32
ATOM     32  C   UNL     1       5.934   5.588  17.398  0.00  0.00    +0.000 A 
ATOM     33  C   UNL     1       6.463   5.019  18.567  0.00  0.00    +0.000 A 
ATOM     34  C   UNL     1       7.546   5.620  19.232  0.00  0.00    +0.000 A 
ATOM     35  C   UNL     1       8.103   6.790  18.732  0.00  0.00    +0.000 A 
ATOM     36  C   UNL     1       7.566   7.379  17.589  0.00  0.00    +0.000 A 
ATOM     37  C   UNL     1       6.486   6.783  16.926  0.00  0.00    +0.000 A 
ENDBRANCH  31  32
ENDBRANCH  30  31
ENDBRANCH   4  25
TORSDOF 8
ENDMDL
MODEL 3
REMARK VINA RESULT:      -9.0      0.601      1.393
REMARK  Name = 
REMARK  9 active torsions:
REMARK  status: ('A' for Active; 'I' for Inactive)
REMARK    1  A    between atoms: C_1  and  C_2
REMARK    2  A    between atoms: C_5  and  S_6
REMARK    3  A    between atoms: S_6  and  C_7
REMARK    4  A    between atoms: C_7  and  C_8
REMARK    5  A    between atoms: C_10  and  O_11
REMARK    6  A    between atoms: C_13  and  N_14
REMARK    7  A    between atoms: N_17  and  C_18
REMARK    8  A    between atoms: C_23  and  S_24
REMARK    9  A    between atoms: S_24  and  C_25
REMARK                            x       y       z     vdW  Elec       q    Type
REMARK                         _______ _______ _______ _____ _____    ______ ____
ROOT
ATOM      1  N   UNL     1       2.014   7.383  20.071  0.00  0.00    +0.000 NA
ATOM      2  C   UNL     1       2.314   7.306  18.813  0.00  0.00    +0.000 C 
ATOM      3  N   UNL     1       2.035   8.221  17.834  0.00  0.00    +0.000 N 
ATOM      4  N   UNL     1       2.981   6.235  18.267  0.00  0.00    +0.000 N 
ATOM      5  H   UNL     1       1.677   9.090  18.250  0.00  0.00    +0.000 HD
ATOM      6  H   UNL     1       2.812   8.450  17.231  0.00  0.00    +0.000 HD
ATOM      7  H   UNL     1       3.141   6.308  17.270  0.00  0.00    +0.000 HD
ENDROOT
BRANCH   1  12
ATOM      8  C   UNL     1       0.372  10.531  20.229  0.00  0.00    +0.000 A 
ATOM      9  C   UNL     1       0.094  10.652  21.580  0.00  0.00    +0.000 A 
ATOM     10  C   UNL     1       0.525   9.627  22.380  0.00  0.00    +0.000 A 
ATOM     11  N   UNL     1       1.134   8.530  21.933  0.00  0.00    +0.000 NA
ATOM     12  C   UNL     1       1.347   8.481  20.609  0.00  0.00    +0.000 A 
ATOM     13  N   UNL     1       0.981   9.431  19.732  0.00  0.00    +0.000 NA
BRANCH  10  14
ATOM     14  O   UNL     1       0.400   9.690  23.736  0.00  0.00    +0.000 OA
ATOM     15  H   UNL     1       0.105   8.822  24.053  0.00  0.00    +0.000 HD
ENDBRANCH  10  14
BRANCH   8  16
ATOM     16  C   UNL     1       0.031  11.639  19.248  0.00  0.00    +0.000 C 
BRANCH  16  17
ATOM     17  S   UNL     1      -1.338  11.139  18.127  0.00  0.00    +0.000 S 
BRANCH  17  22
ATOM     18  C   UNL     1      -6.508  12.843  20.849  0.00  0.00    +0.000 C 
ATOM     19  C   UNL     1      -5.226  12.518  20.139  0.00  0.00    +0.000 A 
ATOM     20  C   UNL     1      -5.234  11.827  18.927  0.00  0.00    +0.000 A 
ATOM     21  C   UNL     1      -4.030  11.476  18.312  0.00  0.00    +0.000 A 
ATOM     22  C   UNL     1      -2.799  11.808  18.892  0.00  0.00    +0.000 A 
ATOM     23  C   UNL     1      -2.792  12.520  20.092  0.00  0.00    +0.000 A 
ATOM     24  C   UNL     1      -3.998  12.874  20.710  0.00  0.00    +0.000 A 
ENDBRANCH  17  22
ENDBRANCH  16  17
ENDBRANCH   8  16
ENDBRANCH   1  12
BRANCH   4  25
ATOM     25  C   UNL     1       2.717   4.873  18.586  0.00  0.00    +0.000 A 
ATOM     26  C   UNL     1       1.402   4.377  18.615  0.00  0.00    +0.000 A 
ATOM     27  C   UNL     1       1.147   3.019  18.815  0.00  0.00    +0.000 A 
ATOM     28  C   UNL     1       2.203   2.132  18.986  0.00  0.00    +0.000 A 
ATOM     29  C   UNL     1       3.516   2.604  18.979  0.00  0.00    +0.000 A 
ATOM     30  C   UNL     1       3.785   3.969  18.794  0.00  0.00    +0.000 A 
BRANCH  30  31
ATOM     31  S   UNL     1       5.502   4.483  18.743  0.00  0.00    +0.000 S 
BRANCH  31  32
ATOM     32  C   UNL     1       5.875   4.603  16.995  0.00  0.00    +0.000 A 
ATOM     33  C   UNL     1       7.163   5.013  16.621  0.00  0.00    +0.000 A 
ATOM     34  C   UNL     1       7.563   4.987  15.274  0.00  0.00    +0.000 A 
ATOM     35  C   UNL     1       6.677   4.550  14.297  0.00  0.00    +0.000 A 
ATOM     36  C   UNL     1       5.385   4.168  14.654  0.00  0.00    +0.000 A 
ATOM     37  C   UNL     1       4.984   4.197  15.996  0.00  0.00    +0.000 A 
ENDBRANCH  31  32
ENDBRANCH  30  31
ENDBRANCH   4  25
TORSDOF 8
ENDMDL
MODEL 4
REMARK VINA RESULT:      -8.9      2.244      9.345
REMARK  Name = 
REMARK  9 active torsions:
REMARK  status: ('A' for Active; 'I' for Inactive)
REMARK    1  A    between atoms: C_1  and  C_2
REMARK    2  A    between atoms: C_5  and  S_6
REMARK    3  A    between atoms: S_6  and  C_7
REMARK    4  A    between atoms: C_7  and  C_8
REMARK    5  A    between atoms: C_10  and  O_11
REMARK    6  A    between atoms: C_13  and  N_14
REMARK    7  A    between atoms: N_17  and  C_18
REMARK    8  A    between atoms: C_23  and  S_24
REMARK    9  A    between atoms: S_24  and  C_25
REMARK                            x       y       z     vdW  Elec       q    Type
REMARK                         _______ _______ _______ _____ _____    ______ ____
ROOT
ATOM      1  N   UNL     1       1.489   6.202  20.220  0.00  0.00    +0.000 NA
ATOM      2  C   UNL     1       2.222   7.181  19.792  0.00  0.00    +0.000 C 
ATOM      3  N   UNL     1       3.528   7.127  19.387  0.00  0.00    +0.000 N 
ATOM      4  N   UNL     1       1.760   8.472  19.689  0.00  0.00    +0.000 N 
ATOM      5  H   UNL     1       3.838   6.150  19.311  0.00  0.00    +0.000 HD
ATOM      6  H   UNL     1       3.722   7.593  18.512  0.00  0.00    +0.000 HD
ATOM      7  H   UNL     1       2.445   9.134  19.346  0.00  0.00    +0.000 HD
ENDROOT
BRANCH   1  12
ATOM      8  C   UNL     1       3.247   3.237  19.355  0.00  0.00    +0.000 A 
ATOM      9  C   UNL     1       2.906   2.379  20.386  0.00  0.00    +0.000 A 
ATOM     10  C   UNL     1       2.045   2.879  21.328  0.00  0.00    +0.000 A 
ATOM     11  N   UNL     1       1.575   4.125  21.331  0.00  0.00    +0.000 NA
ATOM     12  C   UNL     1       1.971   4.898  20.308  0.00  0.00    +0.000 A 
ATOM     13  N   UNL     1       2.799   4.513  19.323  0.00  0.00    +0.000 NA
BRANCH  10  14
ATOM     14  O   UNL     1       1.558   2.090  22.328  0.00  0.00    +0.000 OA
ATOM     15  H   UNL     1       0.977   2.631  22.884  0.00  0.00    +0.000 HD
ENDBRANCH  10  14
BRANCH   8  16
ATOM     16  C   UNL     1       4.118   2.778  18.198  0.00  0.00    +0.000 C 
BRANCH  16  17
ATOM     17  S   UNL     1       4.134   4.020  16.842  0.00  0.00    +0.000 S 
BRANCH  17  22
ATOM     18  C   UNL     1       8.422   8.056  18.381  0.00  0.00    +0.000 C 
ATOM     19  C   UNL     1       7.436   7.011  17.945  0.00  0.00    +0.000 A 
ATOM     20  C   UNL     1       6.525   7.270  16.920  0.00  0.00    +0.000 A 
ATOM     21  C   UNL     1       5.571   6.312  16.569  0.00  0.00    +0.000 A 
ATOM     22  C   UNL     1       5.509   5.079  17.233  0.00  0.00    +0.000 A 
ATOM     23  C   UNL     1       6.435   4.812  18.241  0.00  0.00    +0.000 A 
ATOM     24  C   UNL     1       7.394   5.771  18.593  0.00  0.00    +0.000 A 
ENDBRANCH  17  22
ENDBRANCH  16  17
ENDBRANCH   8  16
ENDBRANCH   1  12
BRANCH   4  25
ATOM     25  C   UNL     1       0.954   9.119  20.667  0.00  0.00    +0.000 A 
ATOM     26  C   UNL     1       0.886   8.638  21.986  0.00  0.00    +0.000 A 
ATOM     27  C   UNL     1       0.189   9.335  22.975  0.00  0.00    +0.000 A 
ATOM     28  C   UNL     1      -0.452  10.529  22.662  0.00  0.00    +0.000 A 
ATOM     29  C   UNL     1      -0.413  11.017  21.355  0.00  0.00    +0.000 A 
ATOM     30  C   UNL     1       0.273  10.318  20.350  0.00  0.00    +0.000 A 
BRANCH  30  31
ATOM     31  S   UNL     1       0.319  11.045  18.711  0.00  0.00    +0.000 S 
BRANCH  31  32
ATOM     32  C   UNL     1      -1.382  10.976  18.151  0.00  0.00    +0.000 A 
ATOM     33  C   UNL     1      -1.748   9.943  17.275  0.00  0.00    +0.000 A 
ATOM     34  C   UNL     1      -3.093   9.747  16.917  0.00  0.00    +0.000 A 
ATOM     35  C   UNL     1      -4.075  10.583  17.432  0.00  0.00    +0.000 A 
ATOM     36  C   UNL     1      -3.720  11.630  18.280  0.00  0.00    +0.000 A 
ATOM     37  C   UNL     1      -2.380  11.828  18.636  0.00  0.00    +0.000 A 
ENDBRANCH  31  32
ENDBRANCH  30  31
ENDBRANCH   4  25
TORSDOF 8
ENDMDL
MODEL 5
REMARK VINA RESULT:      -8.9      1.903      4.109
REMARK  Name = 
REMARK  9 active torsions:
REMARK  status: ('A' for Active; 'I' for Inactive)
REMARK    1  A    between atoms: C_1  and  C_2
REMARK    2  A    between atoms: C_5  and  S_6
REMARK    3  A    between atoms: S_6  and  C_7
REMARK    4  A    between atoms: C_7  and  C_8
REMARK    5  A    between atoms: C_10  and  O_11
REMARK    6  A    between atoms: C_13  and  N_14
REMARK    7  A    between atoms: N_17  and  C_18
REMARK    8  A    between atoms: C_23  and  S_24
REMARK    9  A    between atoms: S_24  and  C_25
REMARK                            x       y       z     vdW  Elec       q    Type
REMARK                         _______ _______ _______ _____ _____    ______ ____
ROOT
ATOM      1  N   UNL     1       2.312   8.064  18.017  0.00  0.00    +0.000 NA
ATOM      2  C   UNL     1       2.461   7.151  18.924  0.00  0.00    +0.000 C 
ATOM      3  N   UNL     1       2.271   7.280  20.273  0.00  0.00    +0.000 N 
ATOM      4  N   UNL     1       2.857   5.867  18.635  0.00  0.00    +0.000 N 
ATOM      5  H   UNL     1       1.828   8.183  20.486  0.00  0.00    +0.000 HD
ATOM      6  H   UNL     1       1.722   6.547  20.698  0.00  0.00    +0.000 HD
ATOM      7  H   UNL     1       2.939   5.263  19.444  0.00  0.00    +0.000 HD
ENDROOT
BRANCH   1  12
ATOM      8  C   UNL     1       0.453  10.696  19.515  0.00  0.00    +0.000 A 
ATOM      9  C   UNL     1       1.018  11.822  18.942  0.00  0.00    +0.000 A 
ATOM     10  C   UNL     1       2.015  11.598  18.028  0.00  0.00    +0.000 A 
ATOM     11  N   UNL     1       2.488  10.394  17.710  0.00  0.00    +0.000 NA
ATOM     12  C   UNL     1       1.899   9.358  18.327  0.00  0.00    +0.000 A 
ATOM     13  N   UNL     1       0.908   9.456  19.228  0.00  0.00    +0.000 NA
BRANCH  10  14
ATOM     14  O   UNL     1       2.570  12.626  17.324  0.00  0.00    +0.000 OA
ATOM     15  H   UNL     1       2.548  12.394  16.383  0.00  0.00    +0.000 HD
ENDBRANCH  10  14
BRANCH   8  16
ATOM     16  C   UNL     1      -0.722  10.801  20.473  0.00  0.00    +0.000 C 
BRANCH  16  17
ATOM     17  S   UNL     1      -1.353  12.526  20.567  0.00  0.00    +0.000 S 
BRANCH  17  22
ATOM     18  C   UNL     1      -6.814  11.651  18.028  0.00  0.00    +0.000 C 
ATOM     19  C   UNL     1      -5.467  11.961  18.612  0.00  0.00    +0.000 A 
ATOM     20  C   UNL     1      -4.300  11.476  18.018  0.00  0.00    +0.000 A 
ATOM     21  C   UNL     1      -3.059  11.718  18.610  0.00  0.00    +0.000 A 
ATOM     22  C   UNL     1      -2.957  12.449  19.801  0.00  0.00    +0.000 A 
ATOM     23  C   UNL     1      -4.121  12.955  20.381  0.00  0.00    +0.000 A 
ATOM     24  C   UNL     1      -5.367  12.714  19.788  0.00  0.00    +0.000 A 
ENDBRANCH  17  22
ENDBRANCH  16  17
ENDBRANCH   8  16
ENDBRANCH   1  12
BRANCH   4  25
ATOM     25  C   UNL     1       3.888   5.530  17.713  0.00  0.00    +0.000 A 
ATOM     26  C   UNL     1       5.013   6.356  17.548  0.00  0.00    +0.000 A 
ATOM     27  C   UNL     1       6.078   5.972  16.730  0.00  0.00    +0.000 A 
ATOM     28  C   UNL     1       6.037   4.752  16.064  0.00  0.00    +0.000 A 
ATOM     29  C   UNL     1       4.922   3.923  16.198  0.00  0.00    +0.000 A 
ATOM     30  C   UNL     1       3.840   4.305  17.006  0.00  0.00    +0.000 A 
BRANCH  30  31
ATOM     31  S   UNL     1       2.472   3.156  17.167  0.00  0.00    +0.000 S 
BRANCH  31  32
ATOM     32  C   UNL     1       2.351   2.859  18.929  0.00  0.00    +0.000 A 
ATOM     33  C   UNL     1       3.525   2.536  19.627  0.00  0.00    +0.000 A 
ATOM     34  C   UNL     1       3.524   2.437  21.029  0.00  0.00    +0.000 A 
ATOM     35  C   UNL     1       2.350   2.659  21.738  0.00  0.00    +0.000 A 
ATOM     36  C   UNL     1       1.171   2.951  21.053  0.00  0.00    +0.000 A 
ATOM     37  C   UNL     1       1.171   3.048  19.656  0.00  0.00    +0.000 A 
ENDBRANCH  31  32
ENDBRANCH  30  31
ENDBRANCH   4  25
TORSDOF 8
ENDMDL
MODEL 6
REMARK VINA RESULT:      -8.8      2.706      4.807
REMARK  Name = 
REMARK  9 active torsions:
REMARK  status: ('A' for Active; 'I' for Inactive)
REMARK    1  A    between atoms: C_1  and  C_2
REMARK    2  A    between atoms: C_5  and  S_6
REMARK    3  A    between atoms: S_6  and  C_7
REMARK    4  A    between atoms: C_7  and  C_8
REMARK    5  A    between atoms: C_10  and  O_11
REMARK    6  A    between atoms: C_13  and  N_14
REMARK    7  A    between atoms: N_17  and  C_18
REMARK    8  A    between atoms: C_23  and  S_24
REMARK    9  A    between atoms: S_24  and  C_25
REMARK                            x       y       z     vdW  Elec       q    Type
REMARK                         _______ _______ _______ _____ _____    ______ ____
ROOT
ATOM      1  N   UNL     1       2.249   8.273  17.965  0.00  0.00    +0.000 NA
ATOM      2  C   UNL     1       2.416   7.361  18.870  0.00  0.00    +0.000 C 
ATOM      3  N   UNL     1       2.244   7.488  20.221  0.00  0.00    +0.000 N 
ATOM      4  N   UNL     1       2.816   6.079  18.574  0.00  0.00    +0.000 N 
ATOM      5  H   UNL     1       1.799   8.388  20.441  0.00  0.00    +0.000 HD
ATOM      6  H   UNL     1       1.706   6.751  20.654  0.00  0.00    +0.000 HD
ATOM      7  H   UNL     1       2.912   5.475  19.382  0.00  0.00    +0.000 HD
ENDROOT
BRANCH   1  12
ATOM      8  C   UNL     1       0.319  10.892  19.395  0.00  0.00    +0.000 A 
ATOM      9  C   UNL     1       0.944  12.024  18.902  0.00  0.00    +0.000 A 
ATOM     10  C   UNL     1       2.006  11.810  18.063  0.00  0.00    +0.000 A 
ATOM     11  N   UNL     1       2.484  10.608  17.746  0.00  0.00    +0.000 NA
ATOM     12  C   UNL     1       1.833   9.564  18.282  0.00  0.00    +0.000 A 
ATOM     13  N   UNL     1       0.775   9.653  19.106  0.00  0.00    +0.000 NA
BRANCH  10  14
ATOM     14  O   UNL     1       2.630  12.848  17.435  0.00  0.00    +0.000 OA
ATOM     15  H   UNL     1       3.312  13.194  18.030  0.00  0.00    +0.000 HD
ENDBRANCH  10  14
BRANCH   8  16
ATOM     16  C   UNL     1      -0.926  10.989  20.261  0.00  0.00    +0.000 C 
BRANCH  16  17
ATOM     17  S   UNL     1      -0.521  10.749  22.039  0.00  0.00    +0.000 S 
BRANCH  17  22
ATOM     18  C   UNL     1      -3.625  15.453  24.337  0.00  0.00    +0.000 C 
ATOM     19  C   UNL     1      -2.832  14.268  23.867  0.00  0.00    +0.000 A 
ATOM     20  C   UNL     1      -1.549  14.428  23.341  0.00  0.00    +0.000 A 
ATOM     21  C   UNL     1      -0.850  13.324  22.848  0.00  0.00    +0.000 A 
ATOM     22  C   UNL     1      -1.416  12.042  22.871  0.00  0.00    +0.000 A 
ATOM     23  C   UNL     1      -2.689  11.879  23.419  0.00  0.00    +0.000 A 
ATOM     24  C   UNL     1      -3.390  12.985  23.916  0.00  0.00    +0.000 A 
ENDBRANCH  17  22
ENDBRANCH  16  17
ENDBRANCH   8  16
ENDBRANCH   1  12
BRANCH   4  25
ATOM     25  C   UNL     1       3.835   5.748  17.637  0.00  0.00    +0.000 A 
ATOM     26  C   UNL     1       4.911   6.620  17.398  0.00  0.00    +0.000 A 
ATOM     27  C   UNL     1       5.970   6.250  16.566  0.00  0.00    +0.000 A 
ATOM     28  C   UNL     1       5.973   4.998  15.961  0.00  0.00    +0.000 A 
ATOM     29  C   UNL     1       4.906   4.123  16.170  0.00  0.00    +0.000 A 
ATOM     30  C   UNL     1       3.829   4.489  16.992  0.00  0.00    +0.000 A 
BRANCH  30  31
ATOM     31  S   UNL     1       2.528   3.282  17.251  0.00  0.00    +0.000 S 
BRANCH  31  32
ATOM     32  C   UNL     1       2.436   3.109  19.031  0.00  0.00    +0.000 A 
ATOM     33  C   UNL     1       1.184   3.261  19.646  0.00  0.00    +0.000 A 
ATOM     34  C   UNL     1       1.018   2.993  21.016  0.00  0.00    +0.000 A 
ATOM     35  C   UNL     1       2.103   2.573  21.775  0.00  0.00    +0.000 A 
ATOM     36  C   UNL     1       3.358   2.447  21.181  0.00  0.00    +0.000 A 
ATOM     37  C   UNL     1       3.525   2.716  19.817  0.00  0.00    +0.000 A 
ENDBRANCH  31  32
ENDBRANCH  30  31
ENDBRANCH   4  25
TORSDOF 8
ENDMDL
MODEL 7
REMARK VINA RESULT:      -8.8      1.454      2.029
REMARK  Name = 
REMARK  9 active torsions:
REMARK  status: ('A' for Active; 'I' for Inactive)
REMARK    1  A    between atoms: C_1  and  C_2
REMARK    2  A    between atoms: C_5  and  S_6
REMARK    3  A    between atoms: S_6  and  C_7
REMARK    4  A    between atoms: C_7  and  C_8
REMARK    5  A    between atoms: C_10  and  O_11
REMARK    6  A    between atoms: C_13  and  N_14
REMARK    7  A    between atoms: N_17  and  C_18
REMARK    8  A    between atoms: C_23  and  S_24
REMARK    9  A    between atoms: S_24  and  C_25
REMARK                            x       y       z     vdW  Elec       q    Type
REMARK                         _______ _______ _______ _____ _____    ______ ____
ROOT
ATOM      1  N   UNL     1       2.094   7.573  19.840  0.00  0.00    +0.000 NA
ATOM      2  C   UNL     1       2.306   7.614  18.563  0.00  0.00    +0.000 C 
ATOM      3  N   UNL     1       1.839   8.542  17.672  0.00  0.00    +0.000 N 
ATOM      4  N   UNL     1       3.063   6.678  17.899  0.00  0.00    +0.000 N 
ATOM      5  H   UNL     1       1.404   9.328  18.170  0.00  0.00    +0.000 HD
ATOM      6  H   UNL     1       2.533   8.910  17.037  0.00  0.00    +0.000 HD
ATOM      7  H   UNL     1       3.138   6.833  16.901  0.00  0.00    +0.000 HD
ENDROOT
BRANCH   1  12
ATOM      8  C   UNL     1       0.849  10.769  20.767  0.00  0.00    +0.000 A 
ATOM      9  C   UNL     1      -0.070  10.455  21.753  0.00  0.00    +0.000 A 
ATOM     10  C   UNL     1      -0.188   9.126  22.066  0.00  0.00    +0.000 A 
ATOM     11  N   UNL     1       0.477   8.147  21.456  0.00  0.00    +0.000 NA
ATOM     12  C   UNL     1       1.332   8.536  20.497  0.00  0.00    +0.000 A 
ATOM     13  N   UNL     1       1.540   9.807  20.115  0.00  0.00    +0.000 NA
BRANCH  10  14
ATOM     14  O   UNL     1      -0.984   8.712  23.094  0.00  0.00    +0.000 OA
ATOM     15  H   UNL     1      -0.707   9.177  23.897  0.00  0.00    +0.000 HD
ENDBRANCH  10  14
BRANCH   8  16
ATOM     16  C   UNL     1       1.144  12.211  20.391  0.00  0.00    +0.000 C 
BRANCH  16  17
ATOM     17  S   UNL     1       0.578  12.583  18.680  0.00  0.00    +0.000 S 
BRANCH  17  22
ATOM     18  C   UNL     1      -5.204  10.756  18.158  0.00  0.00    +0.000 C 
ATOM     19  C   UNL     1      -3.763  11.128  18.352  0.00  0.00    +0.000 A 
ATOM     20  C   UNL     1      -3.401  12.164  19.214  0.00  0.00    +0.000 A 
ATOM     21  C   UNL     1      -2.061  12.541  19.334  0.00  0.00    +0.000 A 
ATOM     22  C   UNL     1      -1.060  11.892  18.600  0.00  0.00    +0.000 A 
ATOM     23  C   UNL     1      -1.420  10.839  17.757  0.00  0.00    +0.000 A 
ATOM     24  C   UNL     1      -2.763  10.459  17.636  0.00  0.00    +0.000 A 
ENDBRANCH  17  22
ENDBRANCH  16  17
ENDBRANCH   8  16
ENDBRANCH   1  12
BRANCH   4  25
ATOM     25  C   UNL     1       3.002   5.276  18.137  0.00  0.00    +0.000 A 
ATOM     26  C   UNL     1       2.077   4.735  19.046  0.00  0.00    +0.000 A 
ATOM     27  C   UNL     1       1.936   3.353  19.197  0.00  0.00    +0.000 A 
ATOM     28  C   UNL     1       2.717   2.489  18.439  0.00  0.00    +0.000 A 
ATOM     29  C   UNL     1       3.655   3.004  17.542  0.00  0.00    +0.000 A 
ATOM     30  C   UNL     1       3.816   4.390  17.392  0.00  0.00    +0.000 A 
BRANCH  30  31
ATOM     31  S   UNL     1       5.004   4.966  16.179  0.00  0.00    +0.000 S 
BRANCH  31  32
ATOM     32  C   UNL     1       6.326   5.674  17.159  0.00  0.00    +0.000 A 
ATOM     33  C   UNL     1       6.771   6.964  16.834  0.00  0.00    +0.000 A 
ATOM     34  C   UNL     1       7.699   7.632  17.652  0.00  0.00    +0.000 A 
ATOM     35  C   UNL     1       8.185   7.012  18.796  0.00  0.00    +0.000 A 
ATOM     36  C   UNL     1       7.772   5.719  19.113  0.00  0.00    +0.000 A 
ATOM     37  C   UNL     1       6.849   5.052  18.297  0.00  0.00    +0.000 A 
ENDBRANCH  31  32
ENDBRANCH  30  31
ENDBRANCH   4  25
TORSDOF 8
ENDMDL
MODEL 8
REMARK VINA RESULT:      -8.8      0.684      1.144
REMARK  Name = 
REMARK  9 active torsions:
REMARK  status: ('A' for Active; 'I' for Inactive)
REMARK    1  A    between atoms: C_1  and  C_2
REMARK    2  A    between atoms: C_5  and  S_6
REMARK    3  A    between atoms: S_6  and  C_7
REMARK    4  A    between atoms: C_7  and  C_8
REMARK    5  A    between atoms: C_10  and  O_11
REMARK    6  A    between atoms: C_13  and  N_14
REMARK    7  A    between atoms: N_17  and  C_18
REMARK    8  A    between atoms: C_23  and  S_24
REMARK    9  A    between atoms: S_24  and  C_25
REMARK                            x       y       z     vdW  Elec       q    Type
REMARK                         _______ _______ _______ _____ _____    ______ ____
ROOT
ATOM      1  N   UNL     1       1.975   7.367  20.107  0.00  0.00    +0.000 NA
ATOM      2  C   UNL     1       2.233   7.285  18.841  0.00  0.00    +0.000 C 
ATOM      3  N   UNL     1       1.897   8.182  17.863  0.00  0.00    +0.000 N 
ATOM      4  N   UNL     1       2.909   6.226  18.282  0.00  0.00    +0.000 N 
ATOM      5  H   UNL     1       1.531   9.046  18.282  0.00  0.00    +0.000 HD
ATOM      6  H   UNL     1       2.647   8.425  17.232  0.00  0.00    +0.000 HD
ATOM      7  H   UNL     1       3.033   6.293  17.280  0.00  0.00    +0.000 HD
ENDROOT
BRANCH   1  12
ATOM      8  C   UNL     1       0.872  10.713  20.576  0.00  0.00    +0.000 A 
ATOM      9  C   UNL     1       0.057  10.603  21.689  0.00  0.00    +0.000 A 
ATOM     10  C   UNL     1      -0.043   9.354  22.243  0.00  0.00    +0.000 A 
ATOM     11  N   UNL     1       0.542   8.263  21.751  0.00  0.00    +0.000 NA
ATOM     12  C   UNL     1       1.297   8.453  20.658  0.00  0.00    +0.000 A 
ATOM     13  N   UNL     1       1.479   9.631  20.038  0.00  0.00    +0.000 NA
BRANCH  10  14
ATOM     14  O   UNL     1      -0.732   9.149  23.402  0.00  0.00    +0.000 OA
ATOM     15  H   UNL     1      -1.372   8.436  23.252  0.00  0.00    +0.000 HD
ENDBRANCH  10  14
BRANCH   8  16
ATOM     16  C   UNL     1       1.143  12.057  19.923  0.00  0.00    +0.000 C 
BRANCH  16  17
ATOM     17  S   UNL     1      -0.117  13.303  20.415  0.00  0.00    +0.000 S 
BRANCH  17  22
ATOM     18  C   UNL     1      -4.965  10.931  17.602  0.00  0.00    +0.000 C 
ATOM     19  C   UNL     1      -3.800  11.609  18.263  0.00  0.00    +0.000 A 
ATOM     20  C   UNL     1      -2.536  11.599  17.671  0.00  0.00    +0.000 A 
ATOM     21  C   UNL     1      -1.449  12.178  18.328  0.00  0.00    +0.000 A 
ATOM     22  C   UNL     1      -1.601  12.778  19.585  0.00  0.00    +0.000 A 
ATOM     23  C   UNL     1      -2.869  12.809  20.166  0.00  0.00    +0.000 A 
ATOM     24  C   UNL     1      -3.962  12.230  19.507  0.00  0.00    +0.000 A 
ENDBRANCH  17  22
ENDBRANCH  16  17
ENDBRANCH   8  16
ENDBRANCH   1  12
BRANCH   4  25
ATOM     25  C   UNL     1       2.692   4.861  18.623  0.00  0.00    +0.000 A 
ATOM     26  C   UNL     1       1.400   4.309  18.617  0.00  0.00    +0.000 A 
ATOM     27  C   UNL     1       1.196   2.945  18.839  0.00  0.00    +0.000 A 
ATOM     28  C   UNL     1       2.283   2.109  19.067  0.00  0.00    +0.000 A 
ATOM     29  C   UNL     1       3.574   2.638  19.095  0.00  0.00    +0.000 A 
ATOM     30  C   UNL     1       3.790   4.009  18.888  0.00  0.00    +0.000 A 
BRANCH  30  31
ATOM     31  S   UNL     1       5.485   4.595  18.884  0.00  0.00    +0.000 S 
BRANCH  31  32
ATOM     32  C   UNL     1       5.975   4.516  17.163  0.00  0.00    +0.000 A 
ATOM     33  C   UNL     1       5.009   4.138  16.218  0.00  0.00    +0.000 A 
ATOM     34  C   UNL     1       5.288   4.199  14.842  0.00  0.00    +0.000 A 
ATOM     35  C   UNL     1       6.532   4.637  14.406  0.00  0.00    +0.000 A 
ATOM     36  C   UNL     1       7.508   4.987  15.337  0.00  0.00    +0.000 A 
ATOM     37  C   UNL     1       7.233   4.925  16.708  0.00  0.00    +0.000 A 
ENDBRANCH  31  32
ENDBRANCH  30  31
ENDBRANCH   4  25
TORSDOF 8
ENDMDL
MODEL 9
REMARK VINA RESULT:      -8.8      2.397      3.153
REMARK  Name = 
REMARK  9 active torsions:
REMARK  status: ('A' for Active; 'I' for Inactive)
REMARK    1  A    between atoms: C_1  and  C_2
REMARK    2  A    between atoms: C_5  and  S_6
REMARK    3  A    between atoms: S_6  and  C_7
REMARK    4  A    between atoms: C_7  and  C_8
REMARK    5  A    between atoms: C_10  and  O_11
REMARK    6  A    between atoms: C_13  and  N_14
REMARK    7  A    between atoms: N_17  and  C_18
REMARK    8  A    between atoms: C_23  and  S_24
REMARK    9  A    between atoms: S_24  and  C_25
REMARK                            x       y       z     vdW  Elec       q    Type
REMARK                         _______ _______ _______ _____ _____    ______ ____
ROOT
ATOM      1  N   UNL     1       1.754   7.953  20.088  0.00  0.00    +0.000 NA
ATOM      2  C   UNL     1       2.338   7.605  18.986  0.00  0.00    +0.000 C 
ATOM      3  N   UNL     1       2.259   8.227  17.770  0.00  0.00    +0.000 N 
ATOM      4  N   UNL     1       3.153   6.502  18.888  0.00  0.00    +0.000 N 
ATOM      5  H   UNL     1       1.783   9.133  17.863  0.00  0.00    +0.000 HD
ATOM      6  H   UNL     1       3.145   8.377  17.309  0.00  0.00    +0.000 HD
ATOM      7  H   UNL     1       3.536   6.347  17.963  0.00  0.00    +0.000 HD
ENDROOT
BRANCH   1  12
ATOM      8  C   UNL     1      -0.352  10.440  21.505  0.00  0.00    +0.000 A 
ATOM      9  C   UNL     1      -0.675  11.217  20.406  0.00  0.00    +0.000 A 
ATOM     10  C   UNL     1      -0.155  10.809  19.206  0.00  0.00    +0.000 A 
ATOM     11  N   UNL     1       0.660   9.767  19.054  0.00  0.00    +0.000 NA
ATOM     12  C   UNL     1       0.940   9.081  20.172  0.00  0.00    +0.000 A 
ATOM     13  N   UNL     1       0.479   9.379  21.398  0.00  0.00    +0.000 NA
BRANCH  10  14
ATOM     14  O   UNL     1      -0.493  11.435  18.042  0.00  0.00    +0.000 OA
ATOM     15  H   UNL     1      -0.385  12.389  18.170  0.00  0.00    +0.000 HD
ENDBRANCH  10  14
BRANCH   8  16
ATOM     16  C   UNL     1      -0.937  10.729  22.877  0.00  0.00    +0.000 C 
BRANCH  16  17
ATOM     17  S   UNL     1      -1.341  12.513  23.068  0.00  0.00    +0.000 S 
BRANCH  17  22
ATOM     18  C   UNL     1      -7.367  13.170  23.618  0.00  0.00    +0.000 C 
ATOM     19  C   UNL     1      -5.898  12.911  23.451  0.00  0.00    +0.000 A 
ATOM     20  C   UNL     1      -5.092  12.618  24.552  0.00  0.00    +0.000 A 
ATOM     21  C   UNL     1      -3.716  12.443  24.389  0.00  0.00    +0.000 A 
ATOM     22  C   UNL     1      -3.119  12.557  23.127  0.00  0.00    +0.000 A 
ATOM     23  C   UNL     1      -3.928  12.826  22.022  0.00  0.00    +0.000 A 
ATOM     24  C   UNL     1      -5.308  13.000  22.184  0.00  0.00    +0.000 A 
ENDBRANCH  17  22
ENDBRANCH  16  17
ENDBRANCH   8  16
ENDBRANCH   1  12
BRANCH   4  25
ATOM     25  C   UNL     1       2.873   5.238  19.480  0.00  0.00    +0.000 A 
ATOM     26  C   UNL     1       2.137   5.143  20.673  0.00  0.00    +0.000 A 
ATOM     27  C   UNL     1       1.764   3.903  21.195  0.00  0.00    +0.000 A 
ATOM     28  C   UNL     1       2.117   2.735  20.530  0.00  0.00    +0.000 A 
ATOM     29  C   UNL     1       2.862   2.803  19.352  0.00  0.00    +0.000 A 
ATOM     30  C   UNL     1       3.256   4.043  18.825  0.00  0.00    +0.000 A 
BRANCH  30  31
ATOM     31  S   UNL     1       4.164   4.043  17.279  0.00  0.00    +0.000 S 
BRANCH  31  32
ATOM     32  C   UNL     1       5.665   4.948  17.649  0.00  0.00    +0.000 A 
ATOM     33  C   UNL     1       6.058   5.965  16.766  0.00  0.00    +0.000 A 
ATOM     34  C   UNL     1       7.140   6.807  17.075  0.00  0.00    +0.000 A 
ATOM     35  C   UNL     1       7.832   6.636  18.267  0.00  0.00    +0.000 A 
ATOM     36  C   UNL     1       7.468   5.610  19.139  0.00  0.00    +0.000 A 
ATOM     37  C   UNL     1       6.392   4.769  18.831  0.00  0.00    +0.000 A 
ENDBRANCH  31  32
ENDBRANCH  30  31
ENDBRANCH   4  25
TORSDOF 8
ENDMDL
