MODEL 1
REMARK VINA RESULT:      -8.3      0.000      0.000
REMARK  Name = 
REMARK  10 active torsions:
REMARK  status: ('A' for Active; 'I' for Inactive)
REMARK    1  A    between atoms: C_1  and  C_2
REMARK    2  A    between atoms: C_2  and  N_3
REMARK    3  A    between atoms: C_6  and  C_7
REMARK    4  A    between atoms: C_13  and  C_14
REMARK    5  A    between atoms: C_14  and  O_16
REMARK    6  A    between atoms: O_16  and  C_17
REMARK    7  A    between atoms: C_17  and  C_18
REMARK    8  A    between atoms: C_18  and  C_19
REMARK    9  A    between atoms: C_19  and  C_20
REMARK   10  A    between atoms: C_20  and  C_21
REMARK                            x       y       z     vdW  Elec       q    Type
REMARK                         _______ _______ _______ _____ _____    ______ ____
ROOT
ATOM      1  N   UNL     1       3.954   5.468  17.904  0.00  0.00    +0.000 NA
ATOM      2  C   UNL     1       4.173   4.032  17.598  0.00  0.00    +0.000 C 
ATOM      3  C   UNL     1       4.662   3.752  16.188  0.00  0.00    +0.000 C 
ATOM      4  C   UNL     1       5.465   4.616  15.546  0.00  0.00    +0.000 C 
ATOM      5  C   UNL     1       5.897   5.847  16.288  0.00  0.00    +0.000 C 
ATOM      6  C   UNL     1       4.713   6.415  17.081  0.00  0.00    +0.000 C 
ENDROOT
BRANCH   4   7
ATOM      7  C   UNL     1       6.056   4.365  14.225  0.00  0.00    +0.000 A 
ATOM      8  C   UNL     1       5.462   3.485  13.315  0.00  0.00    +0.000 A 
ATOM      9  C   UNL     1       6.018   3.306  12.043  0.00  0.00    +0.000 A 
ATOM     10  C   UNL     1       7.166   4.006  11.672  0.00  0.00    +0.000 A 
ATOM     11  C   UNL     1       7.764   4.883  12.571  0.00  0.00    +0.000 A 
ATOM     12  C   UNL     1       7.214   5.058  13.842  0.00  0.00    +0.000 A 
ENDBRANCH   4   7
BRANCH   1  14
ATOM     13  C   UNL     1       2.699   4.983  20.131  0.00  0.00    +0.000 C 
ATOM     14  C   UNL     1       3.548   5.916  19.249  0.00  0.00    +0.000 C 
ENDBRANCH   1  14
BRANCH   5  15
ATOM     15  C   UNL     1       7.028   5.473  17.240  0.00  0.00    +0.000 C 
ATOM     16  O   UNL     1       7.890   4.625  17.032  0.00  0.00    +0.000 OA
BRANCH  15  17
ATOM     17  O   UNL     1       6.992   6.243  18.365  0.00  0.00    +0.000 OA
BRANCH  17  18
ATOM     18  C   UNL     1       8.183   7.005  18.584  0.00  0.00    +0.000 C 
BRANCH  18  19
ATOM     19  C   UNL     1       8.047   8.373  17.918  0.00  0.00    +0.000 C 
BRANCH  19  20
ATOM     20  C   UNL     1       8.937   9.396  18.622  0.00  0.00    +0.000 C 
BRANCH  20  21
ATOM     21  C   UNL     1       8.727  10.806  18.077  0.00  0.00    +0.000 C 
BRANCH  21  22
ATOM     22  C   UNL     1       9.762  11.742  18.647  0.00  0.00    +0.000 A 
ATOM     23  C   UNL     1      10.450  11.413  19.822  0.00  0.00    +0.000 A 
ATOM     24  C   UNL     1      11.374  12.303  20.370  0.00  0.00    +0.000 A 
ATOM     25  C   UNL     1      11.615  13.529  19.751  0.00  0.00    +0.000 A 
ATOM     26  C   UNL     1      10.931  13.868  18.586  0.00  0.00    +0.000 A 
ATOM     27  C   UNL     1      10.004  12.980  18.037  0.00  0.00    +0.000 A 
ENDBRANCH  21  22
ENDBRANCH  20  21
ENDBRANCH  19  20
ENDBRANCH  18  19
ENDBRANCH  17  18
ENDBRANCH  15  17
ENDBRANCH   5  15
TORSDOF 9
ENDMDL
MODEL 2
REMARK VINA RESULT:      -8.1      0.671      1.146
REMARK  Name = 
REMARK  10 active torsions:
REMARK  status: ('A' for Active; 'I' for Inactive)
REMARK    1  A    between atoms: C_1  and  C_2
REMARK    2  A    between atoms: C_2  and  N_3
REMARK    3  A    between atoms: C_6  and  C_7
REMARK    4  A    between atoms: C_13  and  C_14
REMARK    5  A    between atoms: C_14  and  O_16
REMARK    6  A    between atoms: O_16  and  C_17
REMARK    7  A    between atoms: C_17  and  C_18
REMARK    8  A    between atoms: C_18  and  C_19
REMARK    9  A    between atoms: C_19  and  C_20
REMARK   10  A    between atoms: C_20  and  C_21
REMARK                            x       y       z     vdW  Elec       q    Type
REMARK                         _______ _______ _______ _____ _____    ______ ____
ROOT
ATOM      1  N   UNL     1       3.498   5.374  18.011  0.00  0.00    +0.000 NA
ATOM      2  C   UNL     1       3.681   3.963  17.592  0.00  0.00    +0.000 C 
ATOM      3  C   UNL     1       4.283   3.785  16.210  0.00  0.00    +0.000 C 
ATOM      4  C   UNL     1       5.180   4.659  15.724  0.00  0.00    +0.000 C 
ATOM      5  C   UNL     1       5.596   5.795  16.613  0.00  0.00    +0.000 C 
ATOM      6  C   UNL     1       4.370   6.350  17.350  0.00  0.00    +0.000 C 
ENDROOT
BRANCH   4   7
ATOM      7  C   UNL     1       5.878   4.497  14.442  0.00  0.00    +0.000 A 
ATOM      8  C   UNL     1       7.107   5.117  14.197  0.00  0.00    +0.000 A 
ATOM      9  C   UNL     1       7.775   4.901  12.986  0.00  0.00    +0.000 A 
ATOM     10  C   UNL     1       7.223   4.065  12.016  0.00  0.00    +0.000 A 
ATOM     11  C   UNL     1       6.000   3.445  12.252  0.00  0.00    +0.000 A 
ATOM     12  C   UNL     1       5.329   3.664  13.456  0.00  0.00    +0.000 A 
ENDBRANCH   4   7
BRANCH   1  14
ATOM     13  C   UNL     1       2.793   4.607  20.395  0.00  0.00    +0.000 C 
ATOM     14  C   UNL     1       2.990   5.721  19.351  0.00  0.00    +0.000 C 
ENDBRANCH   1  14
BRANCH   5  15
ATOM     15  C   UNL     1       6.617   5.277  17.621  0.00  0.00    +0.000 C 
ATOM     16  O   UNL     1       6.443   4.351  18.406  0.00  0.00    +0.000 OA
BRANCH  15  17
ATOM     17  O   UNL     1       7.794   5.958  17.514  0.00  0.00    +0.000 OA
BRANCH  17  18
ATOM     18  C   UNL     1       7.948   7.004  18.479  0.00  0.00    +0.000 C 
BRANCH  18  19
ATOM     19  C   UNL     1       8.000   8.355  17.767  0.00  0.00    +0.000 C 
BRANCH  19  20
ATOM     20  C   UNL     1       8.822   9.352  18.583  0.00  0.00    +0.000 C 
BRANCH  20  21
ATOM     21  C   UNL     1       8.888  10.720  17.913  0.00  0.00    +0.000 C 
BRANCH  21  22
ATOM     22  C   UNL     1      10.091  11.484  18.407  0.00  0.00    +0.000 A 
ATOM     23  C   UNL     1      10.558  11.307  19.717  0.00  0.00    +0.000 A 
ATOM     24  C   UNL     1      11.642  12.048  20.184  0.00  0.00    +0.000 A 
ATOM     25  C   UNL     1      12.267  12.974  19.350  0.00  0.00    +0.000 A 
ATOM     26  C   UNL     1      11.806  13.162  18.048  0.00  0.00    +0.000 A 
ATOM     27  C   UNL     1      10.720  12.423  17.579  0.00  0.00    +0.000 A 
ENDBRANCH  21  22
ENDBRANCH  20  21
ENDBRANCH  19  20
ENDBRANCH  18  19
ENDBRANCH  17  18
ENDBRANCH  15  17
ENDBRANCH   5  15
TORSDOF 9
ENDMDL
MODEL 3
REMARK VINA RESULT:      -8.1      1.555      4.991
REMARK  Name = 
REMARK  10 active torsions:
REMARK  status: ('A' for Active; 'I' for Inactive)
REMARK    1  A    between atoms: C_1  and  C_2
REMARK    2  A    between atoms: C_2  and  N_3
REMARK    3  A    between atoms: C_6  and  C_7
REMARK    4  A    between atoms: C_13  and  C_14
REMARK    5  A    between atoms: C_14  and  O_16
REMARK    6  A    between atoms: O_16  and  C_17
REMARK    7  A    between atoms: C_17  and  C_18
REMARK    8  A    between atoms: C_18  and  C_19
REMARK    9  A    between atoms: C_19  and  C_20
REMARK   10  A    between atoms: C_20  and  C_21
REMARK                            x       y       z     vdW  Elec       q    Type
REMARK                         _______ _______ _______ _____ _____    ______ ____
ROOT
ATOM      1  N   UNL     1       5.012   5.277  15.942  0.00  0.00    +0.000 NA
ATOM      2  C   UNL     1       4.249   6.251  16.762  0.00  0.00    +0.000 C 
ATOM      3  C   UNL     1       3.313   5.624  17.780  0.00  0.00    +0.000 C 
ATOM      4  C   UNL     1       3.616   4.463  18.383  0.00  0.00    +0.000 C 
ATOM      5  C   UNL     1       4.935   3.829  18.046  0.00  0.00    +0.000 C 
ATOM      6  C   UNL     1       5.197   3.952  16.540  0.00  0.00    +0.000 C 
ENDROOT
BRANCH   4   7
ATOM      7  C   UNL     1       2.810   3.851  19.448  0.00  0.00    +0.000 A 
ATOM      8  C   UNL     1       3.397   3.077  20.453  0.00  0.00    +0.000 A 
ATOM      9  C   UNL     1       2.611   2.550  21.485  0.00  0.00    +0.000 A 
ATOM     10  C   UNL     1       1.238   2.797  21.521  0.00  0.00    +0.000 A 
ATOM     11  C   UNL     1       0.647   3.566  20.523  0.00  0.00    +0.000 A 
ATOM     12  C   UNL     1       1.428   4.086  19.490  0.00  0.00    +0.000 A 
ENDBRANCH   4   7
BRANCH   1  14
ATOM     13  C   UNL     1       7.096   4.733  14.483  0.00  0.00    +0.000 C 
ATOM     14  C   UNL     1       6.016   5.721  14.956  0.00  0.00    +0.000 C 
ENDBRANCH   1  14
BRANCH   5  15
ATOM     15  C   UNL     1       6.034   4.544  18.824  0.00  0.00    +0.000 C 
ATOM     16  O   UNL     1       5.932   4.993  19.961  0.00  0.00    +0.000 OA
BRANCH  15  17
ATOM     17  O   UNL     1       7.191   4.589  18.102  0.00  0.00    +0.000 OA
BRANCH  17  18
ATOM     18  C   UNL     1       8.092   5.621  18.516  0.00  0.00    +0.000 C 
BRANCH  18  19
ATOM     19  C   UNL     1       7.704   6.940  17.849  0.00  0.00    +0.000 C 
BRANCH  19  20
ATOM     20  C   UNL     1       8.380   8.112  18.559  0.00  0.00    +0.000 C 
BRANCH  20  21
ATOM     21  C   UNL     1       8.122   9.436  17.847  0.00  0.00    +0.000 C 
BRANCH  21  22
ATOM     22  C   UNL     1       8.931  10.535  18.486  0.00  0.00    +0.000 A 
ATOM     23  C   UNL     1       9.529  10.344  19.739  0.00  0.00    +0.000 A 
ATOM     24  C   UNL     1      10.239  11.379  20.347  0.00  0.00    +0.000 A 
ATOM     25  C   UNL     1      10.354  12.614  19.711  0.00  0.00    +0.000 A 
ATOM     26  C   UNL     1       9.758  12.817  18.468  0.00  0.00    +0.000 A 
ATOM     27  C   UNL     1       9.046  11.783  17.859  0.00  0.00    +0.000 A 
ENDBRANCH  21  22
ENDBRANCH  20  21
ENDBRANCH  19  20
ENDBRANCH  18  19
ENDBRANCH  17  18
ENDBRANCH  15  17
ENDBRANCH   5  15
TORSDOF 9
ENDMDL
MODEL 4
REMARK VINA RESULT:      -8.0      0.953      1.497
REMARK  Name = 
REMARK  10 active torsions:
REMARK  status: ('A' for Active; 'I' for Inactive)
REMARK    1  A    between atoms: C_1  and  C_2
REMARK    2  A    between atoms: C_2  and  N_3
REMARK    3  A    between atoms: C_6  and  C_7
REMARK    4  A    between atoms: C_13  and  C_14
REMARK    5  A    between atoms: C_14  and  O_16
REMARK    6  A    between atoms: O_16  and  C_17
REMARK    7  A    between atoms: C_17  and  C_18
REMARK    8  A    between atoms: C_18  and  C_19
REMARK    9  A    between atoms: C_19  and  C_20
REMARK   10  A    between atoms: C_20  and  C_21
REMARK                            x       y       z     vdW  Elec       q    Type
REMARK                         _______ _______ _______ _____ _____    ______ ____
ROOT
ATOM      1  N   UNL     1       3.668   5.111  18.189  0.00  0.00    +0.000 NA
ATOM      2  C   UNL     1       4.105   3.737  17.837  0.00  0.00    +0.000 C 
ATOM      3  C   UNL     1       4.635   3.584  16.423  0.00  0.00    +0.000 C 
ATOM      4  C   UNL     1       5.300   4.582  15.816  0.00  0.00    +0.000 C 
ATOM      5  C   UNL     1       5.536   5.838  16.604  0.00  0.00    +0.000 C 
ATOM      6  C   UNL     1       4.277   6.190  17.406  0.00  0.00    +0.000 C 
ENDROOT
BRANCH   4   7
ATOM      7  C   UNL     1       5.927   4.470  14.493  0.00  0.00    +0.000 A 
ATOM      8  C   UNL     1       7.130   5.119  14.199  0.00  0.00    +0.000 A 
ATOM      9  C   UNL     1       7.733   4.952  12.947  0.00  0.00    +0.000 A 
ATOM     10  C   UNL     1       7.140   4.135  11.984  0.00  0.00    +0.000 A 
ATOM     11  C   UNL     1       5.942   3.487  12.269  0.00  0.00    +0.000 A 
ATOM     12  C   UNL     1       5.337   3.658  13.515  0.00  0.00    +0.000 A 
ENDBRANCH   4   7
BRANCH   1  14
ATOM     13  C   UNL     1       2.399   6.744  19.768  0.00  0.00    +0.000 C 
ATOM     14  C   UNL     1       3.194   5.445  19.545  0.00  0.00    +0.000 C 
ENDBRANCH   1  14
BRANCH   5  15
ATOM     15  C   UNL     1       6.708   5.607  17.553  0.00  0.00    +0.000 C 
ATOM     16  O   UNL     1       7.349   4.567  17.661  0.00  0.00    +0.000 OA
BRANCH  15  17
ATOM     17  O   UNL     1       6.993   6.739  18.258  0.00  0.00    +0.000 OA
BRANCH  17  18
ATOM     18  C   UNL     1       7.701   7.729  17.503  0.00  0.00    +0.000 C 
BRANCH  18  19
ATOM     19  C   UNL     1       8.682   8.465  18.413  0.00  0.00    +0.000 C 
BRANCH  19  20
ATOM     20  C   UNL     1       8.455   9.974  18.325  0.00  0.00    +0.000 C 
BRANCH  20  21
ATOM     21  C   UNL     1       9.405  10.747  19.234  0.00  0.00    +0.000 C 
BRANCH  21  22
ATOM     22  C   UNL     1      10.000  11.916  18.491  0.00  0.00    +0.000 A 
ATOM     23  C   UNL     1      11.186  11.765  17.759  0.00  0.00    +0.000 A 
ATOM     24  C   UNL     1      11.757  12.860  17.111  0.00  0.00    +0.000 A 
ATOM     25  C   UNL     1      11.151  14.113  17.189  0.00  0.00    +0.000 A 
ATOM     26  C   UNL     1       9.975  14.274  17.919  0.00  0.00    +0.000 A 
ATOM     27  C   UNL     1       9.403  13.181  18.571  0.00  0.00    +0.000 A 
ENDBRANCH  21  22
ENDBRANCH  20  21
ENDBRANCH  19  20
ENDBRANCH  18  19
ENDBRANCH  17  18
ENDBRANCH  15  17
ENDBRANCH   5  15
TORSDOF 9
ENDMDL
MODEL 5
REMARK VINA RESULT:      -7.9      0.759      1.210
REMARK  Name = 
REMARK  10 active torsions:
REMARK  status: ('A' for Active; 'I' for Inactive)
REMARK    1  A    between atoms: C_1  and  C_2
REMARK    2  A    between atoms: C_2  and  N_3
REMARK    3  A    between atoms: C_6  and  C_7
REMARK    4  A    between atoms: C_13  and  C_14
REMARK    5  A    between atoms: C_14  and  O_16
REMARK    6  A    between atoms: O_16  and  C_17
REMARK    7  A    between atoms: C_17  and  C_18
REMARK    8  A    between atoms: C_18  and  C_19
REMARK    9  A    between atoms: C_19  and  C_20
REMARK   10  A    between atoms: C_20  and  C_21
REMARK                            x       y       z     vdW  Elec       q    Type
REMARK                         _______ _______ _______ _____ _____    ______ ____
ROOT
ATOM      1  N   UNL     1       3.866   4.929  18.098  0.00  0.00    +0.000 NA
ATOM      2  C   UNL     1       4.559   3.635  17.876  0.00  0.00    +0.000 C 
ATOM      3  C   UNL     1       5.029   3.404  16.452  0.00  0.00    +0.000 C 
ATOM      4  C   UNL     1       5.437   4.425  15.679  0.00  0.00    +0.000 C 
ATOM      5  C   UNL     1       5.451   5.796  16.291  0.00  0.00    +0.000 C 
ATOM      6  C   UNL     1       4.193   5.994  17.145  0.00  0.00    +0.000 C 
ENDROOT
BRANCH   4   7
ATOM      7  C   UNL     1       5.999   4.266  14.332  0.00  0.00    +0.000 A 
ATOM      8  C   UNL     1       5.346   3.508  13.355  0.00  0.00    +0.000 A 
ATOM      9  C   UNL     1       5.877   3.417  12.063  0.00  0.00    +0.000 A 
ATOM     10  C   UNL     1       7.059   4.084  11.739  0.00  0.00    +0.000 A 
ATOM     11  C   UNL     1       7.715   4.840  12.706  0.00  0.00    +0.000 A 
ATOM     12  C   UNL     1       7.190   4.926  13.996  0.00  0.00    +0.000 A 
ENDBRANCH   4   7
BRANCH   1  14
ATOM     13  C   UNL     1       2.474   4.409  20.234  0.00  0.00    +0.000 C 
ATOM     14  C   UNL     1       3.409   5.338  19.439  0.00  0.00    +0.000 C 
ENDBRANCH   1  14
BRANCH   5  15
ATOM     15  C   UNL     1       6.696   5.931  17.161  0.00  0.00    +0.000 C 
ATOM     16  O   UNL     1       7.684   5.205  17.117  0.00  0.00    +0.000 OA
BRANCH  15  17
ATOM     17  O   UNL     1       6.596   7.009  17.990  0.00  0.00    +0.000 OA
BRANCH  17  18
ATOM     18  C   UNL     1       7.244   8.184  17.492  0.00  0.00    +0.000 C 
BRANCH  18  19
ATOM     19  C   UNL     1       8.484   8.482  18.332  0.00  0.00    +0.000 C 
BRANCH  19  20
ATOM     20  C   UNL     1       8.930   9.929  18.124  0.00  0.00    +0.000 C 
BRANCH  20  21
ATOM     21  C   UNL     1       9.625  10.495  19.358  0.00  0.00    +0.000 C 
BRANCH  21  22
ATOM     22  C   UNL     1      10.547  11.621  18.964  0.00  0.00    +0.000 A 
ATOM     23  C   UNL     1      10.609  12.059  17.635  0.00  0.00    +0.000 A 
ATOM     24  C   UNL     1      11.496  13.070  17.267  0.00  0.00    +0.000 A 
ATOM     25  C   UNL     1      12.331  13.649  18.221  0.00  0.00    +0.000 A 
ATOM     26  C   UNL     1      12.282  13.215  19.545  0.00  0.00    +0.000 A 
ATOM     27  C   UNL     1      11.397  12.202  19.915  0.00  0.00    +0.000 A 
ENDBRANCH  21  22
ENDBRANCH  20  21
ENDBRANCH  19  20
ENDBRANCH  18  19
ENDBRANCH  17  18
ENDBRANCH  15  17
ENDBRANCH   5  15
TORSDOF 9
ENDMDL
MODEL 6
REMARK VINA RESULT:      -7.9      0.830      1.494
REMARK  Name = 
REMARK  10 active torsions:
REMARK  status: ('A' for Active; 'I' for Inactive)
REMARK    1  A    between atoms: C_1  and  C_2
REMARK    2  A    between atoms: C_2  and  N_3
REMARK    3  A    between atoms: C_6  and  C_7
REMARK    4  A    between atoms: C_13  and  C_14
REMARK    5  A    between atoms: C_14  and  O_16
REMARK    6  A    between atoms: O_16  and  C_17
REMARK    7  A    between atoms: C_17  and  C_18
REMARK    8  A    between atoms: C_18  and  C_19
REMARK    9  A    between atoms: C_19  and  C_20
REMARK   10  A    between atoms: C_20  and  C_21
REMARK                            x       y       z     vdW  Elec       q    Type
REMARK                         _______ _______ _______ _____ _____    ______ ____
ROOT
ATOM      1  N   UNL     1       3.862   5.232  17.917  0.00  0.00    +0.000 NA
ATOM      2  C   UNL     1       4.341   3.849  17.671  0.00  0.00    +0.000 C 
ATOM      3  C   UNL     1       4.788   3.578  16.246  0.00  0.00    +0.000 C 
ATOM      4  C   UNL     1       5.366   4.537  15.504  0.00  0.00    +0.000 C 
ATOM      5  C   UNL     1       5.590   5.875  16.148  0.00  0.00    +0.000 C 
ATOM      6  C   UNL     1       4.368   6.252  16.994  0.00  0.00    +0.000 C 
ENDROOT
BRANCH   4   7
ATOM      7  C   UNL     1       5.913   4.321  14.158  0.00  0.00    +0.000 A 
ATOM      8  C   UNL     1       7.090   4.950  13.740  0.00  0.00    +0.000 A 
ATOM      9  C   UNL     1       7.618   4.683  12.471  0.00  0.00    +0.000 A 
ATOM     10  C   UNL     1       6.977   3.786  11.616  0.00  0.00    +0.000 A 
ATOM     11  C   UNL     1       5.805   3.157  12.025  0.00  0.00    +0.000 A 
ATOM     12  C   UNL     1       5.274   3.427  13.287  0.00  0.00    +0.000 A 
ENDBRANCH   4   7
BRANCH   1  14
ATOM     13  C   UNL     1       2.616   6.960  19.413  0.00  0.00    +0.000 C 
ATOM     14  C   UNL     1       3.457   5.680  19.264  0.00  0.00    +0.000 C 
ENDBRANCH   1  14
BRANCH   5  15
ATOM     15  C   UNL     1       6.828   5.788  17.035  0.00  0.00    +0.000 C 
ATOM     16  O   UNL     1       7.656   4.883  17.024  0.00  0.00    +0.000 OA
BRANCH  15  17
ATOM     17  O   UNL     1       6.932   6.888  17.834  0.00  0.00    +0.000 OA
BRANCH  17  18
ATOM     18  C   UNL     1       7.985   6.805  18.800  0.00  0.00    +0.000 C 
BRANCH  18  19
ATOM     19  C   UNL     1       8.709   8.147  18.888  0.00  0.00    +0.000 C 
BRANCH  19  20
ATOM     20  C   UNL     1       8.279   9.058  17.738  0.00  0.00    +0.000 C 
BRANCH  20  21
ATOM     21  C   UNL     1       8.099  10.503  18.192  0.00  0.00    +0.000 C 
BRANCH  21  22
ATOM     22  C   UNL     1       9.411  11.061  18.681  0.00  0.00    +0.000 A 
ATOM     23  C   UNL     1      10.457  11.313  17.783  0.00  0.00    +0.000 A 
ATOM     24  C   UNL     1      11.684  11.786  18.246  0.00  0.00    +0.000 A 
ATOM     25  C   UNL     1      11.878  12.008  19.608  0.00  0.00    +0.000 A 
ATOM     26  C   UNL     1      10.847  11.755  20.510  0.00  0.00    +0.000 A 
ATOM     27  C   UNL     1       9.619  11.279  20.049  0.00  0.00    +0.000 A 
ENDBRANCH  21  22
ENDBRANCH  20  21
ENDBRANCH  19  20
ENDBRANCH  18  19
ENDBRANCH  17  18
ENDBRANCH  15  17
ENDBRANCH   5  15
TORSDOF 9
ENDMDL
MODEL 7
REMARK VINA RESULT:      -7.8      0.902      1.598
REMARK  Name = 
REMARK  10 active torsions:
REMARK  status: ('A' for Active; 'I' for Inactive)
REMARK    1  A    between atoms: C_1  and  C_2
REMARK    2  A    between atoms: C_2  and  N_3
REMARK    3  A    between atoms: C_6  and  C_7
REMARK    4  A    between atoms: C_13  and  C_14
REMARK    5  A    between atoms: C_14  and  O_16
REMARK    6  A    between atoms: O_16  and  C_17
REMARK    7  A    between atoms: C_17  and  C_18
REMARK    8  A    between atoms: C_18  and  C_19
REMARK    9  A    between atoms: C_19  and  C_20
REMARK   10  A    between atoms: C_20  and  C_21
REMARK                            x       y       z     vdW  Elec       q    Type
REMARK                         _______ _______ _______ _____ _____    ______ ____
ROOT
ATOM      1  N   UNL     1       3.919   5.266  18.139  0.00  0.00    +0.000 NA
ATOM      2  C   UNL     1       4.358   3.882  17.831  0.00  0.00    +0.000 C 
ATOM      3  C   UNL     1       4.831   3.670  16.404  0.00  0.00    +0.000 C 
ATOM      4  C   UNL     1       5.457   4.647  15.726  0.00  0.00    +0.000 C 
ATOM      5  C   UNL     1       5.709   5.940  16.444  0.00  0.00    +0.000 C 
ATOM      6  C   UNL     1       4.480   6.315  17.282  0.00  0.00    +0.000 C 
ENDROOT
BRANCH   4   7
ATOM      7  C   UNL     1       6.029   4.482  14.383  0.00  0.00    +0.000 A 
ATOM      8  C   UNL     1       7.193   5.153  13.999  0.00  0.00    +0.000 A 
ATOM      9  C   UNL     1       7.746   4.935  12.732  0.00  0.00    +0.000 A 
ATOM     10  C   UNL     1       7.142   4.045  11.844  0.00  0.00    +0.000 A 
ATOM     11  C   UNL     1       5.982   3.374  12.218  0.00  0.00    +0.000 A 
ATOM     12  C   UNL     1       5.427   3.595  13.479  0.00  0.00    +0.000 A 
ENDBRANCH   4   7
BRANCH   1  14
ATOM     13  C   UNL     1       2.790   4.624  20.394  0.00  0.00    +0.000 C 
ATOM     14  C   UNL     1       3.497   5.656  19.497  0.00  0.00    +0.000 C 
ENDBRANCH   1  14
BRANCH   5  15
ATOM     15  C   UNL     1       6.922   5.766  17.352  0.00  0.00    +0.000 C 
ATOM     16  O   UNL     1       7.678   4.801  17.361  0.00  0.00    +0.000 OA
BRANCH  15  17
ATOM     17  O   UNL     1       7.096   6.861  18.147  0.00  0.00    +0.000 OA
BRANCH  17  18
ATOM     18  C   UNL     1       7.808   7.929  17.513  0.00  0.00    +0.000 C 
BRANCH  18  19
ATOM     19  C   UNL     1       8.549   8.749  18.568  0.00  0.00    +0.000 C 
BRANCH  19  20
ATOM     20  C   UNL     1       8.476  10.238  18.230  0.00  0.00    +0.000 C 
BRANCH  20  21
ATOM     21  C   UNL     1       9.848  10.817  17.902  0.00  0.00    +0.000 C 
BRANCH  21  22
ATOM     22  C   UNL     1       9.809  12.322  17.979  0.00  0.00    +0.000 A 
ATOM     23  C   UNL     1       8.584  13.002  18.006  0.00  0.00    +0.000 A 
ATOM     24  C   UNL     1       8.553  14.396  18.031  0.00  0.00    +0.000 A 
ATOM     25  C   UNL     1       9.743  15.121  18.027  0.00  0.00    +0.000 A 
ATOM     26  C   UNL     1      10.966  14.455  17.995  0.00  0.00    +0.000 A 
ATOM     27  C   UNL     1      10.999  13.060  17.967  0.00  0.00    +0.000 A 
ENDBRANCH  21  22
ENDBRANCH  20  21
ENDBRANCH  19  20
ENDBRANCH  18  19
ENDBRANCH  17  18
ENDBRANCH  15  17
ENDBRANCH   5  15
TORSDOF 9
ENDMDL
MODEL 8
REMARK VINA RESULT:      -7.7      5.001      6.846
REMARK  Name = 
REMARK  10 active torsions:
REMARK  status: ('A' for Active; 'I' for Inactive)
REMARK    1  A    between atoms: C_1  and  C_2
REMARK    2  A    between atoms: C_2  and  N_3
REMARK    3  A    between atoms: C_6  and  C_7
REMARK    4  A    between atoms: C_13  and  C_14
REMARK    5  A    between atoms: C_14  and  O_16
REMARK    6  A    between atoms: O_16  and  C_17
REMARK    7  A    between atoms: C_17  and  C_18
REMARK    8  A    between atoms: C_18  and  C_19
REMARK    9  A    between atoms: C_19  and  C_20
REMARK   10  A    between atoms: C_20  and  C_21
REMARK                            x       y       z     vdW  Elec       q    Type
REMARK                         _______ _______ _______ _____ _____    ______ ____
ROOT
ATOM      1  N   UNL     1       2.044   3.324  19.353  0.00  0.00    +0.000 NA
ATOM      2  C   UNL     1       3.458   3.103  19.746  0.00  0.00    +0.000 C 
ATOM      3  C   UNL     1       4.452   3.175  18.602  0.00  0.00    +0.000 C 
ATOM      4  C   UNL     1       4.257   4.003  17.562  0.00  0.00    +0.000 C 
ATOM      5  C   UNL     1       3.042   4.884  17.593  0.00  0.00    +0.000 C 
ATOM      6  C   UNL     1       1.841   4.090  18.120  0.00  0.00    +0.000 C 
ENDROOT
BRANCH   4   7
ATOM      7  C   UNL     1       5.222   4.199  16.472  0.00  0.00    +0.000 A 
ATOM      8  C   UNL     1       4.870   3.979  15.137  0.00  0.00    +0.000 A 
ATOM      9  C   UNL     1       5.794   4.226  14.115  0.00  0.00    +0.000 A 
ATOM     10  C   UNL     1       7.072   4.695  14.420  0.00  0.00    +0.000 A 
ATOM     11  C   UNL     1       7.431   4.915  15.746  0.00  0.00    +0.000 A 
ATOM     12  C   UNL     1       6.512   4.664  16.767  0.00  0.00    +0.000 A 
ENDBRANCH   4   7
BRANCH   1  14
ATOM     13  C   UNL     1       1.187   2.704  21.731  0.00  0.00    +0.000 C 
ATOM     14  C   UNL     1       0.962   3.356  20.355  0.00  0.00    +0.000 C 
ENDBRANCH   1  14
BRANCH   5  15
ATOM     15  C   UNL     1       3.322   6.070  18.510  0.00  0.00    +0.000 C 
ATOM     16  O   UNL     1       4.400   6.332  19.035  0.00  0.00    +0.000 OA
BRANCH  15  17
ATOM     17  O   UNL     1       2.213   6.851  18.649  0.00  0.00    +0.000 OA
BRANCH  17  18
ATOM     18  C   UNL     1       2.495   8.254  18.699  0.00  0.00    +0.000 C 
BRANCH  18  19
ATOM     19  C   UNL     1       1.533   9.005  17.780  0.00  0.00    +0.000 C 
BRANCH  19  20
ATOM     20  C   UNL     1       1.058  10.294  18.450  0.00  0.00    +0.000 C 
BRANCH  20  21
ATOM     21  C   UNL     1      -0.405  10.212  18.871  0.00  0.00    +0.000 C 
BRANCH  21  22
ATOM     22  C   UNL     1      -0.513  10.195  20.375  0.00  0.00    +0.000 A 
ATOM     23  C   UNL     1      -0.817  11.368  21.080  0.00  0.00    +0.000 A 
ATOM     24  C   UNL     1      -0.871  11.357  22.473  0.00  0.00    +0.000 A 
ATOM     25  C   UNL     1      -0.619  10.178  23.174  0.00  0.00    +0.000 A 
ATOM     26  C   UNL     1      -0.309   9.009  22.482  0.00  0.00    +0.000 A 
ATOM     27  C   UNL     1      -0.253   9.018  21.087  0.00  0.00    +0.000 A 
ENDBRANCH  21  22
ENDBRANCH  20  21
ENDBRANCH  19  20
ENDBRANCH  18  19
ENDBRANCH  17  18
ENDBRANCH  15  17
ENDBRANCH   5  15
TORSDOF 9
ENDMDL
MODEL 9
REMARK VINA RESULT:      -7.7      4.903      8.123
REMARK  Name = 
REMARK  10 active torsions:
REMARK  status: ('A' for Active; 'I' for Inactive)
REMARK    1  A    between atoms: C_1  and  C_2
REMARK    2  A    between atoms: C_2  and  N_3
REMARK    3  A    between atoms: C_6  and  C_7
REMARK    4  A    between atoms: C_13  and  C_14
REMARK    5  A    between atoms: C_14  and  O_16
REMARK    6  A    between atoms: O_16  and  C_17
REMARK    7  A    between atoms: C_17  and  C_18
REMARK    8  A    between atoms: C_18  and  C_19
REMARK    9  A    between atoms: C_19  and  C_20
REMARK   10  A    between atoms: C_20  and  C_21
REMARK                            x       y       z     vdW  Elec       q    Type
REMARK                         _______ _______ _______ _____ _____    ______ ____
ROOT
ATOM      1  N   UNL     1       6.115   4.589  16.498  0.00  0.00    +0.000 NA
ATOM      2  C   UNL     1       4.888   3.927  15.988  0.00  0.00    +0.000 C 
ATOM      3  C   UNL     1       3.976   3.368  17.065  0.00  0.00    +0.000 C 
ATOM      4  C   UNL     1       3.861   3.968  18.261  0.00  0.00    +0.000 C 
ATOM      5  C   UNL     1       4.636   5.236  18.479  0.00  0.00    +0.000 C 
ATOM      6  C   UNL     1       6.037   5.096  17.871  0.00  0.00    +0.000 C 
ENDROOT
BRANCH   4   7
ATOM      7  C   UNL     1       2.926   3.544  19.310  0.00  0.00    +0.000 A 
ATOM      8  C   UNL     1       3.321   3.461  20.649  0.00  0.00    +0.000 A 
ATOM      9  C   UNL     1       2.394   3.105  21.636  0.00  0.00    +0.000 A 
ATOM     10  C   UNL     1       1.069   2.833  21.292  0.00  0.00    +0.000 A 
ATOM     11  C   UNL     1       0.669   2.912  19.962  0.00  0.00    +0.000 A 
ATOM     12  C   UNL     1       1.594   3.261  18.976  0.00  0.00    +0.000 A 
ENDBRANCH   4   7
BRANCH   1  14
ATOM     13  C   UNL     1       7.093   4.847  14.100  0.00  0.00    +0.000 C 
ATOM     14  C   UNL     1       7.071   5.245  15.587  0.00  0.00    +0.000 C 
ENDBRANCH   1  14
BRANCH   5  15
ATOM     15  C   UNL     1       3.891   6.385  17.808  0.00  0.00    +0.000 C 
ATOM     16  O   UNL     1       4.351   7.135  16.953  0.00  0.00    +0.000 OA
BRANCH  15  17
ATOM     17  O   UNL     1       2.604   6.456  18.252  0.00  0.00    +0.000 OA
BRANCH  17  18
ATOM     18  C   UNL     1       2.380   7.487  19.219  0.00  0.00    +0.000 C 
BRANCH  18  19
ATOM     19  C   UNL     1       1.688   6.899  20.447  0.00  0.00    +0.000 C 
BRANCH  19  20
ATOM     20  C   UNL     1       1.064   8.013  21.287  0.00  0.00    +0.000 C 
BRANCH  20  21
ATOM     21  C   UNL     1       0.933   9.314  20.503  0.00  0.00    +0.000 C 
BRANCH  21  22
ATOM     22  C   UNL     1      -0.031  10.243  21.195  0.00  0.00    +0.000 A 
ATOM     23  C   UNL     1      -0.503  11.393  20.547  0.00  0.00    +0.000 A 
ATOM     24  C   UNL     1      -1.359  12.273  21.208  0.00  0.00    +0.000 A 
ATOM     25  C   UNL     1      -1.748  12.015  22.522  0.00  0.00    +0.000 A 
ATOM     26  C   UNL     1      -1.280  10.878  23.177  0.00  0.00    +0.000 A 
ATOM     27  C   UNL     1      -0.421   9.997  22.519  0.00  0.00    +0.000 A 
ENDBRANCH  21  22
ENDBRANCH  20  21
ENDBRANCH  19  20
ENDBRANCH  18  19
ENDBRANCH  17  18
ENDBRANCH  15  17
ENDBRANCH   5  15
TORSDOF 9
ENDMDL
