MODEL 1
REMARK VINA RESULT:      -7.7      0.000      0.000
REMARK  Name = 
REMARK  5 active torsions:
REMARK  status: ('A' for Active; 'I' for Inactive)
REMARK    1  A    between atoms: C_1  and  C_2
REMARK    2  A    between atoms: C_2  and  O_3
REMARK    3  A    between atoms: O_3  and  C_4
REMARK    4  A    between atoms: C_7  and  C_8
REMARK    5  A    between atoms: C_8  and  C_9
REMARK                            x       y       z     vdW  Elec       q    Type
REMARK                         _______ _______ _______ _____ _____    ______ ____
ROOT
ATOM      1  C   UNL     1       1.702   9.303  18.613  0.00  0.00    +0.000 C 
ATOM      2  O   UNL     1       2.243   9.838  17.636  0.00  0.00    +0.000 OA
ATOM      3  N   UNL     1       1.885   7.961  18.888  0.00  0.00    +0.000 N 
ATOM      4  C   UNL     1       2.309   7.219  17.738  0.00  0.00    +0.000 C 
ATOM      5  C   UNL     1       2.117   5.749  17.924  0.00  0.00    +0.000 C 
ATOM      6  C   UNL     1       3.087   5.267  19.016  0.00  0.00    +0.000 C 
ATOM      7  C   UNL     1       2.729   6.014  20.338  0.00  0.00    +0.000 C 
ATOM      8  C   UNL     1       1.753   7.235  20.169  0.00  0.00    +0.000 C 
ATOM      9  N   UNL     1       4.527   5.578  18.694  0.00  0.00    +0.000 NA
ATOM     10  C   UNL     1       4.938   5.111  17.352  0.00  0.00    +0.000 C 
ATOM     11  C   UNL     1       4.681   3.612  17.044  0.00  0.00    +0.000 C 
ATOM     12  C   UNL     1       3.682   3.048  17.986  0.00  0.00    +0.000 A 
ATOM     13  N   UNL     1       3.112   1.814  17.955  0.00  0.00    +0.000 N 
ATOM     14  C   UNL     1       2.161   1.798  18.934  0.00  0.00    +0.000 A 
ATOM     15  N   UNL     1       2.063   2.957  19.565  0.00  0.00    +0.000 NA
ATOM     16  C   UNL     1       3.002   3.755  18.968  0.00  0.00    +0.000 A 
ATOM     17  H   UNL     1       5.098   5.099  19.394  0.00  0.00    +0.000 HD
ATOM     18  H   UNL     1       3.288   1.083  17.277  0.00  0.00    +0.000 HD
ENDROOT
BRANCH   1  19
ATOM     19  C   UNL     1       0.716  10.112  19.415  0.00  0.00    +0.000 C 
BRANCH  19  23
ATOM     20  C   UNL     1      -2.959  11.160  17.438  0.00  0.00    +0.000 A 
ATOM     21  C   UNL     1      -2.208  10.083  16.965  0.00  0.00    +0.000 A 
ATOM     22  C   UNL     1      -1.012   9.737  17.594  0.00  0.00    +0.000 A 
ATOM     23  C   UNL     1      -0.541  10.486  18.682  0.00  0.00    +0.000 A 
ATOM     24  C   UNL     1      -1.304  11.559  19.151  0.00  0.00    +0.000 A 
ATOM     25  C   UNL     1      -2.500  11.905  18.522  0.00  0.00    +0.000 A 
BRANCH  20  26
ATOM     26  O   UNL     1      -4.134  11.376  16.774  0.00  0.00    +0.000 OA
BRANCH  26  28
ATOM     27  C   UNL     1      -6.081  12.649  17.286  0.00  0.00    +0.000 C 
ATOM     28  C   UNL     1      -5.315  11.373  17.574  0.00  0.00    +0.000 C 
ENDBRANCH  26  28
ENDBRANCH  20  26
ENDBRANCH  19  23
ENDBRANCH   1  19
TORSDOF 4
ENDMDL
MODEL 2
REMARK VINA RESULT:      -7.4      5.017      8.246
REMARK  Name = 
REMARK  5 active torsions:
REMARK  status: ('A' for Active; 'I' for Inactive)
REMARK    1  A    between atoms: C_1  and  C_2
REMARK    2  A    between atoms: C_2  and  O_3
REMARK    3  A    between atoms: O_3  and  C_4
REMARK    4  A    between atoms: C_7  and  C_8
REMARK    5  A    between atoms: C_8  and  C_9
REMARK                            x       y       z     vdW  Elec       q    Type
REMARK                         _______ _______ _______ _____ _____    ______ ____
ROOT
ATOM      1  C   UNL     1       6.431   5.775  16.241  0.00  0.00    +0.000 C 
ATOM      2  O   UNL     1       6.549   7.003  16.348  0.00  0.00    +0.000 OA
ATOM      3  N   UNL     1       5.569   5.064  17.052  0.00  0.00    +0.000 N 
ATOM      4  C   UNL     1       5.246   5.766  18.258  0.00  0.00    +0.000 C 
ATOM      5  C   UNL     1       4.662   4.859  19.291  0.00  0.00    +0.000 C 
ATOM      6  C   UNL     1       3.285   4.382  18.796  0.00  0.00    +0.000 C 
ATOM      7  C   UNL     1       3.501   3.594  17.467  0.00  0.00    +0.000 C 
ATOM      8  C   UNL     1       4.927   3.752  16.824  0.00  0.00    +0.000 C 
ATOM      9  N   UNL     1       2.346   5.523  18.500  0.00  0.00    +0.000 NA
ATOM     10  C   UNL     1       2.223   6.482  19.621  0.00  0.00    +0.000 C 
ATOM     11  C   UNL     1       1.840   5.876  20.997  0.00  0.00    +0.000 C 
ATOM     12  C   UNL     1       2.097   4.415  21.016  0.00  0.00    +0.000 A 
ATOM     13  N   UNL     1       2.005   3.566  22.074  0.00  0.00    +0.000 N 
ATOM     14  C   UNL     1       2.465   2.355  21.646  0.00  0.00    +0.000 A 
ATOM     15  N   UNL     1       2.881   2.386  20.389  0.00  0.00    +0.000 NA
ATOM     16  C   UNL     1       2.670   3.678  19.988  0.00  0.00    +0.000 A 
ATOM     17  H   UNL     1       1.427   5.114  18.322  0.00  0.00    +0.000 HD
ATOM     18  H   UNL     1       1.739   3.806  23.021  0.00  0.00    +0.000 HD
ENDROOT
BRANCH   1  19
ATOM     19  C   UNL     1       7.362   5.049  15.304  0.00  0.00    +0.000 C 
BRANCH  19  23
ATOM     20  C   UNL     1       5.493   3.405  11.794  0.00  0.00    +0.000 A 
ATOM     21  C   UNL     1       4.740   3.575  12.957  0.00  0.00    +0.000 A 
ATOM     22  C   UNL     1       5.336   4.102  14.103  0.00  0.00    +0.000 A 
ATOM     23  C   UNL     1       6.698   4.434  14.105  0.00  0.00    +0.000 A 
ATOM     24  C   UNL     1       7.442   4.264  12.933  0.00  0.00    +0.000 A 
ATOM     25  C   UNL     1       6.846   3.737  11.787  0.00  0.00    +0.000 A 
BRANCH  20  26
ATOM     26  O   UNL     1       4.793   2.926  10.722  0.00  0.00    +0.000 OA
BRANCH  26  28
ATOM     27  C   UNL     1       3.033   4.103   9.631  0.00  0.00    +0.000 C 
ATOM     28  C   UNL     1       3.382   3.142  10.749  0.00  0.00    +0.000 C 
ENDBRANCH  26  28
ENDBRANCH  20  26
ENDBRANCH  19  23
ENDBRANCH   1  19
TORSDOF 4
ENDMDL
MODEL 3
REMARK VINA RESULT:      -7.4      3.102      9.029
REMARK  Name = 
REMARK  5 active torsions:
REMARK  status: ('A' for Active; 'I' for Inactive)
REMARK    1  A    between atoms: C_1  and  C_2
REMARK    2  A    between atoms: C_2  and  O_3
REMARK    3  A    between atoms: O_3  and  C_4
REMARK    4  A    between atoms: C_7  and  C_8
REMARK    5  A    between atoms: C_8  and  C_9
REMARK                            x       y       z     vdW  Elec       q    Type
REMARK                         _______ _______ _______ _____ _____    ______ ____
ROOT
ATOM      1  C   UNL     1       2.480   7.893  18.439  0.00  0.00    +0.000 C 
ATOM      2  O   UNL     1       2.459   8.132  17.224  0.00  0.00    +0.000 OA
ATOM      3  N   UNL     1       1.738   8.643  19.330  0.00  0.00    +0.000 N 
ATOM      4  C   UNL     1       1.383   9.928  18.803  0.00  0.00    +0.000 C 
ATOM      5  C   UNL     1       0.948  10.868  19.878  0.00  0.00    +0.000 C 
ATOM      6  C   UNL     1      -0.382  10.360  20.460  0.00  0.00    +0.000 C 
ATOM      7  C   UNL     1      -0.128   8.947  21.071  0.00  0.00    +0.000 C 
ATOM      8  C   UNL     1       1.244   8.289  20.677  0.00  0.00    +0.000 C 
ATOM      9  N   UNL     1      -1.457  10.217  19.414  0.00  0.00    +0.000 NA
ATOM     10  C   UNL     1      -1.647  11.439  18.601  0.00  0.00    +0.000 C 
ATOM     11  C   UNL     1      -1.904  12.749  19.391  0.00  0.00    +0.000 C 
ATOM     12  C   UNL     1      -1.479  12.600  20.805  0.00  0.00    +0.000 A 
ATOM     13  N   UNL     1      -1.432  13.561  21.767  0.00  0.00    +0.000 N 
ATOM     14  C   UNL     1      -0.852  12.989  22.862  0.00  0.00    +0.000 A 
ATOM     15  N   UNL     1      -0.491  11.734  22.648  0.00  0.00    +0.000 NA
ATOM     16  C   UNL     1      -0.866  11.483  21.355  0.00  0.00    +0.000 A 
ATOM     17  H   UNL     1      -2.330  10.018  19.909  0.00  0.00    +0.000 HD
ATOM     18  H   UNL     1      -1.686  14.534  21.662  0.00  0.00    +0.000 HD
ENDROOT
BRANCH   1  19
ATOM     19  C   UNL     1       3.451   6.858  18.945  0.00  0.00    +0.000 C 
BRANCH  19  23
ATOM     20  C   UNL     1       5.279   4.312  15.997  0.00  0.00    +0.000 A 
ATOM     21  C   UNL     1       5.764   5.608  16.181  0.00  0.00    +0.000 A 
ATOM     22  C   UNL     1       5.177   6.444  17.130  0.00  0.00    +0.000 A 
ATOM     23  C   UNL     1       4.078   6.003  17.880  0.00  0.00    +0.000 A 
ATOM     24  C   UNL     1       3.603   4.701  17.692  0.00  0.00    +0.000 A 
ATOM     25  C   UNL     1       4.190   3.865  16.743  0.00  0.00    +0.000 A 
BRANCH  20  26
ATOM     26  O   UNL     1       5.962   3.569  15.075  0.00  0.00    +0.000 OA
BRANCH  26  28
ATOM     27  C   UNL     1       6.065   3.534  12.696  0.00  0.00    +0.000 C 
ATOM     28  C   UNL     1       6.472   4.283  13.949  0.00  0.00    +0.000 C 
ENDBRANCH  26  28
ENDBRANCH  20  26
ENDBRANCH  19  23
ENDBRANCH   1  19
TORSDOF 4
ENDMDL
MODEL 4
REMARK VINA RESULT:      -7.3      1.531      2.462
REMARK  Name = 
REMARK  5 active torsions:
REMARK  status: ('A' for Active; 'I' for Inactive)
REMARK    1  A    between atoms: C_1  and  C_2
REMARK    2  A    between atoms: C_2  and  O_3
REMARK    3  A    between atoms: O_3  and  C_4
REMARK    4  A    between atoms: C_7  and  C_8
REMARK    5  A    between atoms: C_8  and  C_9
REMARK                            x       y       z     vdW  Elec       q    Type
REMARK                         _______ _______ _______ _____ _____    ______ ____
ROOT
ATOM      1  C   UNL     1       0.544   9.082  20.260  0.00  0.00    +0.000 C 
ATOM      2  O   UNL     1      -0.128   8.667  21.213  0.00  0.00    +0.000 OA
ATOM      3  N   UNL     1       1.487   8.280  19.645  0.00  0.00    +0.000 N 
ATOM      4  C   UNL     1       1.920   7.202  20.483  0.00  0.00    +0.000 C 
ATOM      5  C   UNL     1       3.195   6.597  19.994  0.00  0.00    +0.000 C 
ATOM      6  C   UNL     1       2.917   5.895  18.654  0.00  0.00    +0.000 C 
ATOM      7  C   UNL     1       2.427   6.975  17.640  0.00  0.00    +0.000 C 
ATOM      8  C   UNL     1       2.043   8.360  18.278  0.00  0.00    +0.000 C 
ATOM      9  N   UNL     1       1.838   4.847  18.759  0.00  0.00    +0.000 NA
ATOM     10  C   UNL     1       2.074   3.874  19.848  0.00  0.00    +0.000 C 
ATOM     11  C   UNL     1       3.452   3.159  19.836  0.00  0.00    +0.000 C 
ATOM     12  C   UNL     1       4.421   3.905  18.995  0.00  0.00    +0.000 A 
ATOM     13  N   UNL     1       5.750   3.661  18.841  0.00  0.00    +0.000 N 
ATOM     14  C   UNL     1       6.250   4.682  18.086  0.00  0.00    +0.000 A 
ATOM     15  N   UNL     1       5.330   5.583  17.779  0.00  0.00    +0.000 NA
ATOM     16  C   UNL     1       4.181   5.114  18.358  0.00  0.00    +0.000 A 
ATOM     17  H   UNL     1       1.826   4.342  17.870  0.00  0.00    +0.000 HD
ATOM     18  H   UNL     1       6.284   2.922  19.280  0.00  0.00    +0.000 HD
ENDROOT
BRANCH   1  19
ATOM     19  C   UNL     1       0.418  10.534  19.876  0.00  0.00    +0.000 C 
BRANCH  19  23
ATOM     20  C   UNL     1      -3.298  11.508  17.939  0.00  0.00    +0.000 A 
ATOM     21  C   UNL     1      -2.416  10.616  17.325  0.00  0.00    +0.000 A 
ATOM     22  C   UNL     1      -1.207  10.297  17.941  0.00  0.00    +0.000 A 
ATOM     23  C   UNL     1      -0.853  10.891  19.160  0.00  0.00    +0.000 A 
ATOM     24  C   UNL     1      -1.745  11.779  19.769  0.00  0.00    +0.000 A 
ATOM     25  C   UNL     1      -2.955  12.099  19.153  0.00  0.00    +0.000 A 
BRANCH  20  26
ATOM     26  O   UNL     1      -4.471  11.708  17.267  0.00  0.00    +0.000 OA
BRANCH  26  28
ATOM     27  C   UNL     1      -6.589  11.163  18.209  0.00  0.00    +0.000 C 
ATOM     28  C   UNL     1      -5.547  12.249  18.034  0.00  0.00    +0.000 C 
ENDBRANCH  26  28
ENDBRANCH  20  26
ENDBRANCH  19  23
ENDBRANCH   1  19
TORSDOF 4
ENDMDL
MODEL 5
REMARK VINA RESULT:      -7.3      1.491      2.592
REMARK  Name = 
REMARK  5 active torsions:
REMARK  status: ('A' for Active; 'I' for Inactive)
REMARK    1  A    between atoms: C_1  and  C_2
REMARK    2  A    between atoms: C_2  and  O_3
REMARK    3  A    between atoms: O_3  and  C_4
REMARK    4  A    between atoms: C_7  and  C_8
REMARK    5  A    between atoms: C_8  and  C_9
REMARK                            x       y       z     vdW  Elec       q    Type
REMARK                         _______ _______ _______ _____ _____    ______ ____
ROOT
ATOM      1  C   UNL     1       0.530   8.984  20.285  0.00  0.00    +0.000 C 
ATOM      2  O   UNL     1      -0.117   8.575  21.258  0.00  0.00    +0.000 OA
ATOM      3  N   UNL     1       1.475   8.189  19.666  0.00  0.00    +0.000 N 
ATOM      4  C   UNL     1       1.944   7.134  20.514  0.00  0.00    +0.000 C 
ATOM      5  C   UNL     1       3.220   6.543  20.012  0.00  0.00    +0.000 C 
ATOM      6  C   UNL     1       2.930   5.813  18.689  0.00  0.00    +0.000 C 
ATOM      7  C   UNL     1       2.402   6.866  17.667  0.00  0.00    +0.000 C 
ATOM      8  C   UNL     1       2.006   8.255  18.288  0.00  0.00    +0.000 C 
ATOM      9  N   UNL     1       1.872   4.749  18.832  0.00  0.00    +0.000 NA
ATOM     10  C   UNL     1       2.145   3.798  19.933  0.00  0.00    +0.000 C 
ATOM     11  C   UNL     1       3.535   3.107  19.906  0.00  0.00    +0.000 C 
ATOM     12  C   UNL     1       4.475   3.855  19.036  0.00  0.00    +0.000 A 
ATOM     13  N   UNL     1       5.806   3.632  18.861  0.00  0.00    +0.000 N 
ATOM     14  C   UNL     1       6.273   4.649  18.080  0.00  0.00    +0.000 A 
ATOM     15  N   UNL     1       5.332   5.529  17.775  0.00  0.00    +0.000 NA
ATOM     16  C   UNL     1       4.202   5.049  18.382  0.00  0.00    +0.000 A 
ATOM     17  H   UNL     1       1.853   4.228  17.952  0.00  0.00    +0.000 HD
ATOM     18  H   UNL     1       6.361   2.910  19.302  0.00  0.00    +0.000 HD
ENDROOT
BRANCH   1  19
ATOM     19  C   UNL     1       0.372  10.427  19.880  0.00  0.00    +0.000 C 
BRANCH  19  23
ATOM     20  C   UNL     1      -3.119  11.350  17.539  0.00  0.00    +0.000 A 
ATOM     21  C   UNL     1      -2.950  11.951  18.788  0.00  0.00    +0.000 A 
ATOM     22  C   UNL     1      -1.826  11.656  19.558  0.00  0.00    +0.000 A 
ATOM     23  C   UNL     1      -0.876  10.732  19.100  0.00  0.00    +0.000 A 
ATOM     24  C   UNL     1      -1.051  10.140  17.846  0.00  0.00    +0.000 A 
ATOM     25  C   UNL     1      -2.175  10.435  17.075  0.00  0.00    +0.000 A 
BRANCH  20  26
ATOM     26  O   UNL     1      -4.232  11.751  16.855  0.00  0.00    +0.000 OA
BRANCH  26  28
ATOM     27  C   UNL     1      -6.278  12.930  17.165  0.00  0.00    +0.000 C 
ATOM     28  C   UNL     1      -5.458  11.727  17.586  0.00  0.00    +0.000 C 
ENDBRANCH  26  28
ENDBRANCH  20  26
ENDBRANCH  19  23
ENDBRANCH   1  19
TORSDOF 4
ENDMDL
MODEL 6
REMARK VINA RESULT:      -7.3      0.787      1.270
REMARK  Name = 
REMARK  5 active torsions:
REMARK  status: ('A' for Active; 'I' for Inactive)
REMARK    1  A    between atoms: C_1  and  C_2
REMARK    2  A    between atoms: C_2  and  O_3
REMARK    3  A    between atoms: O_3  and  C_4
REMARK    4  A    between atoms: C_7  and  C_8
REMARK    5  A    between atoms: C_8  and  C_9
REMARK                            x       y       z     vdW  Elec       q    Type
REMARK                         _______ _______ _______ _____ _____    ______ ____
ROOT
ATOM      1  C   UNL     1       1.672  10.027  18.812  0.00  0.00    +0.000 C 
ATOM      2  O   UNL     1       2.301  10.604  17.915  0.00  0.00    +0.000 OA
ATOM      3  N   UNL     1       1.749   8.658  18.976  0.00  0.00    +0.000 N 
ATOM      4  C   UNL     1       2.186   7.987  17.788  0.00  0.00    +0.000 C 
ATOM      5  C   UNL     1       1.886   6.525  17.833  0.00  0.00    +0.000 C 
ATOM      6  C   UNL     1       2.759   5.884  18.926  0.00  0.00    +0.000 C 
ATOM      7  C   UNL     1       2.377   6.540  20.289  0.00  0.00    +0.000 C 
ATOM      8  C   UNL     1       1.497   7.837  20.179  0.00  0.00    +0.000 C 
ATOM      9  N   UNL     1       4.232   6.117  18.705  0.00  0.00    +0.000 NA
ATOM     10  C   UNL     1       4.686   5.738  17.349  0.00  0.00    +0.000 C 
ATOM     11  C   UNL     1       4.347   4.292  16.897  0.00  0.00    +0.000 C 
ATOM     12  C   UNL     1       3.261   3.723  17.734  0.00  0.00    +0.000 A 
ATOM     13  N   UNL     1       2.612   2.540  17.566  0.00  0.00    +0.000 N 
ATOM     14  C   UNL     1       1.610   2.509  18.490  0.00  0.00    +0.000 A 
ATOM     15  N   UNL     1       1.553   3.615  19.216  0.00  0.00    +0.000 NA
ATOM     16  C   UNL     1       2.576   4.391  18.740  0.00  0.00    +0.000 A 
ATOM     17  H   UNL     1       4.730   5.541  19.387  0.00  0.00    +0.000 HD
ATOM     18  H   UNL     1       2.777   1.859  16.836  0.00  0.00    +0.000 HD
ENDROOT
BRANCH   1  19
ATOM     19  C   UNL     1       0.698  10.835  19.632  0.00  0.00    +0.000 C 
BRANCH  19  23
ATOM     20  C   UNL     1      -3.221  11.114  17.880  0.00  0.00    +0.000 A 
ATOM     21  C   UNL     1      -2.906  11.904  18.986  0.00  0.00    +0.000 A 
ATOM     22  C   UNL     1      -1.640  11.819  19.566  0.00  0.00    +0.000 A 
ATOM     23  C   UNL     1      -0.690  10.918  19.064  0.00  0.00    +0.000 A 
ATOM     24  C   UNL     1      -1.015  10.135  17.952  0.00  0.00    +0.000 A 
ATOM     25  C   UNL     1      -2.280  10.220  17.372  0.00  0.00    +0.000 A 
BRANCH  20  26
ATOM     26  O   UNL     1      -4.473  11.317  17.367  0.00  0.00    +0.000 OA
BRANCH  26  28
ATOM     27  C   UNL     1      -6.466  10.713  18.522  0.00  0.00    +0.000 C 
ATOM     28  C   UNL     1      -5.450  11.812  18.282  0.00  0.00    +0.000 C 
ENDBRANCH  26  28
ENDBRANCH  20  26
ENDBRANCH  19  23
ENDBRANCH   1  19
TORSDOF 4
ENDMDL
MODEL 7
REMARK VINA RESULT:      -7.2      0.835      1.285
REMARK  Name = 
REMARK  5 active torsions:
REMARK  status: ('A' for Active; 'I' for Inactive)
REMARK    1  A    between atoms: C_1  and  C_2
REMARK    2  A    between atoms: C_2  and  O_3
REMARK    3  A    between atoms: O_3  and  C_4
REMARK    4  A    between atoms: C_7  and  C_8
REMARK    5  A    between atoms: C_8  and  C_9
REMARK                            x       y       z     vdW  Elec       q    Type
REMARK                         _______ _______ _______ _____ _____    ______ ____
ROOT
ATOM      1  C   UNL     1       1.923   9.343  18.731  0.00  0.00    +0.000 C 
ATOM      2  O   UNL     1       2.451   9.851  17.733  0.00  0.00    +0.000 OA
ATOM      3  N   UNL     1       2.020   7.988  18.983  0.00  0.00    +0.000 N 
ATOM      4  C   UNL     1       2.326   7.232  17.805  0.00  0.00    +0.000 C 
ATOM      5  C   UNL     1       2.034   5.779  17.986  0.00  0.00    +0.000 C 
ATOM      6  C   UNL     1       3.021   5.211  19.021  0.00  0.00    +0.000 C 
ATOM      7  C   UNL     1       2.790   5.964  20.367  0.00  0.00    +0.000 C 
ATOM      8  C   UNL     1       1.901   7.257  20.262  0.00  0.00    +0.000 C 
ATOM      9  N   UNL     1       4.461   5.418  18.626  0.00  0.00    +0.000 NA
ATOM     10  C   UNL     1       4.766   4.941  17.259  0.00  0.00    +0.000 C 
ATOM     11  C   UNL     1       4.381   3.469  16.950  0.00  0.00    +0.000 C 
ATOM     12  C   UNL     1       3.393   2.968  17.938  0.00  0.00    +0.000 A 
ATOM     13  N   UNL     1       2.731   1.780  17.925  0.00  0.00    +0.000 N 
ATOM     14  C   UNL     1       1.835   1.821  18.954  0.00  0.00    +0.000 A 
ATOM     15  N   UNL     1       1.857   2.976  19.600  0.00  0.00    +0.000 NA
ATOM     16  C   UNL     1       2.820   3.710  18.962  0.00  0.00    +0.000 A 
ATOM     17  H   UNL     1       5.031   4.888  19.289  0.00  0.00    +0.000 HD
ATOM     18  H   UNL     1       2.816   1.048  17.232  0.00  0.00    +0.000 HD
ENDROOT
BRANCH   1  19
ATOM     19  C   UNL     1       1.044  10.213  19.593  0.00  0.00    +0.000 C 
BRANCH  19  23
ATOM     20  C   UNL     1      -2.650  11.294  17.671  0.00  0.00    +0.000 A 
ATOM     21  C   UNL     1      -1.704  12.282  17.945  0.00  0.00    +0.000 A 
ATOM     22  C   UNL     1      -0.505  11.945  18.572  0.00  0.00    +0.000 A 
ATOM     23  C   UNL     1      -0.256  10.621  18.961  0.00  0.00    +0.000 A 
ATOM     24  C   UNL     1      -1.208   9.638  18.676  0.00  0.00    +0.000 A 
ATOM     25  C   UNL     1      -2.407   9.975  18.049  0.00  0.00    +0.000 A 
BRANCH  20  26
ATOM     26  O   UNL     1      -3.765  11.733  17.012  0.00  0.00    +0.000 OA
BRANCH  26  28
ATOM     27  C   UNL     1      -3.230  10.679  14.945  0.00  0.00    +0.000 C 
ATOM     28  C   UNL     1      -4.288  10.856  16.016  0.00  0.00    +0.000 C 
ENDBRANCH  26  28
ENDBRANCH  20  26
ENDBRANCH  19  23
ENDBRANCH   1  19
TORSDOF 4
ENDMDL
MODEL 8
REMARK VINA RESULT:      -7.2      1.638      2.599
REMARK  Name = 
REMARK  5 active torsions:
REMARK  status: ('A' for Active; 'I' for Inactive)
REMARK    1  A    between atoms: C_1  and  C_2
REMARK    2  A    between atoms: C_2  and  O_3
REMARK    3  A    between atoms: O_3  and  C_4
REMARK    4  A    between atoms: C_7  and  C_8
REMARK    5  A    between atoms: C_8  and  C_9
REMARK                            x       y       z     vdW  Elec       q    Type
REMARK                         _______ _______ _______ _____ _____    ______ ____
ROOT
ATOM      1  C   UNL     1       0.977   8.622  20.600  0.00  0.00    +0.000 C 
ATOM      2  O   UNL     1       0.361   7.977  21.459  0.00  0.00    +0.000 OA
ATOM      3  N   UNL     1       1.805   7.995  19.689  0.00  0.00    +0.000 N 
ATOM      4  C   UNL     1       2.232   6.702  20.136  0.00  0.00    +0.000 C 
ATOM      5  C   UNL     1       3.415   6.212  19.368  0.00  0.00    +0.000 C 
ATOM      6  C   UNL     1       2.974   5.941  17.918  0.00  0.00    +0.000 C 
ATOM      7  C   UNL     1       2.476   7.289  17.311  0.00  0.00    +0.000 C 
ATOM      8  C   UNL     1       2.247   8.444  18.352  0.00  0.00    +0.000 C 
ATOM      9  N   UNL     1       1.838   4.955  17.830  0.00  0.00    +0.000 NA
ATOM     10  C   UNL     1       2.097   3.699  18.567  0.00  0.00    +0.000 C 
ATOM     11  C   UNL     1       3.415   2.960  18.210  0.00  0.00    +0.000 C 
ATOM     12  C   UNL     1       4.359   3.876  17.523  0.00  0.00    +0.000 A 
ATOM     13  N   UNL     1       5.650   3.631  17.171  0.00  0.00    +0.000 N 
ATOM     14  C   UNL     1       6.153   4.805  16.691  0.00  0.00    +0.000 A 
ATOM     15  N   UNL     1       5.276   5.795  16.750  0.00  0.00    +0.000 NA
ATOM     16  C   UNL     1       4.151   5.228  17.285  0.00  0.00    +0.000 A 
ATOM     17  H   UNL     1       1.714   4.731  16.840  0.00  0.00    +0.000 HD
ATOM     18  H   UNL     1       6.166   2.775  17.324  0.00  0.00    +0.000 HD
ENDROOT
BRANCH   1  19
ATOM     19  C   UNL     1       0.921  10.127  20.661  0.00  0.00    +0.000 C 
BRANCH  19  23
ATOM     20  C   UNL     1      -2.707  11.836  19.104  0.00  0.00    +0.000 A 
ATOM     21  C   UNL     1      -2.050  10.842  18.378  0.00  0.00    +0.000 A 
ATOM     22  C   UNL     1      -0.870  10.284  18.870  0.00  0.00    +0.000 A 
ATOM     23  C   UNL     1      -0.320  10.738  20.077  0.00  0.00    +0.000 A 
ATOM     24  C   UNL     1      -0.990  11.731  20.799  0.00  0.00    +0.000 A 
ATOM     25  C   UNL     1      -2.170  12.289  20.307  0.00  0.00    +0.000 A 
BRANCH  20  26
ATOM     26  O   UNL     1      -3.877  12.273  18.549  0.00  0.00    +0.000 OA
BRANCH  26  28
ATOM     27  C   UNL     1      -5.957  11.821  17.480  0.00  0.00    +0.000 C 
ATOM     28  C   UNL     1      -4.521  11.369  17.652  0.00  0.00    +0.000 C 
ENDBRANCH  26  28
ENDBRANCH  20  26
ENDBRANCH  19  23
ENDBRANCH   1  19
TORSDOF 4
ENDMDL
MODEL 9
REMARK VINA RESULT:      -7.1      2.909      3.835
REMARK  Name = 
REMARK  5 active torsions:
REMARK  status: ('A' for Active; 'I' for Inactive)
REMARK    1  A    between atoms: C_1  and  C_2
REMARK    2  A    between atoms: C_2  and  O_3
REMARK    3  A    between atoms: O_3  and  C_4
REMARK    4  A    between atoms: C_7  and  C_8
REMARK    5  A    between atoms: C_8  and  C_9
REMARK                            x       y       z     vdW  Elec       q    Type
REMARK                         _______ _______ _______ _____ _____    ______ ____
ROOT
ATOM      1  C   UNL     1       0.797   8.738  20.800  0.00  0.00    +0.000 C 
ATOM      2  O   UNL     1       0.006   8.127  21.530  0.00  0.00    +0.000 OA
ATOM      3  N   UNL     1       1.640   8.068  19.935  0.00  0.00    +0.000 N 
ATOM      4  C   UNL     1       1.841   6.701  20.315  0.00  0.00    +0.000 C 
ATOM      5  C   UNL     1       3.033   6.107  19.640  0.00  0.00    +0.000 C 
ATOM      6  C   UNL     1       2.737   6.001  18.134  0.00  0.00    +0.000 C 
ATOM      7  C   UNL     1       2.493   7.443  17.592  0.00  0.00    +0.000 C 
ATOM      8  C   UNL     1       2.292   8.544  18.697  0.00  0.00    +0.000 C 
ATOM      9  N   UNL     1       1.501   5.190  17.840  0.00  0.00    +0.000 NA
ATOM     10  C   UNL     1       1.507   3.861  18.491  0.00  0.00    +0.000 C 
ATOM     11  C   UNL     1       2.752   2.974  18.218  0.00  0.00    +0.000 C 
ATOM     12  C   UNL     1       3.881   3.797  17.718  0.00  0.00    +0.000 A 
ATOM     13  N   UNL     1       5.162   3.402  17.488  0.00  0.00    +0.000 N 
ATOM     14  C   UNL     1       5.866   4.526  17.168  0.00  0.00    +0.000 A 
ATOM     15  N   UNL     1       5.123   5.621  17.214  0.00  0.00    +0.000 NA
ATOM     16  C   UNL     1       3.879   5.178  17.574  0.00  0.00    +0.000 A 
ATOM     17  H   UNL     1       1.469   5.054  16.827  0.00  0.00    +0.000 HD
ATOM     18  H   UNL     1       5.542   2.474  17.623  0.00  0.00    +0.000 HD
ENDROOT
BRANCH   1  19
ATOM     19  C   UNL     1       0.929  10.229  20.982  0.00  0.00    +0.000 C 
BRANCH  19  23
ATOM     20  C   UNL     1      -2.624  12.356  22.151  0.00  0.00    +0.000 A 
ATOM     21  C   UNL     1      -1.872  11.689  23.120  0.00  0.00    +0.000 A 
ATOM     22  C   UNL     1      -0.722  10.992  22.753  0.00  0.00    +0.000 A 
ATOM     23  C   UNL     1      -0.331  10.928  21.408  0.00  0.00    +0.000 A 
ATOM     24  C   UNL     1      -1.088  11.604  20.446  0.00  0.00    +0.000 A 
ATOM     25  C   UNL     1      -2.238  12.301  20.813  0.00  0.00    +0.000 A 
BRANCH  20  26
ATOM     26  O   UNL     1      -3.702  13.044  22.634  0.00  0.00    +0.000 OA
BRANCH  26  28
ATOM     27  C   UNL     1      -5.620  12.843  24.031  0.00  0.00    +0.000 C 
ATOM     28  C   UNL     1      -4.112  12.714  23.960  0.00  0.00    +0.000 C 
ENDBRANCH  26  28
ENDBRANCH  20  26
ENDBRANCH  19  23
ENDBRANCH   1  19
TORSDOF 4
ENDMDL
