MODEL 1
REMARK VINA RESULT:      -6.2      0.000      0.000
REMARK  Name = 
REMARK  23 active torsions:
REMARK  status: ('A' for Active; 'I' for Inactive)
REMARK    1  A    between atoms: C_1  and  C_2
REMARK    2  A    between atoms: C_2  and  C_3
REMARK    3  A    between atoms: C_4  and  C_5
REMARK    4  A    between atoms: C_5  and  C_6
REMARK    5  A    between atoms: C_6  and  C_7
REMARK    6  A    between atoms: C_7  and  C_8
REMARK    7  A    between atoms: C_9  and  C_10
REMARK    8  A    between atoms: C_10  and  C_11
REMARK    9  A    between atoms: C_11  and  C_12
REMARK   10  A    between atoms: C_12  and  C_13
REMARK   11  A    between atoms: C_14  and  C_15
REMARK   12  A    between atoms: C_15  and  O_16
REMARK   13  A    between atoms: O_16  and  C_17
REMARK   14  A    between atoms: C_17  and  C_18
REMARK   15  A    between atoms: C_17  and  C_22
REMARK   16  A    between atoms: C_18  and  O_19
REMARK   17  A    between atoms: C_18  and  C_20
REMARK   18  A    between atoms: C_20  and  O_21
REMARK   19  A    between atoms: C_22  and  O_23
REMARK   20  A    between atoms: C_22  and  C_24
REMARK   21  A    between atoms: C_24  and  O_25
REMARK   22  A    between atoms: C_24  and  C_26
REMARK   23  A    between atoms: C_26  and  O_27
REMARK                            x       y       z     vdW  Elec       q    Type
REMARK                         _______ _______ _______ _____ _____    ______ ____
ROOT
ATOM      1  O   UNL     1       2.830   4.347  17.595  0.00  0.00    +0.000 OA
ENDROOT
BRANCH   1   2
ATOM      2  C   UNL     1       3.730   4.011  18.691  0.00  0.00    +0.000 C 
BRANCH   2   3
ATOM      3  C   UNL     1       3.654   2.490  19.069  0.00  0.00    +0.000 C 
BRANCH   3   4
ATOM      4  O   UNL     1       4.198   1.637  18.058  0.00  0.00    +0.000 OA
ATOM      5  H   UNL     1       3.513   0.987  17.811  0.00  0.00    +0.000 HD
ENDBRANCH   3   4
BRANCH   3   6
ATOM      6  C   UNL     1       4.266   2.145  20.429  0.00  0.00    +0.000 C 
BRANCH   6   7
ATOM      7  O   UNL     1       5.350   1.243  20.267  0.00  0.00    +0.000 OA
ATOM      8  H   UNL     1       4.986   0.417  19.913  0.00  0.00    +0.000 HD
ENDBRANCH   6   7
ENDBRANCH   3   6
ENDBRANCH   2   3
BRANCH   2   9
ATOM      9  C   UNL     1       5.148   4.494  18.314  0.00  0.00    +0.000 C 
BRANCH   9  10
ATOM     10  O   UNL     1       6.132   3.584  18.842  0.00  0.00    +0.000 OA
ATOM     11  H   UNL     1       6.886   4.148  19.119  0.00  0.00    +0.000 HD
ENDBRANCH   9  10
BRANCH   9  12
ATOM     12  C   UNL     1       5.412   4.651  16.799  0.00  0.00    +0.000 C 
BRANCH  12  13
ATOM     13  O   UNL     1       5.556   3.341  16.196  0.00  0.00    +0.000 OA
ATOM     14  H   UNL     1       6.457   3.294  15.823  0.00  0.00    +0.000 HD
ENDBRANCH  12  13
BRANCH  12  15
ATOM     15  C   UNL     1       6.699   5.407  16.462  0.00  0.00    +0.000 C 
BRANCH  15  16
ATOM     16  O   UNL     1       7.815   4.518  16.566  0.00  0.00    +0.000 OA
ATOM     17  H   UNL     1       8.261   4.763  17.400  0.00  0.00    +0.000 HD
ENDBRANCH  15  16
ENDBRANCH  12  15
ENDBRANCH   9  12
ENDBRANCH   2   9
ENDBRANCH   1   2
BRANCH   1  18
ATOM     18  C   UNL     1       1.885   5.327  18.021  0.00  0.00    +0.000 C 
BRANCH  18  21
ATOM     19  C   UNL     1       2.231   7.728  18.477  0.00  0.00    +0.000 C 
ATOM     20  C   UNL     1       2.044   7.410  19.953  0.00  0.00    +0.000 C 
ATOM     21  C   UNL     1       2.197   6.722  17.579  0.00  0.00    +0.000 C 
BRANCH  19  22
ATOM     22  C   UNL     1       2.369   9.178  18.025  0.00  0.00    +0.000 C 
BRANCH  22  23
ATOM     23  C   UNL     1       1.209  10.069  18.480  0.00  0.00    +0.000 C 
BRANCH  23  26
ATOM     24  C   UNL     1      -1.265  10.327  18.399  0.00  0.00    +0.000 C 
ATOM     25  C   UNL     1      -1.196  11.181  19.647  0.00  0.00    +0.000 C 
ATOM     26  C   UNL     1      -0.134   9.805  17.872  0.00  0.00    +0.000 C 
BRANCH  24  27
ATOM     27  C   UNL     1      -2.593  10.044  17.723  0.00  0.00    +0.000 C 
BRANCH  27  28
ATOM     28  C   UNL     1      -3.185  11.216  16.935  0.00  0.00    +0.000 C 
BRANCH  28  32
ATOM     29  C   UNL     1      -6.900  11.818  17.927  0.00  0.00    +0.000 C 
ATOM     30  C   UNL     1      -5.403  11.746  18.018  0.00  0.00    +0.000 C 
ATOM     31  C   UNL     1      -4.764  12.247  19.283  0.00  0.00    +0.000 C 
ATOM     32  C   UNL     1      -4.684  11.268  16.982  0.00  0.00    +0.000 C 
ENDBRANCH  28  32
ENDBRANCH  27  28
ENDBRANCH  24  27
ENDBRANCH  23  26
ENDBRANCH  22  23
ENDBRANCH  19  22
ENDBRANCH  18  21
ENDBRANCH   1  18
TORSDOF 19
ENDMDL
MODEL 2
REMARK VINA RESULT:      -6.2      1.501      2.046
REMARK  Name = 
REMARK  23 active torsions:
REMARK  status: ('A' for Active; 'I' for Inactive)
REMARK    1  A    between atoms: C_1  and  C_2
REMARK    2  A    between atoms: C_2  and  C_3
REMARK    3  A    between atoms: C_4  and  C_5
REMARK    4  A    between atoms: C_5  and  C_6
REMARK    5  A    between atoms: C_6  and  C_7
REMARK    6  A    between atoms: C_7  and  C_8
REMARK    7  A    between atoms: C_9  and  C_10
REMARK    8  A    between atoms: C_10  and  C_11
REMARK    9  A    between atoms: C_11  and  C_12
REMARK   10  A    between atoms: C_12  and  C_13
REMARK   11  A    between atoms: C_14  and  C_15
REMARK   12  A    between atoms: C_15  and  O_16
REMARK   13  A    between atoms: O_16  and  C_17
REMARK   14  A    between atoms: C_17  and  C_18
REMARK   15  A    between atoms: C_17  and  C_22
REMARK   16  A    between atoms: C_18  and  O_19
REMARK   17  A    between atoms: C_18  and  C_20
REMARK   18  A    between atoms: C_20  and  O_21
REMARK   19  A    between atoms: C_22  and  O_23
REMARK   20  A    between atoms: C_22  and  C_24
REMARK   21  A    between atoms: C_24  and  O_25
REMARK   22  A    between atoms: C_24  and  C_26
REMARK   23  A    between atoms: C_26  and  O_27
REMARK                            x       y       z     vdW  Elec       q    Type
REMARK                         _______ _______ _______ _____ _____    ______ ____
ROOT
ATOM      1  O   UNL     1       2.950   5.128  18.927  0.00  0.00    +0.000 OA
ENDROOT
BRANCH   1   2
ATOM      2  C   UNL     1       4.160   4.493  19.436  0.00  0.00    +0.000 C 
BRANCH   2   3
ATOM      3  C   UNL     1       4.205   2.960  19.103  0.00  0.00    +0.000 C 
BRANCH   3   4
ATOM      4  O   UNL     1       5.173   2.250  19.879  0.00  0.00    +0.000 OA
ATOM      5  H   UNL     1       4.710   1.542  20.366  0.00  0.00    +0.000 HD
ENDBRANCH   3   4
BRANCH   3   6
ATOM      6  C   UNL     1       2.848   2.255  19.189  0.00  0.00    +0.000 C 
BRANCH   6   7
ATOM      7  O   UNL     1       2.182   2.613  20.389  0.00  0.00    +0.000 OA
ATOM      8  H   UNL     1       1.232   2.482  20.241  0.00  0.00    +0.000 HD
ENDBRANCH   6   7
ENDBRANCH   3   6
ENDBRANCH   2   3
BRANCH   2   9
ATOM      9  C   UNL     1       5.377   5.286  18.909  0.00  0.00    +0.000 C 
BRANCH   9  10
ATOM     10  O   UNL     1       6.518   5.053  19.757  0.00  0.00    +0.000 OA
ATOM     11  H   UNL     1       6.949   5.928  19.858  0.00  0.00    +0.000 HD
ENDBRANCH   9  10
BRANCH   9  12
ATOM     12  C   UNL     1       5.795   4.966  17.455  0.00  0.00    +0.000 C 
BRANCH  12  13
ATOM     13  O   UNL     1       7.018   4.188  17.465  0.00  0.00    +0.000 OA
ATOM     14  H   UNL     1       6.766   3.260  17.632  0.00  0.00    +0.000 HD
ENDBRANCH  12  13
BRANCH  12  15
ATOM     15  C   UNL     1       6.095   6.201  16.603  0.00  0.00    +0.000 C 
BRANCH  15  16
ATOM     16  O   UNL     1       7.502   6.277  16.352  0.00  0.00    +0.000 OA
ATOM     17  H   UNL     1       7.581   6.534  15.414  0.00  0.00    +0.000 HD
ENDBRANCH  15  16
ENDBRANCH  12  15
ENDBRANCH   9  12
ENDBRANCH   2   9
ENDBRANCH   1   2
BRANCH   1  18
ATOM     18  C   UNL     1       2.748   6.382  19.574  0.00  0.00    +0.000 C 
BRANCH  18  21
ATOM     19  C   UNL     1       1.686   8.557  19.089  0.00  0.00    +0.000 C 
ATOM     20  C   UNL     1       1.292   8.621  20.557  0.00  0.00    +0.000 C 
ATOM     21  C   UNL     1       2.414   7.510  18.649  0.00  0.00    +0.000 C 
BRANCH  19  22
ATOM     22  C   UNL     1       1.184   9.623  18.122  0.00  0.00    +0.000 C 
BRANCH  22  23
ATOM     23  C   UNL     1      -0.279   9.431  17.711  0.00  0.00    +0.000 C 
BRANCH  23  26
ATOM     24  C   UNL     1      -2.477  10.598  17.701  0.00  0.00    +0.000 C 
ATOM     25  C   UNL     1      -2.818   9.901  16.401  0.00  0.00    +0.000 C 
ATOM     26  C   UNL     1      -1.282  10.377  18.295  0.00  0.00    +0.000 C 
BRANCH  24  27
ATOM     27  C   UNL     1      -3.460  11.550  18.355  0.00  0.00    +0.000 C 
BRANCH  27  28
ATOM     28  C   UNL     1      -4.936  11.265  18.059  0.00  0.00    +0.000 C 
BRANCH  28  32
ATOM     29  C   UNL     1      -7.578  11.350  20.916  0.00  0.00    +0.000 C 
ATOM     30  C   UNL     1      -6.759  10.858  19.758  0.00  0.00    +0.000 C 
ATOM     31  C   UNL     1      -6.976   9.439  19.313  0.00  0.00    +0.000 C 
ATOM     32  C   UNL     1      -5.856  11.671  19.173  0.00  0.00    +0.000 C 
ENDBRANCH  28  32
ENDBRANCH  27  28
ENDBRANCH  24  27
ENDBRANCH  23  26
ENDBRANCH  22  23
ENDBRANCH  19  22
ENDBRANCH  18  21
ENDBRANCH   1  18
TORSDOF 19
ENDMDL
MODEL 3
REMARK VINA RESULT:      -6.2      3.240      5.449
REMARK  Name = 
REMARK  23 active torsions:
REMARK  status: ('A' for Active; 'I' for Inactive)
REMARK    1  A    between atoms: C_1  and  C_2
REMARK    2  A    between atoms: C_2  and  C_3
REMARK    3  A    between atoms: C_4  and  C_5
REMARK    4  A    between atoms: C_5  and  C_6
REMARK    5  A    between atoms: C_6  and  C_7
REMARK    6  A    between atoms: C_7  and  C_8
REMARK    7  A    between atoms: C_9  and  C_10
REMARK    8  A    between atoms: C_10  and  C_11
REMARK    9  A    between atoms: C_11  and  C_12
REMARK   10  A    between atoms: C_12  and  C_13
REMARK   11  A    between atoms: C_14  and  C_15
REMARK   12  A    between atoms: C_15  and  O_16
REMARK   13  A    between atoms: O_16  and  C_17
REMARK   14  A    between atoms: C_17  and  C_18
REMARK   15  A    between atoms: C_17  and  C_22
REMARK   16  A    between atoms: C_18  and  O_19
REMARK   17  A    between atoms: C_18  and  C_20
REMARK   18  A    between atoms: C_20  and  O_21
REMARK   19  A    between atoms: C_22  and  O_23
REMARK   20  A    between atoms: C_22  and  C_24
REMARK   21  A    between atoms: C_24  and  O_25
REMARK   22  A    between atoms: C_24  and  C_26
REMARK   23  A    between atoms: C_26  and  O_27
REMARK                            x       y       z     vdW  Elec       q    Type
REMARK                         _______ _______ _______ _____ _____    ______ ____
ROOT
ATOM      1  O   UNL     1       5.025   4.491  17.063  0.00  0.00    +0.000 OA
ENDROOT
BRANCH   1   2
ATOM      2  C   UNL     1       6.105   4.226  16.121  0.00  0.00    +0.000 C 
BRANCH   2   3
ATOM      3  C   UNL     1       5.758   4.722  14.673  0.00  0.00    +0.000 C 
BRANCH   3   4
ATOM      4  O   UNL     1       5.442   6.115  14.623  0.00  0.00    +0.000 OA
ATOM      5  H   UNL     1       5.836   6.485  13.811  0.00  0.00    +0.000 HD
ENDBRANCH   3   4
BRANCH   3   6
ATOM      6  C   UNL     1       6.817   4.388  13.620  0.00  0.00    +0.000 C 
BRANCH   6   7
ATOM      7  O   UNL     1       7.714   5.476  13.460  0.00  0.00    +0.000 OA
ATOM      8  H   UNL     1       7.252   6.157  12.949  0.00  0.00    +0.000 HD
ENDBRANCH   6   7
ENDBRANCH   3   6
ENDBRANCH   2   3
BRANCH   2   9
ATOM      9  C   UNL     1       7.405   4.831  16.697  0.00  0.00    +0.000 C 
BRANCH   9  10
ATOM     10  O   UNL     1       7.434   6.251  16.456  0.00  0.00    +0.000 OA
ATOM     11  H   UNL     1       7.708   6.654  17.307  0.00  0.00    +0.000 HD
ENDBRANCH   9  10
BRANCH   9  12
ATOM     12  C   UNL     1       7.626   4.603  18.211  0.00  0.00    +0.000 C 
BRANCH  12  13
ATOM     13  O   UNL     1       6.463   3.947  18.774  0.00  0.00    +0.000 OA
ATOM     14  H   UNL     1       6.770   3.432  19.545  0.00  0.00    +0.000 HD
ENDBRANCH  12  13
BRANCH  12  15
ATOM     15  C   UNL     1       7.810   5.890  19.018  0.00  0.00    +0.000 C 
BRANCH  15  16
ATOM     16  O   UNL     1       7.887   5.572  20.411  0.00  0.00    +0.000 OA
ATOM     17  H   UNL     1       7.160   6.073  20.828  0.00  0.00    +0.000 HD
ENDBRANCH  15  16
ENDBRANCH  12  15
ENDBRANCH   9  12
ENDBRANCH   2   9
ENDBRANCH   1   2
BRANCH   1  18
ATOM     18  C   UNL     1       3.850   3.786  16.670  0.00  0.00    +0.000 C 
BRANCH  18  21
ATOM     19  C   UNL     1       1.878   3.365  18.094  0.00  0.00    +0.000 C 
ATOM     20  C   UNL     1       1.123   4.369  17.236  0.00  0.00    +0.000 C 
ATOM     21  C   UNL     1       3.156   3.067  17.785  0.00  0.00    +0.000 C 
BRANCH  19  22
ATOM     22  C   UNL     1       1.214   2.776  19.333  0.00  0.00    +0.000 C 
BRANCH  22  23
ATOM     23  C   UNL     1       1.494   3.574  20.610  0.00  0.00    +0.000 C 
BRANCH  23  26
ATOM     24  C   UNL     1       2.217   5.933  20.287  0.00  0.00    +0.000 C 
ATOM     25  C   UNL     1       3.628   5.445  20.037  0.00  0.00    +0.000 C 
ATOM     26  C   UNL     1       1.233   5.048  20.565  0.00  0.00    +0.000 C 
BRANCH  24  27
ATOM     27  C   UNL     1       1.885   7.412  20.233  0.00  0.00    +0.000 C 
BRANCH  27  28
ATOM     28  C   UNL     1       0.930   7.905  21.325  0.00  0.00    +0.000 C 
BRANCH  28  32
ATOM     29  C   UNL     1      -0.884  11.347  21.429  0.00  0.00    +0.000 C 
ATOM     30  C   UNL     1      -0.289  10.045  21.881  0.00  0.00    +0.000 C 
ATOM     31  C   UNL     1      -0.300   9.757  23.356  0.00  0.00    +0.000 C 
ATOM     32  C   UNL     1       0.248   9.196  20.981  0.00  0.00    +0.000 C 
ENDBRANCH  28  32
ENDBRANCH  27  28
ENDBRANCH  24  27
ENDBRANCH  23  26
ENDBRANCH  22  23
ENDBRANCH  19  22
ENDBRANCH  18  21
ENDBRANCH   1  18
TORSDOF 19
ENDMDL
MODEL 4
REMARK VINA RESULT:      -6.1      2.670      4.026
REMARK  Name = 
REMARK  23 active torsions:
REMARK  status: ('A' for Active; 'I' for Inactive)
REMARK    1  A    between atoms: C_1  and  C_2
REMARK    2  A    between atoms: C_2  and  C_3
REMARK    3  A    between atoms: C_4  and  C_5
REMARK    4  A    between atoms: C_5  and  C_6
REMARK    5  A    between atoms: C_6  and  C_7
REMARK    6  A    between atoms: C_7  and  C_8
REMARK    7  A    between atoms: C_9  and  C_10
REMARK    8  A    between atoms: C_10  and  C_11
REMARK    9  A    between atoms: C_11  and  C_12
REMARK   10  A    between atoms: C_12  and  C_13
REMARK   11  A    between atoms: C_14  and  C_15
REMARK   12  A    between atoms: C_15  and  O_16
REMARK   13  A    between atoms: O_16  and  C_17
REMARK   14  A    between atoms: C_17  and  C_18
REMARK   15  A    between atoms: C_17  and  C_22
REMARK   16  A    between atoms: C_18  and  O_19
REMARK   17  A    between atoms: C_18  and  C_20
REMARK   18  A    between atoms: C_20  and  O_21
REMARK   19  A    between atoms: C_22  and  O_23
REMARK   20  A    between atoms: C_22  and  C_24
REMARK   21  A    between atoms: C_24  and  O_25
REMARK   22  A    between atoms: C_24  and  C_26
REMARK   23  A    between atoms: C_26  and  O_27
REMARK                            x       y       z     vdW  Elec       q    Type
REMARK                         _______ _______ _______ _____ _____    ______ ____
ROOT
ATOM      1  O   UNL     1       4.233   3.628  16.819  0.00  0.00    +0.000 OA
ENDROOT
BRANCH   1   2
ATOM      2  C   UNL     1       5.021   4.825  17.086  0.00  0.00    +0.000 C 
BRANCH   2   3
ATOM      3  C   UNL     1       6.203   4.543  18.079  0.00  0.00    +0.000 C 
BRANCH   3   4
ATOM      4  O   UNL     1       7.481   4.550  17.439  0.00  0.00    +0.000 OA
ATOM      5  H   UNL     1       8.155   4.328  18.109  0.00  0.00    +0.000 HD
ENDBRANCH   3   4
BRANCH   3   6
ATOM      6  C   UNL     1       6.228   5.458  19.307  0.00  0.00    +0.000 C 
BRANCH   6   7
ATOM      7  O   UNL     1       7.420   5.254  20.049  0.00  0.00    +0.000 OA
ATOM      8  H   UNL     1       7.410   5.881  20.788  0.00  0.00    +0.000 HD
ENDBRANCH   6   7
ENDBRANCH   3   6
ENDBRANCH   2   3
BRANCH   2   9
ATOM      9  C   UNL     1       5.467   5.418  15.731  0.00  0.00    +0.000 C 
BRANCH   9  10
ATOM     10  O   UNL     1       6.206   6.636  15.949  0.00  0.00    +0.000 OA
ATOM     11  H   UNL     1       5.552   7.278  16.298  0.00  0.00    +0.000 HD
ENDBRANCH   9  10
BRANCH   9  12
ATOM     12  C   UNL     1       6.337   4.486  14.855  0.00  0.00    +0.000 C 
BRANCH  12  13
ATOM     13  O   UNL     1       7.542   5.186  14.457  0.00  0.00    +0.000 OA
ATOM     14  H   UNL     1       7.431   5.437  13.519  0.00  0.00    +0.000 HD
ENDBRANCH  12  13
BRANCH  12  15
ATOM     15  C   UNL     1       5.665   4.041  13.555  0.00  0.00    +0.000 C 
BRANCH  15  16
ATOM     16  O   UNL     1       6.424   2.983  12.964  0.00  0.00    +0.000 OA
ATOM     17  H   UNL     1       6.847   3.379  12.177  0.00  0.00    +0.000 HD
ENDBRANCH  15  16
ENDBRANCH  12  15
ENDBRANCH   9  12
ENDBRANCH   2   9
ENDBRANCH   1   2
BRANCH   1  18
ATOM     18  C   UNL     1       3.325   3.392  17.893  0.00  0.00    +0.000 C 
BRANCH  18  21
ATOM     19  C   UNL     1       2.286   4.635  19.755  0.00  0.00    +0.000 C 
ATOM     20  C   UNL     1       2.504   3.401  20.617  0.00  0.00    +0.000 C 
ATOM     21  C   UNL     1       2.721   4.630  18.478  0.00  0.00    +0.000 C 
BRANCH  19  22
ATOM     22  C   UNL     1       1.509   5.823  20.312  0.00  0.00    +0.000 C 
BRANCH  22  23
ATOM     23  C   UNL     1       2.257   7.153  20.183  0.00  0.00    +0.000 C 
BRANCH  23  26
ATOM     24  C   UNL     1       1.349   9.188  19.076  0.00  0.00    +0.000 C 
ATOM     25  C   UNL     1       2.119   8.826  17.823  0.00  0.00    +0.000 C 
ATOM     26  C   UNL     1       1.432   8.403  20.174  0.00  0.00    +0.000 C 
BRANCH  24  27
ATOM     27  C   UNL     1       0.477  10.429  19.121  0.00  0.00    +0.000 C 
BRANCH  27  28
ATOM     28  C   UNL     1      -0.849  10.265  19.871  0.00  0.00    +0.000 C 
BRANCH  28  32
ATOM     29  C   UNL     1      -1.197  12.555  22.999  0.00  0.00    +0.000 C 
ATOM     30  C   UNL     1      -0.941  11.341  22.153  0.00  0.00    +0.000 C 
ATOM     31  C   UNL     1      -0.441  10.108  22.851  0.00  0.00    +0.000 C 
ATOM     32  C   UNL     1      -1.139  11.391  20.820  0.00  0.00    +0.000 C 
ENDBRANCH  28  32
ENDBRANCH  27  28
ENDBRANCH  24  27
ENDBRANCH  23  26
ENDBRANCH  22  23
ENDBRANCH  19  22
ENDBRANCH  18  21
ENDBRANCH   1  18
TORSDOF 19
ENDMDL
MODEL 5
REMARK VINA RESULT:      -6.0      1.944      3.381
REMARK  Name = 
REMARK  23 active torsions:
REMARK  status: ('A' for Active; 'I' for Inactive)
REMARK    1  A    between atoms: C_1  and  C_2
REMARK    2  A    between atoms: C_2  and  C_3
REMARK    3  A    between atoms: C_4  and  C_5
REMARK    4  A    between atoms: C_5  and  C_6
REMARK    5  A    between atoms: C_6  and  C_7
REMARK    6  A    between atoms: C_7  and  C_8
REMARK    7  A    between atoms: C_9  and  C_10
REMARK    8  A    between atoms: C_10  and  C_11
REMARK    9  A    between atoms: C_11  and  C_12
REMARK   10  A    between atoms: C_12  and  C_13
REMARK   11  A    between atoms: C_14  and  C_15
REMARK   12  A    between atoms: C_15  and  O_16
REMARK   13  A    between atoms: O_16  and  C_17
REMARK   14  A    between atoms: C_17  and  C_18
REMARK   15  A    between atoms: C_17  and  C_22
REMARK   16  A    between atoms: C_18  and  O_19
REMARK   17  A    between atoms: C_18  and  C_20
REMARK   18  A    between atoms: C_20  and  O_21
REMARK   19  A    between atoms: C_22  and  O_23
REMARK   20  A    between atoms: C_22  and  C_24
REMARK   21  A    between atoms: C_24  and  O_25
REMARK   22  A    between atoms: C_24  and  C_26
REMARK   23  A    between atoms: C_26  and  O_27
REMARK                            x       y       z     vdW  Elec       q    Type
REMARK                         _______ _______ _______ _____ _____    ______ ____
ROOT
ATOM      1  O   UNL     1       4.139   6.079  17.271  0.00  0.00    +0.000 OA
ENDROOT
BRANCH   1   2
ATOM      2  C   UNL     1       5.026   4.991  17.663  0.00  0.00    +0.000 C 
BRANCH   2   3
ATOM      3  C   UNL     1       5.838   4.425  16.445  0.00  0.00    +0.000 C 
BRANCH   3   4
ATOM      4  O   UNL     1       5.664   3.017  16.267  0.00  0.00    +0.000 OA
ATOM      5  H   UNL     1       4.936   2.726  16.849  0.00  0.00    +0.000 HD
ENDBRANCH   3   4
BRANCH   3   6
ATOM      6  C   UNL     1       5.585   5.154  15.123  0.00  0.00    +0.000 C 
BRANCH   6   7
ATOM      7  O   UNL     1       6.816   5.520  14.519  0.00  0.00    +0.000 OA
ATOM      8  H   UNL     1       6.641   6.287  13.952  0.00  0.00    +0.000 HD
ENDBRANCH   6   7
ENDBRANCH   3   6
ENDBRANCH   2   3
BRANCH   2   9
ATOM      9  C   UNL     1       5.908   5.486  18.830  0.00  0.00    +0.000 C 
BRANCH   9  10
ATOM     10  O   UNL     1       5.867   4.537  19.913  0.00  0.00    +0.000 OA
ATOM     11  H   UNL     1       5.353   4.976  20.624  0.00  0.00    +0.000 HD
ENDBRANCH   9  10
BRANCH   9  12
ATOM     12  C   UNL     1       7.392   5.738  18.477  0.00  0.00    +0.000 C 
BRANCH  12  13
ATOM     13  O   UNL     1       8.218   5.453  19.633  0.00  0.00    +0.000 OA
ATOM     14  H   UNL     1       7.645   5.022  20.296  0.00  0.00    +0.000 HD
ENDBRANCH  12  13
BRANCH  12  15
ATOM     15  C   UNL     1       7.707   7.184  18.087  0.00  0.00    +0.000 C 
BRANCH  15  16
ATOM     16  O   UNL     1       7.843   7.276  16.666  0.00  0.00    +0.000 OA
ATOM     17  H   UNL     1       8.440   8.034  16.514  0.00  0.00    +0.000 HD
ENDBRANCH  15  16
ENDBRANCH  12  15
ENDBRANCH   9  12
ENDBRANCH   2   9
ENDBRANCH   1   2
BRANCH   1  18
ATOM     18  C   UNL     1       2.903   5.980  17.975  0.00  0.00    +0.000 C 
BRANCH  18  21
ATOM     19  C   UNL     1       2.155   6.833  20.167  0.00  0.00    +0.000 C 
ATOM     20  C   UNL     1       1.950   5.386  20.589  0.00  0.00    +0.000 C 
ATOM     21  C   UNL     1       2.649   7.096  18.940  0.00  0.00    +0.000 C 
BRANCH  19  22
ATOM     22  C   UNL     1       1.722   7.962  21.095  0.00  0.00    +0.000 C 
BRANCH  22  23
ATOM     23  C   UNL     1       0.213   8.227  21.067  0.00  0.00    +0.000 C 
BRANCH  23  26
ATOM     24  C   UNL     1      -0.639  10.501  21.612  0.00  0.00    +0.000 C 
ATOM     25  C   UNL     1      -0.678  10.113  23.076  0.00  0.00    +0.000 C 
ATOM     26  C   UNL     1      -0.231   9.605  20.685  0.00  0.00    +0.000 C 
BRANCH  24  27
ATOM     27  C   UNL     1      -1.055  11.889  21.164  0.00  0.00    +0.000 C 
BRANCH  27  28
ATOM     28  C   UNL     1      -1.124  12.089  19.647  0.00  0.00    +0.000 C 
BRANCH  28  32
ATOM     29  C   UNL     1      -4.331  11.015  17.721  0.00  0.00    +0.000 C 
ATOM     30  C   UNL     1      -2.894  11.091  18.148  0.00  0.00    +0.000 C 
ATOM     31  C   UNL     1      -1.930  10.136  17.501  0.00  0.00    +0.000 C 
ATOM     32  C   UNL     1      -2.514  11.974  19.094  0.00  0.00    +0.000 C 
ENDBRANCH  28  32
ENDBRANCH  27  28
ENDBRANCH  24  27
ENDBRANCH  23  26
ENDBRANCH  22  23
ENDBRANCH  19  22
ENDBRANCH  18  21
ENDBRANCH   1  18
TORSDOF 19
ENDMDL
MODEL 6
REMARK VINA RESULT:      -6.0      5.521      9.282
REMARK  Name = 
REMARK  23 active torsions:
REMARK  status: ('A' for Active; 'I' for Inactive)
REMARK    1  A    between atoms: C_1  and  C_2
REMARK    2  A    between atoms: C_2  and  C_3
REMARK    3  A    between atoms: C_4  and  C_5
REMARK    4  A    between atoms: C_5  and  C_6
REMARK    5  A    between atoms: C_6  and  C_7
REMARK    6  A    between atoms: C_7  and  C_8
REMARK    7  A    between atoms: C_9  and  C_10
REMARK    8  A    between atoms: C_10  and  C_11
REMARK    9  A    between atoms: C_11  and  C_12
REMARK   10  A    between atoms: C_12  and  C_13
REMARK   11  A    between atoms: C_14  and  C_15
REMARK   12  A    between atoms: C_15  and  O_16
REMARK   13  A    between atoms: O_16  and  C_17
REMARK   14  A    between atoms: C_17  and  C_18
REMARK   15  A    between atoms: C_17  and  C_22
REMARK   16  A    between atoms: C_18  and  O_19
REMARK   17  A    between atoms: C_18  and  C_20
REMARK   18  A    between atoms: C_20  and  O_21
REMARK   19  A    between atoms: C_22  and  O_23
REMARK   20  A    between atoms: C_22  and  C_24
REMARK   21  A    between atoms: C_24  and  O_25
REMARK   22  A    between atoms: C_24  and  C_26
REMARK   23  A    between atoms: C_26  and  O_27
REMARK                            x       y       z     vdW  Elec       q    Type
REMARK                         _______ _______ _______ _____ _____    ______ ____
ROOT
ATOM      1  O   UNL     1       3.984   6.059  17.758  0.00  0.00    +0.000 OA
ENDROOT
BRANCH   1   2
ATOM      2  C   UNL     1       3.423   5.754  19.068  0.00  0.00    +0.000 C 
BRANCH   2   3
ATOM      3  C   UNL     1       2.294   6.766  19.475  0.00  0.00    +0.000 C 
BRANCH   3   4
ATOM      4  O   UNL     1       2.162   6.911  20.892  0.00  0.00    +0.000 OA
ATOM      5  H   UNL     1       3.033   6.737  21.295  0.00  0.00    +0.000 HD
ENDBRANCH   3   4
BRANCH   3   6
ATOM      6  C   UNL     1       2.412   8.143  18.817  0.00  0.00    +0.000 C 
BRANCH   6   7
ATOM      7  O   UNL     1       1.958   8.087  17.473  0.00  0.00    +0.000 OA
ATOM      8  H   UNL     1       2.570   8.619  16.941  0.00  0.00    +0.000 HD
ENDBRANCH   6   7
ENDBRANCH   3   6
ENDBRANCH   2   3
BRANCH   2   9
ATOM      9  C   UNL     1       2.971   4.277  19.066  0.00  0.00    +0.000 C 
BRANCH   9  10
ATOM     10  O   UNL     1       1.832   4.111  19.932  0.00  0.00    +0.000 OA
ATOM     11  H   UNL     1       2.205   3.928  20.821  0.00  0.00    +0.000 HD
ENDBRANCH   9  10
BRANCH   9  12
ATOM     12  C   UNL     1       2.601   3.700  17.680  0.00  0.00    +0.000 C 
BRANCH  12  13
ATOM     13  O   UNL     1       1.252   4.103  17.335  0.00  0.00    +0.000 OA
ATOM     14  H   UNL     1       1.319   4.703  16.567  0.00  0.00    +0.000 HD
ENDBRANCH  12  13
BRANCH  12  15
ATOM     15  C   UNL     1       2.607   2.172  17.614  0.00  0.00    +0.000 C 
BRANCH  15  16
ATOM     16  O   UNL     1       1.708   1.649  18.596  0.00  0.00    +0.000 OA
ATOM     17  H   UNL     1       1.758   2.271  19.347  0.00  0.00    +0.000 HD
ENDBRANCH  15  16
ENDBRANCH  12  15
ENDBRANCH   9  12
ENDBRANCH   2   9
ENDBRANCH   1   2
BRANCH   1  18
ATOM     18  C   UNL     1       5.393   5.841  17.766  0.00  0.00    +0.000 C 
BRANCH  18  21
ATOM     19  C   UNL     1       7.400   7.277  17.802  0.00  0.00    +0.000 C 
ATOM     20  C   UNL     1       7.959   6.361  18.880  0.00  0.00    +0.000 C 
ATOM     21  C   UNL     1       6.201   6.991  17.253  0.00  0.00    +0.000 C 
BRANCH  19  22
ATOM     22  C   UNL     1       8.154   8.545  17.418  0.00  0.00    +0.000 C 
BRANCH  22  23
ATOM     23  C   UNL     1       8.380   9.498  18.595  0.00  0.00    +0.000 C 
BRANCH  23  26
ATOM     24  C   UNL     1       9.753  11.528  18.164  0.00  0.00    +0.000 C 
ATOM     25  C   UNL     1       8.530  12.208  17.587  0.00  0.00    +0.000 C 
ATOM     26  C   UNL     1       9.670  10.258  18.621  0.00  0.00    +0.000 C 
BRANCH  24  27
ATOM     27  C   UNL     1      11.084  12.253  18.239  0.00  0.00    +0.000 C 
BRANCH  27  28
ATOM     28  C   UNL     1      11.690  12.358  19.642  0.00  0.00    +0.000 C 
BRANCH  28  32
ATOM     29  C   UNL     1       9.604  14.796  21.845  0.00  0.00    +0.000 C 
ATOM     30  C   UNL     1      10.621  14.293  20.861  0.00  0.00    +0.000 C 
ATOM     31  C   UNL     1      11.439  15.319  20.128  0.00  0.00    +0.000 C 
ATOM     32  C   UNL     1      10.759  12.968  20.648  0.00  0.00    +0.000 C 
ENDBRANCH  28  32
ENDBRANCH  27  28
ENDBRANCH  24  27
ENDBRANCH  23  26
ENDBRANCH  22  23
ENDBRANCH  19  22
ENDBRANCH  18  21
ENDBRANCH   1  18
TORSDOF 19
ENDMDL
MODEL 7
REMARK VINA RESULT:      -5.9      5.529      9.621
REMARK  Name = 
REMARK  23 active torsions:
REMARK  status: ('A' for Active; 'I' for Inactive)
REMARK    1  A    between atoms: C_1  and  C_2
REMARK    2  A    between atoms: C_2  and  C_3
REMARK    3  A    between atoms: C_4  and  C_5
REMARK    4  A    between atoms: C_5  and  C_6
REMARK    5  A    between atoms: C_6  and  C_7
REMARK    6  A    between atoms: C_7  and  C_8
REMARK    7  A    between atoms: C_9  and  C_10
REMARK    8  A    between atoms: C_10  and  C_11
REMARK    9  A    between atoms: C_11  and  C_12
REMARK   10  A    between atoms: C_12  and  C_13
REMARK   11  A    between atoms: C_14  and  C_15
REMARK   12  A    between atoms: C_15  and  O_16
REMARK   13  A    between atoms: O_16  and  C_17
REMARK   14  A    between atoms: C_17  and  C_18
REMARK   15  A    between atoms: C_17  and  C_22
REMARK   16  A    between atoms: C_18  and  O_19
REMARK   17  A    between atoms: C_18  and  C_20
REMARK   18  A    between atoms: C_20  and  O_21
REMARK   19  A    between atoms: C_22  and  O_23
REMARK   20  A    between atoms: C_22  and  C_24
REMARK   21  A    between atoms: C_24  and  O_25
REMARK   22  A    between atoms: C_24  and  C_26
REMARK   23  A    between atoms: C_26  and  O_27
REMARK                            x       y       z     vdW  Elec       q    Type
REMARK                         _______ _______ _______ _____ _____    ______ ____
ROOT
ATOM      1  O   UNL     1       3.650   7.202  17.100  0.00  0.00    +0.000 OA
ENDROOT
BRANCH   1   2
ATOM      2  C   UNL     1       3.430   6.815  18.488  0.00  0.00    +0.000 C 
BRANCH   2   3
ATOM      3  C   UNL     1       2.136   7.474  19.084  0.00  0.00    +0.000 C 
BRANCH   3   4
ATOM      4  O   UNL     1       1.993   7.247  20.489  0.00  0.00    +0.000 OA
ATOM      5  H   UNL     1       1.116   6.848  20.643  0.00  0.00    +0.000 HD
ENDBRANCH   3   4
BRANCH   3   6
ATOM      6  C   UNL     1       1.988   8.966  18.778  0.00  0.00    +0.000 C 
BRANCH   6   7
ATOM      7  O   UNL     1       1.827   9.170  17.383  0.00  0.00    +0.000 OA
ATOM      8  H   UNL     1       2.683   8.990  16.965  0.00  0.00    +0.000 HD
ENDBRANCH   6   7
ENDBRANCH   3   6
ENDBRANCH   2   3
BRANCH   2   9
ATOM      9  C   UNL     1       3.443   5.273  18.566  0.00  0.00    +0.000 C 
BRANCH   9  10
ATOM     10  O   UNL     1       3.756   4.852  19.908  0.00  0.00    +0.000 OA
ATOM     11  H   UNL     1       2.961   4.368  20.220  0.00  0.00    +0.000 HD
ENDBRANCH   9  10
BRANCH   9  12
ATOM     12  C   UNL     1       2.126   4.578  18.146  0.00  0.00    +0.000 C 
BRANCH  12  13
ATOM     13  O   UNL     1       1.349   4.266  19.329  0.00  0.00    +0.000 OA
ATOM     14  H   UNL     1       1.426   3.303  19.477  0.00  0.00    +0.000 HD
ENDBRANCH  12  13
BRANCH  12  15
ATOM     15  C   UNL     1       2.324   3.249  17.415  0.00  0.00    +0.000 C 
BRANCH  15  16
ATOM     16  O   UNL     1       3.194   2.409  18.180  0.00  0.00    +0.000 OA
ATOM     17  H   UNL     1       3.522   1.739  17.550  0.00  0.00    +0.000 HD
ENDBRANCH  15  16
ENDBRANCH  12  15
ENDBRANCH   9  12
ENDBRANCH   2   9
ENDBRANCH   1   2
BRANCH   1  18
ATOM     18  C   UNL     1       4.916   6.721  16.653  0.00  0.00    +0.000 C 
BRANCH  18  21
ATOM     19  C   UNL     1       7.186   6.708  17.622  0.00  0.00    +0.000 C 
ATOM     20  C   UNL     1       7.243   5.221  17.309  0.00  0.00    +0.000 C 
ATOM     21  C   UNL     1       6.093   7.413  17.264  0.00  0.00    +0.000 C 
BRANCH  19  22
ATOM     22  C   UNL     1       8.319   7.363  18.405  0.00  0.00    +0.000 C 
BRANCH  22  23
ATOM     23  C   UNL     1       8.384   8.882  18.224  0.00  0.00    +0.000 C 
BRANCH  23  26
ATOM     24  C   UNL     1       9.394  10.981  19.099  0.00  0.00    +0.000 C 
ATOM     25  C   UNL     1       8.910  11.706  17.861  0.00  0.00    +0.000 C 
ATOM     26  C   UNL     1       9.150   9.660  19.249  0.00  0.00    +0.000 C 
BRANCH  24  27
ATOM     27  C   UNL     1      10.155  11.718  20.185  0.00  0.00    +0.000 C 
BRANCH  27  28
ATOM     28  C   UNL     1      11.626  12.006  19.867  0.00  0.00    +0.000 C 
BRANCH  28  32
ATOM     29  C   UNL     1      12.333  15.532  18.377  0.00  0.00    +0.000 C 
ATOM     30  C   UNL     1      12.122  14.048  18.467  0.00  0.00    +0.000 C 
ATOM     31  C   UNL     1      12.125  13.271  17.180  0.00  0.00    +0.000 C 
ATOM     32  C   UNL     1      11.917  13.464  19.666  0.00  0.00    +0.000 C 
ENDBRANCH  28  32
ENDBRANCH  27  28
ENDBRANCH  24  27
ENDBRANCH  23  26
ENDBRANCH  22  23
ENDBRANCH  19  22
ENDBRANCH  18  21
ENDBRANCH   1  18
TORSDOF 19
ENDMDL
MODEL 8
REMARK VINA RESULT:      -5.9      1.824      2.863
REMARK  Name = 
REMARK  23 active torsions:
REMARK  status: ('A' for Active; 'I' for Inactive)
REMARK    1  A    between atoms: C_1  and  C_2
REMARK    2  A    between atoms: C_2  and  C_3
REMARK    3  A    between atoms: C_4  and  C_5
REMARK    4  A    between atoms: C_5  and  C_6
REMARK    5  A    between atoms: C_6  and  C_7
REMARK    6  A    between atoms: C_7  and  C_8
REMARK    7  A    between atoms: C_9  and  C_10
REMARK    8  A    between atoms: C_10  and  C_11
REMARK    9  A    between atoms: C_11  and  C_12
REMARK   10  A    between atoms: C_12  and  C_13
REMARK   11  A    between atoms: C_14  and  C_15
REMARK   12  A    between atoms: C_15  and  O_16
REMARK   13  A    between atoms: O_16  and  C_17
REMARK   14  A    between atoms: C_17  and  C_18
REMARK   15  A    between atoms: C_17  and  C_22
REMARK   16  A    between atoms: C_18  and  O_19
REMARK   17  A    between atoms: C_18  and  C_20
REMARK   18  A    between atoms: C_20  and  O_21
REMARK   19  A    between atoms: C_22  and  O_23
REMARK   20  A    between atoms: C_22  and  C_24
REMARK   21  A    between atoms: C_24  and  O_25
REMARK   22  A    between atoms: C_24  and  C_26
REMARK   23  A    between atoms: C_26  and  O_27
REMARK                            x       y       z     vdW  Elec       q    Type
REMARK                         _______ _______ _______ _____ _____    ______ ____
ROOT
ATOM      1  O   UNL     1       5.142   5.076  19.410  0.00  0.00    +0.000 OA
ENDROOT
BRANCH   1   2
ATOM      2  C   UNL     1       5.806   4.333  18.346  0.00  0.00    +0.000 C 
BRANCH   2   3
ATOM      3  C   UNL     1       4.865   4.104  17.111  0.00  0.00    +0.000 C 
BRANCH   3   4
ATOM      4  O   UNL     1       5.583   3.812  15.910  0.00  0.00    +0.000 OA
ATOM      5  H   UNL     1       5.743   4.653  15.442  0.00  0.00    +0.000 HD
ENDBRANCH   3   4
BRANCH   3   6
ATOM      6  C   UNL     1       3.773   3.054  17.335  0.00  0.00    +0.000 C 
BRANCH   6   7
ATOM      7  O   UNL     1       4.334   1.865  17.870  0.00  0.00    +0.000 OA
ATOM      8  H   UNL     1       3.792   1.125  17.557  0.00  0.00    +0.000 HD
ENDBRANCH   6   7
ENDBRANCH   3   6
ENDBRANCH   2   3
BRANCH   2   9
ATOM      9  C   UNL     1       7.125   5.059  18.004  0.00  0.00    +0.000 C 
BRANCH   9  10
ATOM     10  O   UNL     1       8.028   4.151  17.344  0.00  0.00    +0.000 OA
ATOM     11  H   UNL     1       7.549   3.842  16.546  0.00  0.00    +0.000 HD
ENDBRANCH   9  10
BRANCH   9  12
ATOM     12  C   UNL     1       6.978   6.313  17.110  0.00  0.00    +0.000 C 
BRANCH  12  13
ATOM     13  O   UNL     1       7.614   6.069  15.830  0.00  0.00    +0.000 OA
ATOM     14  H   UNL     1       7.086   5.387  15.372  0.00  0.00    +0.000 HD
ENDBRANCH  12  13
BRANCH  12  15
ATOM     15  C   UNL     1       7.646   7.567  17.674  0.00  0.00    +0.000 C 
BRANCH  15  16
ATOM     16  O   UNL     1       8.414   7.220  18.830  0.00  0.00    +0.000 OA
ATOM     17  H   UNL     1       8.279   7.956  19.458  0.00  0.00    +0.000 HD
ENDBRANCH  15  16
ENDBRANCH  12  15
ENDBRANCH   9  12
ENDBRANCH   2   9
ENDBRANCH   1   2
BRANCH   1  18
ATOM     18  C   UNL     1       3.729   5.045  19.218  0.00  0.00    +0.000 C 
BRANCH  18  21
ATOM     19  C   UNL     1       1.861   6.078  20.457  0.00  0.00    +0.000 C 
ATOM     20  C   UNL     1       1.372   4.671  20.767  0.00  0.00    +0.000 C 
ATOM     21  C   UNL     1       3.004   6.237  19.760  0.00  0.00    +0.000 C 
BRANCH  19  22
ATOM     22  C   UNL     1       1.016   7.281  20.862  0.00  0.00    +0.000 C 
BRANCH  22  23
ATOM     23  C   UNL     1       1.546   8.608  20.311  0.00  0.00    +0.000 C 
BRANCH  23  26
ATOM     24  C   UNL     1       0.105  10.569  19.792  0.00  0.00    +0.000 C 
ATOM     25  C   UNL     1       0.405  11.129  21.166  0.00  0.00    +0.000 C 
ATOM     26  C   UNL     1       0.636   9.386  19.411  0.00  0.00    +0.000 C 
BRANCH  24  27
ATOM     27  C   UNL     1      -0.790  11.321  18.825  0.00  0.00    +0.000 C 
BRANCH  27  28
ATOM     28  C   UNL     1      -2.066  10.581  18.411  0.00  0.00    +0.000 C 
BRANCH  28  32
ATOM     29  C   UNL     1      -2.951  10.166  14.643  0.00  0.00    +0.000 C 
ATOM     30  C   UNL     1      -3.067  10.537  16.093  0.00  0.00    +0.000 C 
ATOM     31  C   UNL     1      -4.288  11.307  16.512  0.00  0.00    +0.000 C 
ATOM     32  C   UNL     1      -2.089  10.201  16.959  0.00  0.00    +0.000 C 
ENDBRANCH  28  32
ENDBRANCH  27  28
ENDBRANCH  24  27
ENDBRANCH  23  26
ENDBRANCH  22  23
ENDBRANCH  19  22
ENDBRANCH  18  21
ENDBRANCH   1  18
TORSDOF 19
ENDMDL
MODEL 9
REMARK VINA RESULT:      -5.8      5.538      9.208
REMARK  Name = 
REMARK  23 active torsions:
REMARK  status: ('A' for Active; 'I' for Inactive)
REMARK    1  A    between atoms: C_1  and  C_2
REMARK    2  A    between atoms: C_2  and  C_3
REMARK    3  A    between atoms: C_4  and  C_5
REMARK    4  A    between atoms: C_5  and  C_6
REMARK    5  A    between atoms: C_6  and  C_7
REMARK    6  A    between atoms: C_7  and  C_8
REMARK    7  A    between atoms: C_9  and  C_10
REMARK    8  A    between atoms: C_10  and  C_11
REMARK    9  A    between atoms: C_11  and  C_12
REMARK   10  A    between atoms: C_12  and  C_13
REMARK   11  A    between atoms: C_14  and  C_15
REMARK   12  A    between atoms: C_15  and  O_16
REMARK   13  A    between atoms: O_16  and  C_17
REMARK   14  A    between atoms: C_17  and  C_18
REMARK   15  A    between atoms: C_17  and  C_22
REMARK   16  A    between atoms: C_18  and  O_19
REMARK   17  A    between atoms: C_18  and  C_20
REMARK   18  A    between atoms: C_20  and  O_21
REMARK   19  A    between atoms: C_22  and  O_23
REMARK   20  A    between atoms: C_22  and  C_24
REMARK   21  A    between atoms: C_24  and  O_25
REMARK   22  A    between atoms: C_24  and  C_26
REMARK   23  A    between atoms: C_26  and  O_27
REMARK                            x       y       z     vdW  Elec       q    Type
REMARK                         _______ _______ _______ _____ _____    ______ ____
ROOT
ATOM      1  O   UNL     1       4.765   4.477  18.889  0.00  0.00    +0.000 OA
ENDROOT
BRANCH   1   2
ATOM      2  C   UNL     1       3.614   3.851  18.250  0.00  0.00    +0.000 C 
BRANCH   2   3
ATOM      3  C   UNL     1       3.441   2.353  18.685  0.00  0.00    +0.000 C 
BRANCH   3   4
ATOM      4  O   UNL     1       4.099   1.439  17.805  0.00  0.00    +0.000 OA
ATOM      5  H   UNL     1       3.609   0.595  17.825  0.00  0.00    +0.000 HD
ENDBRANCH   3   4
BRANCH   3   6
ATOM      6  C   UNL     1       3.844   2.066  20.134  0.00  0.00    +0.000 C 
BRANCH   6   7
ATOM      7  O   UNL     1       5.243   1.848  20.222  0.00  0.00    +0.000 OA
ATOM      8  H   UNL     1       5.556   2.304  21.019  0.00  0.00    +0.000 HD
ENDBRANCH   6   7
ENDBRANCH   3   6
ENDBRANCH   2   3
BRANCH   2   9
ATOM      9  C   UNL     1       2.375   4.732  18.522  0.00  0.00    +0.000 C 
BRANCH   9  10
ATOM     10  O   UNL     1       1.194   3.910  18.584  0.00  0.00    +0.000 OA
ATOM     11  H   UNL     1       0.439   4.535  18.543  0.00  0.00    +0.000 HD
ENDBRANCH   9  10
BRANCH   9  12
ATOM     12  C   UNL     1       2.434   5.575  19.817  0.00  0.00    +0.000 C 
BRANCH  12  13
ATOM     13  O   UNL     1       1.251   5.316  20.614  0.00  0.00    +0.000 OA
ATOM     14  H   UNL     1       1.097   6.109  21.163  0.00  0.00    +0.000 HD
ENDBRANCH  12  13
BRANCH  12  15
ATOM     15  C   UNL     1       2.454   7.086  19.581  0.00  0.00    +0.000 C 
BRANCH  15  16
ATOM     16  O   UNL     1       1.973   7.758  20.750  0.00  0.00    +0.000 OA
ATOM     17  H   UNL     1       2.721   8.305  21.057  0.00  0.00    +0.000 HD
ENDBRANCH  15  16
ENDBRANCH  12  15
ENDBRANCH   9  12
ENDBRANCH   2   9
ENDBRANCH   1   2
BRANCH   1  18
ATOM     18  C   UNL     1       5.742   4.820  17.909  0.00  0.00    +0.000 C 
BRANCH  18  21
ATOM     19  C   UNL     1       7.187   6.818  18.021  0.00  0.00    +0.000 C 
ATOM     20  C   UNL     1       6.217   7.495  17.064  0.00  0.00    +0.000 C 
ATOM     21  C   UNL     1       6.924   5.565  18.446  0.00  0.00    +0.000 C 
BRANCH  19  22
ATOM     22  C   UNL     1       8.479   7.524  18.418  0.00  0.00    +0.000 C 
BRANCH  22  23
ATOM     23  C   UNL     1       8.407   9.047  18.273  0.00  0.00    +0.000 C 
BRANCH  23  26
ATOM     24  C   UNL     1       9.777  10.908  19.197  0.00  0.00    +0.000 C 
ATOM     25  C   UNL     1      10.217  11.256  17.791  0.00  0.00    +0.000 C 
ATOM     26  C   UNL     1       8.940   9.867  19.407  0.00  0.00    +0.000 C 
BRANCH  24  27
ATOM     27  C   UNL     1      10.264  11.714  20.386  0.00  0.00    +0.000 C 
BRANCH  27  28
ATOM     28  C   UNL     1      11.426  12.669  20.093  0.00  0.00    +0.000 C 
BRANCH  28  32
ATOM     29  C   UNL     1      10.707  16.350  19.052  0.00  0.00    +0.000 C 
ATOM     30  C   UNL     1      11.227  14.942  19.011  0.00  0.00    +0.000 C 
ATOM     31  C   UNL     1      11.954  14.510  17.769  0.00  0.00    +0.000 C 
ATOM     32  C   UNL     1      11.015  14.112  20.053  0.00  0.00    +0.000 C 
ENDBRANCH  28  32
ENDBRANCH  27  28
ENDBRANCH  24  27
ENDBRANCH  23  26
ENDBRANCH  22  23
ENDBRANCH  19  22
ENDBRANCH  18  21
ENDBRANCH   1  18
TORSDOF 19
ENDMDL
