MODEL 1
REMARK VINA RESULT:      -9.0      0.000      0.000
REMARK  Name = 
REMARK  9 active torsions:
REMARK  status: ('A' for Active; 'I' for Inactive)
REMARK    1  A    between atoms: C_1  and  O_2
REMARK    2  A    between atoms: O_2  and  C_3
REMARK    3  A    between atoms: C_5  and  N_6
REMARK    4  A    between atoms: C_21  and  N_22
REMARK    5  A    between atoms: C_23  and  C_25
REMARK    6  A    between atoms: C_25  and  C_26
REMARK    7  A    between atoms: C_29  and  C_30
REMARK    8  A    between atoms: C_30  and  C_31
REMARK    9  A    between atoms: C_30  and  C_32
REMARK                            x       y       z     vdW  Elec       q    Type
REMARK                         _______ _______ _______ _____ _____    ______ ____
ROOT
ATOM      1  C   UNL     1       1.261   8.599  19.935  0.00  0.00    +0.000 A 
ATOM      2  C   UNL     1       2.173   7.526  19.938  0.00  0.00    +0.000 A 
ATOM      3  C   UNL     1       2.882   7.153  18.794  0.00  0.00    +0.000 A 
ATOM      4  C   UNL     1       2.739   7.937  17.653  0.00  0.00    +0.000 A 
ATOM      5  C   UNL     1       1.884   9.046  17.653  0.00  0.00    +0.000 A 
ATOM      6  C   UNL     1       1.122   9.396  18.774  0.00  0.00    +0.000 A 
ENDROOT
BRANCH   3   7
ATOM      7  N   UNL     1       3.755   6.019  18.804  0.00  0.00    +0.000 N 
ATOM      8  C   UNL     1       4.968   5.962  18.160  0.00  0.00    +0.000 A 
ATOM      9  C   UNL     1       5.581   4.767  18.408  0.00  0.00    +0.000 A 
ATOM     10  C   UNL     1       4.741   4.006  19.199  0.00  0.00    +0.000 A 
ATOM     11  N   UNL     1       4.950   2.758  19.662  0.00  0.00    +0.000 NA
ATOM     12  C   UNL     1       3.939   2.289  20.380  0.00  0.00    +0.000 A 
ATOM     13  N   UNL     1       2.790   2.911  20.675  0.00  0.00    +0.000 NA
ATOM     14  C   UNL     1       2.583   4.160  20.215  0.00  0.00    +0.000 A 
ATOM     15  N   UNL     1       1.335   4.678  20.530  0.00  0.00    +0.000 N 
ATOM     16  C   UNL     1       3.589   4.773  19.457  0.00  0.00    +0.000 A 
ATOM     17  C   UNL     1       6.935   4.684  17.821  0.00  0.00    +0.000 C 
ATOM     18  C   UNL     1       7.221   6.182  17.500  0.00  0.00    +0.000 C 
ATOM     19  C   UNL     1       5.830   6.902  17.399  0.00  0.00    +0.000 C 
ATOM     20  H   UNL     1       0.763   3.929  20.906  0.00  0.00    +0.000 HD
ATOM     21  H   UNL     1       0.907   5.196  19.773  0.00  0.00    +0.000 HD
ENDBRANCH   3   7
BRANCH   6  22
ATOM     22  N   UNL     1       0.253  10.528  18.769  0.00  0.00    +0.000 N 
ATOM     23  C   UNL     1      -0.941  10.641  18.059  0.00  0.00    +0.000 C 
ATOM     24  O   UNL     1      -1.472   9.737  17.410  0.00  0.00    +0.000 OA
ATOM     25  H   UNL     1       0.518  11.273  19.406  0.00  0.00    +0.000 HD
BRANCH  23  26
ATOM     26  C   UNL     1      -1.604  12.010  18.100  0.00  0.00    +0.000 C 
BRANCH  26  27
ATOM     27  C   UNL     1      -1.419  12.684  19.414  0.00  0.00    +0.000 A 
ATOM     28  C   UNL     1      -0.900  13.927  19.708  0.00  0.00    +0.000 A 
ATOM     29  O   UNL     1      -0.883  14.077  21.060  0.00  0.00    +0.000 OA
ATOM     30  C   UNL     1      -1.393  12.899  21.533  0.00  0.00    +0.000 A 
ATOM     31  N   UNL     1      -1.730  12.037  20.593  0.00  0.00    +0.000 NA
BRANCH  30  32
ATOM     32  C   UNL     1      -1.456  12.747  23.018  0.00  0.00    +0.000 C 
ATOM     33  C   UNL     1      -1.325  14.101  23.714  0.00  0.00    +0.000 C 
ATOM     34  C   UNL     1      -2.755  12.055  23.429  0.00  0.00    +0.000 C 
ENDBRANCH  30  32
ENDBRANCH  26  27
ENDBRANCH  23  26
ENDBRANCH   6  22
BRANCH   1  36
ATOM     35  C   UNL     1       1.246   9.211  22.230  0.00  0.00    +0.000 C 
ATOM     36  O   UNL     1       0.499   8.915  21.042  0.00  0.00    +0.000 OA
ENDBRANCH   1  36
TORSDOF 6
ENDMDL
MODEL 2
REMARK VINA RESULT:      -8.8      1.740      2.757
REMARK  Name = 
REMARK  9 active torsions:
REMARK  status: ('A' for Active; 'I' for Inactive)
REMARK    1  A    between atoms: C_1  and  O_2
REMARK    2  A    between atoms: O_2  and  C_3
REMARK    3  A    between atoms: C_5  and  N_6
REMARK    4  A    between atoms: C_21  and  N_22
REMARK    5  A    between atoms: C_23  and  C_25
REMARK    6  A    between atoms: C_25  and  C_26
REMARK    7  A    between atoms: C_29  and  C_30
REMARK    8  A    between atoms: C_30  and  C_31
REMARK    9  A    between atoms: C_30  and  C_32
REMARK                            x       y       z     vdW  Elec       q    Type
REMARK                         _______ _______ _______ _____ _____    ______ ____
ROOT
ATOM      1  C   UNL     1       1.430   8.587  20.245  0.00  0.00    +0.000 A 
ATOM      2  C   UNL     1       2.247   7.463  20.013  0.00  0.00    +0.000 A 
ATOM      3  C   UNL     1       2.630   7.081  18.726  0.00  0.00    +0.000 A 
ATOM      4  C   UNL     1       2.263   7.900  17.664  0.00  0.00    +0.000 A 
ATOM      5  C   UNL     1       1.505   9.056  17.885  0.00  0.00    +0.000 A 
ATOM      6  C   UNL     1       1.062   9.420  19.163  0.00  0.00    +0.000 A 
ENDROOT
BRANCH   3   7
ATOM      7  N   UNL     1       3.408   5.897  18.510  0.00  0.00    +0.000 N 
ATOM      8  C   UNL     1       4.597   5.861  17.824  0.00  0.00    +0.000 A 
ATOM      9  C   UNL     1       5.115   4.597  17.840  0.00  0.00    +0.000 A 
ATOM     10  C   UNL     1       4.233   3.776  18.517  0.00  0.00    +0.000 A 
ATOM     11  N   UNL     1       4.348   2.454  18.750  0.00  0.00    +0.000 NA
ATOM     12  C   UNL     1       3.317   1.947  19.412  0.00  0.00    +0.000 A 
ATOM     13  N   UNL     1       2.230   2.595  19.850  0.00  0.00    +0.000 NA
ATOM     14  C   UNL     1       2.116   3.917  19.620  0.00  0.00    +0.000 A 
ATOM     15  N   UNL     1       0.922   4.467  20.063  0.00  0.00    +0.000 N 
ATOM     16  C   UNL     1       3.153   4.573  18.944  0.00  0.00    +0.000 A 
ATOM     17  C   UNL     1       6.445   4.513  17.201  0.00  0.00    +0.000 C 
ATOM     18  C   UNL     1       6.847   6.018  17.133  0.00  0.00    +0.000 C 
ATOM     19  C   UNL     1       5.518   6.849  17.207  0.00  0.00    +0.000 C 
ATOM     20  H   UNL     1       0.298   3.710  20.324  0.00  0.00    +0.000 HD
ATOM     21  H   UNL     1       0.522   5.141  19.422  0.00  0.00    +0.000 HD
ENDBRANCH   3   7
BRANCH   6  22
ATOM     22  N   UNL     1       0.290  10.601  19.383  0.00  0.00    +0.000 N 
ATOM     23  C   UNL     1       0.764  11.910  19.334  0.00  0.00    +0.000 C 
ATOM     24  O   UNL     1       1.900  12.244  18.992  0.00  0.00    +0.000 OA
ATOM     25  H   UNL     1      -0.705  10.443  19.513  0.00  0.00    +0.000 HD
BRANCH  23  26
ATOM     26  C   UNL     1      -0.226  12.985  19.758  0.00  0.00    +0.000 C 
BRANCH  26  27
ATOM     27  C   UNL     1      -1.629  12.619  19.425  0.00  0.00    +0.000 A 
ATOM     28  C   UNL     1      -2.775  12.713  20.185  0.00  0.00    +0.000 A 
ATOM     29  O   UNL     1      -3.811  12.199  19.467  0.00  0.00    +0.000 OA
ATOM     30  C   UNL     1      -3.237  11.805  18.290  0.00  0.00    +0.000 A 
ATOM     31  N   UNL     1      -1.941  12.034  18.213  0.00  0.00    +0.000 NA
BRANCH  30  32
ATOM     32  C   UNL     1      -4.138  11.146  17.296  0.00  0.00    +0.000 C 
ATOM     33  C   UNL     1      -5.419  11.954  17.096  0.00  0.00    +0.000 C 
ATOM     34  C   UNL     1      -3.413  10.951  15.965  0.00  0.00    +0.000 C 
ENDBRANCH  30  32
ENDBRANCH  26  27
ENDBRANCH  23  26
ENDBRANCH   6  22
BRANCH   1  36
ATOM     35  C   UNL     1      -0.329   8.433  21.834  0.00  0.00    +0.000 C 
ATOM     36  O   UNL     1       0.981   8.918  21.508  0.00  0.00    +0.000 OA
ENDBRANCH   1  36
TORSDOF 6
ENDMDL
MODEL 3
REMARK VINA RESULT:      -8.8      1.369      2.337
REMARK  Name = 
REMARK  9 active torsions:
REMARK  status: ('A' for Active; 'I' for Inactive)
REMARK    1  A    between atoms: C_1  and  O_2
REMARK    2  A    between atoms: O_2  and  C_3
REMARK    3  A    between atoms: C_5  and  N_6
REMARK    4  A    between atoms: C_21  and  N_22
REMARK    5  A    between atoms: C_23  and  C_25
REMARK    6  A    between atoms: C_25  and  C_26
REMARK    7  A    between atoms: C_29  and  C_30
REMARK    8  A    between atoms: C_30  and  C_31
REMARK    9  A    between atoms: C_30  and  C_32
REMARK                            x       y       z     vdW  Elec       q    Type
REMARK                         _______ _______ _______ _____ _____    ______ ____
ROOT
ATOM      1  C   UNL     1       1.202   8.572  20.048  0.00  0.00    +0.000 A 
ATOM      2  C   UNL     1       2.122   7.505  20.024  0.00  0.00    +0.000 A 
ATOM      3  C   UNL     1       2.821   7.157  18.866  0.00  0.00    +0.000 A 
ATOM      4  C   UNL     1       2.659   7.956  17.740  0.00  0.00    +0.000 A 
ATOM      5  C   UNL     1       1.796   9.059  17.767  0.00  0.00    +0.000 A 
ATOM      6  C   UNL     1       1.044   9.385  18.902  0.00  0.00    +0.000 A 
ENDROOT
BRANCH   3   7
ATOM      7  N   UNL     1       3.703   6.028  18.849  0.00  0.00    +0.000 N 
ATOM      8  C   UNL     1       4.905   5.989  18.185  0.00  0.00    +0.000 A 
ATOM      9  C   UNL     1       5.531   4.796  18.409  0.00  0.00    +0.000 A 
ATOM     10  C   UNL     1       4.710   4.019  19.204  0.00  0.00    +0.000 A 
ATOM     11  N   UNL     1       4.935   2.767  19.648  0.00  0.00    +0.000 NA
ATOM     12  C   UNL     1       3.939   2.282  20.378  0.00  0.00    +0.000 A 
ATOM     13  N   UNL     1       2.791   2.892  20.699  0.00  0.00    +0.000 NA
ATOM     14  C   UNL     1       2.567   4.144  20.257  0.00  0.00    +0.000 A 
ATOM     15  N   UNL     1       1.321   4.649  20.598  0.00  0.00    +0.000 N 
ATOM     16  C   UNL     1       3.556   4.774  19.490  0.00  0.00    +0.000 A 
ATOM     17  C   UNL     1       6.875   4.730  17.799  0.00  0.00    +0.000 C 
ATOM     18  C   UNL     1       7.145   6.234  17.491  0.00  0.00    +0.000 C 
ATOM     19  C   UNL     1       5.747   6.944  17.421  0.00  0.00    +0.000 C 
ATOM     20  H   UNL     1       0.761   3.891  20.974  0.00  0.00    +0.000 HD
ATOM     21  H   UNL     1       0.877   5.173  19.855  0.00  0.00    +0.000 HD
ENDBRANCH   3   7
BRANCH   6  22
ATOM     22  N   UNL     1       0.166  10.511  18.925  0.00  0.00    +0.000 N 
ATOM     23  C   UNL     1      -0.987  10.665  18.159  0.00  0.00    +0.000 C 
ATOM     24  O   UNL     1      -1.473   9.805  17.422  0.00  0.00    +0.000 OA
ATOM     25  H   UNL     1       0.389  11.213  19.624  0.00  0.00    +0.000 HD
BRANCH  23  26
ATOM     26  C   UNL     1      -1.664  12.025  18.255  0.00  0.00    +0.000 C 
BRANCH  26  27
ATOM     27  C   UNL     1      -0.789  13.044  18.895  0.00  0.00    +0.000 A 
ATOM     28  C   UNL     1      -1.001  13.817  20.016  0.00  0.00    +0.000 A 
ATOM     29  O   UNL     1       0.066  14.647  20.175  0.00  0.00    +0.000 OA
ATOM     30  C   UNL     1       0.887  14.340  19.123  0.00  0.00    +0.000 A 
ATOM     31  N   UNL     1       0.425  13.391  18.333  0.00  0.00    +0.000 NA
BRANCH  30  32
ATOM     32  C   UNL     1       2.144  15.137  19.003  0.00  0.00    +0.000 C 
ATOM     33  C   UNL     1       3.200  14.380  18.199  0.00  0.00    +0.000 C 
ATOM     34  C   UNL     1       1.856  16.495  18.365  0.00  0.00    +0.000 C 
ENDBRANCH  30  32
ENDBRANCH  26  27
ENDBRANCH  23  26
ENDBRANCH   6  22
BRANCH   1  36
ATOM     35  C   UNL     1       1.208   9.216  22.335  0.00  0.00    +0.000 C 
ATOM     36  O   UNL     1       0.450   8.864  21.168  0.00  0.00    +0.000 OA
ENDBRANCH   1  36
TORSDOF 6
ENDMDL
MODEL 4
REMARK VINA RESULT:      -8.8      2.039      2.433
REMARK  Name = 
REMARK  9 active torsions:
REMARK  status: ('A' for Active; 'I' for Inactive)
REMARK    1  A    between atoms: C_1  and  O_2
REMARK    2  A    between atoms: O_2  and  C_3
REMARK    3  A    between atoms: C_5  and  N_6
REMARK    4  A    between atoms: C_21  and  N_22
REMARK    5  A    between atoms: C_23  and  C_25
REMARK    6  A    between atoms: C_25  and  C_26
REMARK    7  A    between atoms: C_29  and  C_30
REMARK    8  A    between atoms: C_30  and  C_31
REMARK    9  A    between atoms: C_30  and  C_32
REMARK                            x       y       z     vdW  Elec       q    Type
REMARK                         _______ _______ _______ _____ _____    ______ ____
ROOT
ATOM      1  C   UNL     1       1.341   8.875  20.065  0.00  0.00    +0.000 A 
ATOM      2  C   UNL     1       2.209   7.766  20.034  0.00  0.00    +0.000 A 
ATOM      3  C   UNL     1       2.740   7.275  18.840  0.00  0.00    +0.000 A 
ATOM      4  C   UNL     1       2.466   7.971  17.667  0.00  0.00    +0.000 A 
ATOM      5  C   UNL     1       1.656   9.114  17.690  0.00  0.00    +0.000 A 
ATOM      6  C   UNL     1       1.069   9.584  18.871  0.00  0.00    +0.000 A 
ENDROOT
BRANCH   3   7
ATOM      7  N   UNL     1       3.569   6.107  18.826  0.00  0.00    +0.000 N 
ATOM      8  C   UNL     1       4.752   5.999  18.136  0.00  0.00    +0.000 A 
ATOM      9  C   UNL     1       5.328   4.783  18.371  0.00  0.00    +0.000 A 
ATOM     10  C   UNL     1       4.492   4.060  19.202  0.00  0.00    +0.000 A 
ATOM     11  N   UNL     1       4.670   2.809  19.667  0.00  0.00    +0.000 NA
ATOM     12  C   UNL     1       3.671   2.386  20.429  0.00  0.00    +0.000 A 
ATOM     13  N   UNL     1       2.559   3.054  20.762  0.00  0.00    +0.000 NA
ATOM     14  C   UNL     1       2.382   4.306  20.300  0.00  0.00    +0.000 A 
ATOM     15  N   UNL     1       1.169   4.874  20.658  0.00  0.00    +0.000 N 
ATOM     16  C   UNL     1       3.381   4.874  19.497  0.00  0.00    +0.000 A 
ATOM     17  C   UNL     1       6.654   4.643  17.733  0.00  0.00    +0.000 C 
ATOM     18  C   UNL     1       6.985   6.126  17.387  0.00  0.00    +0.000 C 
ATOM     19  C   UNL     1       5.620   6.898  17.334  0.00  0.00    +0.000 C 
ATOM     20  H   UNL     1       0.583   4.151  21.062  0.00  0.00    +0.000 HD
ATOM     21  H   UNL     1       0.731   5.403  19.913  0.00  0.00    +0.000 HD
ENDBRANCH   3   7
BRANCH   6  22
ATOM     22  N   UNL     1       0.245  10.749  18.889  0.00  0.00    +0.000 N 
ATOM     23  C   UNL     1      -1.114  10.796  18.584  0.00  0.00    +0.000 C 
ATOM     24  O   UNL     1      -1.826   9.817  18.351  0.00  0.00    +0.000 OA
ATOM     25  H   UNL     1       0.701  11.590  19.229  0.00  0.00    +0.000 HD
BRANCH  23  26
ATOM     26  C   UNL     1      -1.728  12.187  18.527  0.00  0.00    +0.000 C 
BRANCH  26  27
ATOM     27  C   UNL     1      -3.019  12.261  19.265  0.00  0.00    +0.000 A 
ATOM     28  C   UNL     1      -3.272  12.591  20.579  0.00  0.00    +0.000 A 
ATOM     29  O   UNL     1      -4.607  12.461  20.806  0.00  0.00    +0.000 OA
ATOM     30  C   UNL     1      -5.111  12.047  19.603  0.00  0.00    +0.000 A 
ATOM     31  N   UNL     1      -4.207  11.914  18.652  0.00  0.00    +0.000 NA
BRANCH  30  32
ATOM     32  C   UNL     1      -6.578  11.770  19.553  0.00  0.00    +0.000 C 
ATOM     33  C   UNL     1      -6.872  10.505  18.749  0.00  0.00    +0.000 C 
ATOM     34  C   UNL     1      -7.147  11.652  20.967  0.00  0.00    +0.000 C 
ENDBRANCH  30  32
ENDBRANCH  26  27
ENDBRANCH  23  26
ENDBRANCH   6  22
BRANCH   1  36
ATOM     35  C   UNL     1      -0.370   8.530  21.676  0.00  0.00    +0.000 C 
ATOM     36  O   UNL     1       0.750   9.310  21.234  0.00  0.00    +0.000 OA
ENDBRANCH   1  36
TORSDOF 6
ENDMDL
MODEL 5
REMARK VINA RESULT:      -8.8      2.170      2.808
REMARK  Name = 
REMARK  9 active torsions:
REMARK  status: ('A' for Active; 'I' for Inactive)
REMARK    1  A    between atoms: C_1  and  O_2
REMARK    2  A    between atoms: O_2  and  C_3
REMARK    3  A    between atoms: C_5  and  N_6
REMARK    4  A    between atoms: C_21  and  N_22
REMARK    5  A    between atoms: C_23  and  C_25
REMARK    6  A    between atoms: C_25  and  C_26
REMARK    7  A    between atoms: C_29  and  C_30
REMARK    8  A    between atoms: C_30  and  C_31
REMARK    9  A    between atoms: C_30  and  C_32
REMARK                            x       y       z     vdW  Elec       q    Type
REMARK                         _______ _______ _______ _____ _____    ______ ____
ROOT
ATOM      1  C   UNL     1       1.278   8.806  19.989  0.00  0.00    +0.000 A 
ATOM      2  C   UNL     1       2.202   7.742  19.986  0.00  0.00    +0.000 A 
ATOM      3  C   UNL     1       2.710   7.207  18.801  0.00  0.00    +0.000 A 
ATOM      4  C   UNL     1       2.355   7.818  17.603  0.00  0.00    +0.000 A 
ATOM      5  C   UNL     1       1.488   8.917  17.593  0.00  0.00    +0.000 A 
ATOM      6  C   UNL     1       0.923   9.427  18.769  0.00  0.00    +0.000 A 
ENDROOT
BRANCH   3   7
ATOM      7  N   UNL     1       3.598   6.083  18.820  0.00  0.00    +0.000 N 
ATOM      8  C   UNL     1       4.805   6.032  18.166  0.00  0.00    +0.000 A 
ATOM      9  C   UNL     1       5.435   4.848  18.427  0.00  0.00    +0.000 A 
ATOM     10  C   UNL     1       4.613   4.089  19.238  0.00  0.00    +0.000 A 
ATOM     11  N   UNL     1       4.841   2.852  19.717  0.00  0.00    +0.000 NA
ATOM     12  C   UNL     1       3.843   2.382  20.453  0.00  0.00    +0.000 A 
ATOM     13  N   UNL     1       2.689   2.994  20.749  0.00  0.00    +0.000 NA
ATOM     14  C   UNL     1       2.462   4.232  20.272  0.00  0.00    +0.000 A 
ATOM     15  N   UNL     1       1.211   4.740  20.590  0.00  0.00    +0.000 N 
ATOM     16  C   UNL     1       3.453   4.846  19.495  0.00  0.00    +0.000 A 
ATOM     17  C   UNL     1       6.785   4.773  17.828  0.00  0.00    +0.000 C 
ATOM     18  C   UNL     1       7.049   6.269  17.481  0.00  0.00    +0.000 C 
ATOM     19  C   UNL     1       5.648   6.970  17.382  0.00  0.00    +0.000 C 
ATOM     20  H   UNL     1       0.652   3.990  20.983  0.00  0.00    +0.000 HD
ATOM     21  H   UNL     1       0.769   5.241  19.830  0.00  0.00    +0.000 HD
ENDBRANCH   3   7
BRANCH   6  22
ATOM     22  N   UNL     1       0.040  10.549  18.754  0.00  0.00    +0.000 N 
ATOM     23  C   UNL     1      -1.323  10.515  18.467  0.00  0.00    +0.000 C 
ATOM     24  O   UNL     1      -1.987   9.492  18.284  0.00  0.00    +0.000 OA
ATOM     25  H   UNL     1       0.457  11.425  19.054  0.00  0.00    +0.000 HD
BRANCH  23  26
ATOM     26  C   UNL     1      -2.008  11.870  18.366  0.00  0.00    +0.000 C 
BRANCH  26  27
ATOM     27  C   UNL     1      -3.463  11.743  18.080  0.00  0.00    +0.000 A 
ATOM     28  C   UNL     1      -4.118  11.566  16.880  0.00  0.00    +0.000 A 
ATOM     29  O   UNL     1      -5.458  11.565  17.118  0.00  0.00    +0.000 OA
ATOM     30  C   UNL     1      -5.557  11.751  18.470  0.00  0.00    +0.000 A 
ATOM     31  N   UNL     1      -4.398  11.861  19.089  0.00  0.00    +0.000 NA
BRANCH  30  32
ATOM     32  C   UNL     1      -6.938  11.842  19.032  0.00  0.00    +0.000 C 
ATOM     33  C   UNL     1      -6.903  12.015  20.549  0.00  0.00    +0.000 C 
ATOM     34  C   UNL     1      -7.706  12.991  18.378  0.00  0.00    +0.000 C 
ENDBRANCH  30  32
ENDBRANCH  26  27
ENDBRANCH  23  26
ENDBRANCH   6  22
BRANCH   1  36
ATOM     35  C   UNL     1      -0.340   8.468  21.694  0.00  0.00    +0.000 C 
ATOM     36  O   UNL     1       0.712   9.281  21.155  0.00  0.00    +0.000 OA
ENDBRANCH   1  36
TORSDOF 6
ENDMDL
MODEL 6
REMARK VINA RESULT:      -8.8      1.097      1.281
REMARK  Name = 
REMARK  9 active torsions:
REMARK  status: ('A' for Active; 'I' for Inactive)
REMARK    1  A    between atoms: C_1  and  O_2
REMARK    2  A    between atoms: O_2  and  C_3
REMARK    3  A    between atoms: C_5  and  N_6
REMARK    4  A    between atoms: C_21  and  N_22
REMARK    5  A    between atoms: C_23  and  C_25
REMARK    6  A    between atoms: C_25  and  C_26
REMARK    7  A    between atoms: C_29  and  C_30
REMARK    8  A    between atoms: C_30  and  C_31
REMARK    9  A    between atoms: C_30  and  C_32
REMARK                            x       y       z     vdW  Elec       q    Type
REMARK                         _______ _______ _______ _____ _____    ______ ____
ROOT
ATOM      1  C   UNL     1       1.316   8.806  19.972  0.00  0.00    +0.000 A 
ATOM      2  C   UNL     1       2.227   7.732  19.973  0.00  0.00    +0.000 A 
ATOM      3  C   UNL     1       2.746   7.199  18.792  0.00  0.00    +0.000 A 
ATOM      4  C   UNL     1       2.415   7.822  17.593  0.00  0.00    +0.000 A 
ATOM      5  C   UNL     1       1.560   8.932  17.580  0.00  0.00    +0.000 A 
ATOM      6  C   UNL     1       0.985   9.440  18.751  0.00  0.00    +0.000 A 
ENDROOT
BRANCH   3   7
ATOM      7  N   UNL     1       3.621   6.065  18.815  0.00  0.00    +0.000 N 
ATOM      8  C   UNL     1       4.828   5.998  18.163  0.00  0.00    +0.000 A 
ATOM      9  C   UNL     1       5.444   4.808  18.428  0.00  0.00    +0.000 A 
ATOM     10  C   UNL     1       4.611   4.060  19.239  0.00  0.00    +0.000 A 
ATOM     11  N   UNL     1       4.824   2.821  19.722  0.00  0.00    +0.000 NA
ATOM     12  C   UNL     1       3.819   2.364  20.456  0.00  0.00    +0.000 A 
ATOM     13  N   UNL     1       2.672   2.991  20.748  0.00  0.00    +0.000 NA
ATOM     14  C   UNL     1       2.460   4.230  20.268  0.00  0.00    +0.000 A 
ATOM     15  N   UNL     1       1.215   4.753  20.583  0.00  0.00    +0.000 N 
ATOM     16  C   UNL     1       3.460   4.831  19.492  0.00  0.00    +0.000 A 
ATOM     17  C   UNL     1       6.794   4.716  17.833  0.00  0.00    +0.000 C 
ATOM     18  C   UNL     1       7.076   6.208  17.483  0.00  0.00    +0.000 C 
ATOM     19  C   UNL     1       5.684   6.925  17.380  0.00  0.00    +0.000 C 
ATOM     20  H   UNL     1       0.646   4.011  20.976  0.00  0.00    +0.000 HD
ATOM     21  H   UNL     1       0.780   5.258  19.820  0.00  0.00    +0.000 HD
ENDBRANCH   3   7
BRANCH   6  22
ATOM     22  N   UNL     1       0.116  10.572  18.732  0.00  0.00    +0.000 N 
ATOM     23  C   UNL     1      -1.123  10.642  18.098  0.00  0.00    +0.000 C 
ATOM     24  O   UNL     1      -1.695   9.701  17.545  0.00  0.00    +0.000 OA
ATOM     25  H   UNL     1       0.422  11.356  19.301  0.00  0.00    +0.000 HD
BRANCH  23  26
ATOM     26  C   UNL     1      -1.785  12.013  18.096  0.00  0.00    +0.000 C 
BRANCH  26  27
ATOM     27  C   UNL     1      -2.674  12.209  19.273  0.00  0.00    +0.000 A 
ATOM     28  C   UNL     1      -4.049  12.295  19.341  0.00  0.00    +0.000 A 
ATOM     29  O   UNL     1      -4.401  12.535  20.633  0.00  0.00    +0.000 OA
ATOM     30  C   UNL     1      -3.207  12.591  21.299  0.00  0.00    +0.000 A 
ATOM     31  N   UNL     1      -2.149  12.401  20.535  0.00  0.00    +0.000 NA
BRANCH  30  32
ATOM     32  C   UNL     1      -3.272  12.893  22.761  0.00  0.00    +0.000 C 
ATOM     33  C   UNL     1      -4.720  12.975  23.241  0.00  0.00    +0.000 C 
ATOM     34  C   UNL     1      -2.501  11.842  23.558  0.00  0.00    +0.000 C 
ENDBRANCH  30  32
ENDBRANCH  26  27
ENDBRANCH  23  26
ENDBRANCH   6  22
BRANCH   1  36
ATOM     35  C   UNL     1      -0.336   8.479  21.646  0.00  0.00    +0.000 C 
ATOM     36  O   UNL     1       0.739   9.278  21.133  0.00  0.00    +0.000 OA
ENDBRANCH   1  36
TORSDOF 6
ENDMDL
MODEL 7
REMARK VINA RESULT:      -8.7      3.152      9.489
REMARK  Name = 
REMARK  9 active torsions:
REMARK  status: ('A' for Active; 'I' for Inactive)
REMARK    1  A    between atoms: C_1  and  O_2
REMARK    2  A    between atoms: O_2  and  C_3
REMARK    3  A    between atoms: C_5  and  N_6
REMARK    4  A    between atoms: C_21  and  N_22
REMARK    5  A    between atoms: C_23  and  C_25
REMARK    6  A    between atoms: C_25  and  C_26
REMARK    7  A    between atoms: C_29  and  C_30
REMARK    8  A    between atoms: C_30  and  C_31
REMARK    9  A    between atoms: C_30  and  C_32
REMARK                            x       y       z     vdW  Elec       q    Type
REMARK                         _______ _______ _______ _____ _____    ______ ____
ROOT
ATOM      1  C   UNL     1       2.239   6.673  19.802  0.00  0.00    +0.000 A 
ATOM      2  C   UNL     1       1.246   7.630  20.087  0.00  0.00    +0.000 A 
ATOM      3  C   UNL     1       1.088   8.785  19.318  0.00  0.00    +0.000 A 
ATOM      4  C   UNL     1       1.884   8.929  18.186  0.00  0.00    +0.000 A 
ATOM      5  C   UNL     1       2.833   7.955  17.853  0.00  0.00    +0.000 A 
ATOM      6  C   UNL     1       3.043   6.821  18.648  0.00  0.00    +0.000 A 
ENDROOT
BRANCH   3   7
ATOM      7  N   UNL     1       0.113   9.775  19.665  0.00  0.00    +0.000 N 
ATOM      8  C   UNL     1      -0.740  10.375  18.771  0.00  0.00    +0.000 A 
ATOM      9  C   UNL     1      -1.582  11.231  19.423  0.00  0.00    +0.000 A 
ATOM     10  C   UNL     1      -1.254  11.224  20.766  0.00  0.00    +0.000 A 
ATOM     11  N   UNL     1      -1.823  11.935  21.758  0.00  0.00    +0.000 NA
ATOM     12  C   UNL     1      -1.264  11.722  22.942  0.00  0.00    +0.000 A 
ATOM     13  N   UNL     1      -0.241  10.906  23.226  0.00  0.00    +0.000 NA
ATOM     14  C   UNL     1       0.325  10.193  22.235  0.00  0.00    +0.000 A 
ATOM     15  N   UNL     1       1.413   9.432  22.636  0.00  0.00    +0.000 N 
ATOM     16  C   UNL     1      -0.191  10.317  20.938  0.00  0.00    +0.000 A 
ATOM     17  C   UNL     1      -2.591  11.836  18.527  0.00  0.00    +0.000 C 
ATOM     18  C   UNL     1      -2.486  10.909  17.279  0.00  0.00    +0.000 C 
ATOM     19  C   UNL     1      -1.073  10.228  17.332  0.00  0.00    +0.000 C 
ATOM     20  H   UNL     1       1.665   9.707  23.580  0.00  0.00    +0.000 HD
ATOM     21  H   UNL     1       2.181   9.440  21.976  0.00  0.00    +0.000 HD
ENDBRANCH   3   7
BRANCH   6  22
ATOM     22  N   UNL     1       4.011   5.831  18.304  0.00  0.00    +0.000 N 
ATOM     23  C   UNL     1       3.749   4.610  17.686  0.00  0.00    +0.000 C 
ATOM     24  O   UNL     1       2.652   4.250  17.255  0.00  0.00    +0.000 OA
ATOM     25  H   UNL     1       4.977   6.100  18.470  0.00  0.00    +0.000 HD
BRANCH  23  26
ATOM     26  C   UNL     1       4.936   3.664  17.567  0.00  0.00    +0.000 C 
BRANCH  26  27
ATOM     27  C   UNL     1       5.887   4.088  16.504  0.00  0.00    +0.000 A 
ATOM     28  C   UNL     1       7.163   4.598  16.608  0.00  0.00    +0.000 A 
ATOM     29  O   UNL     1       7.613   4.891  15.357  0.00  0.00    +0.000 OA
ATOM     30  C   UNL     1       6.571   4.547  14.540  0.00  0.00    +0.000 A 
ATOM     31  N   UNL     1       5.520   4.061  15.173  0.00  0.00    +0.000 NA
BRANCH  30  32
ATOM     32  C   UNL     1       6.755   4.803  13.079  0.00  0.00    +0.000 C 
ATOM     33  C   UNL     1       8.143   5.373  12.793  0.00  0.00    +0.000 C 
ATOM     34  C   UNL     1       6.525   3.521  12.279  0.00  0.00    +0.000 C 
ENDBRANCH  30  32
ENDBRANCH  26  27
ENDBRANCH  23  26
ENDBRANCH   6  22
BRANCH   1  36
ATOM     35  C   UNL     1       1.414   4.582  20.570  0.00  0.00    +0.000 C 
ATOM     36  O   UNL     1       2.450   5.574  20.611  0.00  0.00    +0.000 OA
ENDBRANCH   1  36
TORSDOF 6
ENDMDL
MODEL 8
REMARK VINA RESULT:      -8.7      1.529      1.672
REMARK  Name = 
REMARK  9 active torsions:
REMARK  status: ('A' for Active; 'I' for Inactive)
REMARK    1  A    between atoms: C_1  and  O_2
REMARK    2  A    between atoms: O_2  and  C_3
REMARK    3  A    between atoms: C_5  and  N_6
REMARK    4  A    between atoms: C_21  and  N_22
REMARK    5  A    between atoms: C_23  and  C_25
REMARK    6  A    between atoms: C_25  and  C_26
REMARK    7  A    between atoms: C_29  and  C_30
REMARK    8  A    between atoms: C_30  and  C_31
REMARK    9  A    between atoms: C_30  and  C_32
REMARK                            x       y       z     vdW  Elec       q    Type
REMARK                         _______ _______ _______ _____ _____    ______ ____
ROOT
ATOM      1  C   UNL     1       1.455   8.538  20.276  0.00  0.00    +0.000 A 
ATOM      2  C   UNL     1       2.131   7.359  19.905  0.00  0.00    +0.000 A 
ATOM      3  C   UNL     1       2.446   7.073  18.575  0.00  0.00    +0.000 A 
ATOM      4  C   UNL     1       2.160   8.038  17.615  0.00  0.00    +0.000 A 
ATOM      5  C   UNL     1       1.546   9.243  17.977  0.00  0.00    +0.000 A 
ATOM      6  C   UNL     1       1.170   9.518  19.297  0.00  0.00    +0.000 A 
ENDROOT
BRANCH   3   7
ATOM      7  N   UNL     1       3.076   5.838  18.215  0.00  0.00    +0.000 N 
ATOM      8  C   UNL     1       4.116   5.725  17.325  0.00  0.00    +0.000 A 
ATOM      9  C   UNL     1       4.527   4.424  17.241  0.00  0.00    +0.000 A 
ATOM     10  C   UNL     1       3.718   3.660  18.061  0.00  0.00    +0.000 A 
ATOM     11  N   UNL     1       3.768   2.329  18.261  0.00  0.00    +0.000 NA
ATOM     12  C   UNL     1       2.836   1.889  19.096  0.00  0.00    +0.000 A 
ATOM     13  N   UNL     1       1.899   2.610  19.726  0.00  0.00    +0.000 NA
ATOM     14  C   UNL     1       1.851   3.941  19.528  0.00  0.00    +0.000 A 
ATOM     15  N   UNL     1       0.804   4.572  20.183  0.00  0.00    +0.000 N 
ATOM     16  C   UNL     1       2.799   4.529  18.681  0.00  0.00    +0.000 A 
ATOM     17  C   UNL     1       5.710   4.252  16.372  0.00  0.00    +0.000 C 
ATOM     18  C   UNL     1       6.210   5.722  16.241  0.00  0.00    +0.000 C 
ATOM     19  C   UNL     1       4.986   6.652  16.558  0.00  0.00    +0.000 C 
ATOM     20  H   UNL     1       0.179   3.861  20.547  0.00  0.00    +0.000 HD
ATOM     21  H   UNL     1       0.350   5.288  19.629  0.00  0.00    +0.000 HD
ENDBRANCH   3   7
BRANCH   6  22
ATOM     22  N   UNL     1       0.545  10.749  19.661  0.00  0.00    +0.000 N 
ATOM     23  C   UNL     1      -0.774  11.107  19.395  0.00  0.00    +0.000 C 
ATOM     24  O   UNL     1      -1.626  10.369  18.894  0.00  0.00    +0.000 OA
ATOM     25  H   UNL     1       1.118  11.368  20.226  0.00  0.00    +0.000 HD
BRANCH  23  26
ATOM     26  C   UNL     1      -1.153  12.538  19.751  0.00  0.00    +0.000 C 
BRANCH  26  27
ATOM     27  C   UNL     1      -2.321  12.597  20.671  0.00  0.00    +0.000 A 
ATOM     28  C   UNL     1      -3.663  12.738  20.392  0.00  0.00    +0.000 A 
ATOM     29  O   UNL     1      -4.343  12.798  21.570  0.00  0.00    +0.000 OA
ATOM     30  C   UNL     1      -3.367  12.696  22.523  0.00  0.00    +0.000 A 
ATOM     31  N   UNL     1      -2.146  12.572  22.041  0.00  0.00    +0.000 NA
BRANCH  30  32
ATOM     32  C   UNL     1      -3.814  12.778  23.947  0.00  0.00    +0.000 C 
ATOM     33  C   UNL     1      -3.274  14.039  24.620  0.00  0.00    +0.000 C 
ATOM     34  C   UNL     1      -5.339  12.736  24.030  0.00  0.00    +0.000 C 
ENDBRANCH  30  32
ENDBRANCH  26  27
ENDBRANCH  23  26
ENDBRANCH   6  22
BRANCH   1  36
ATOM     35  C   UNL     1      -0.280   8.408  21.893  0.00  0.00    +0.000 C 
ATOM     36  O   UNL     1       1.069   8.781  21.579  0.00  0.00    +0.000 OA
ENDBRANCH   1  36
TORSDOF 6
ENDMDL
MODEL 9
REMARK VINA RESULT:      -8.6      1.443      1.756
REMARK  Name = 
REMARK  9 active torsions:
REMARK  status: ('A' for Active; 'I' for Inactive)
REMARK    1  A    between atoms: C_1  and  O_2
REMARK    2  A    between atoms: O_2  and  C_3
REMARK    3  A    between atoms: C_5  and  N_6
REMARK    4  A    between atoms: C_21  and  N_22
REMARK    5  A    between atoms: C_23  and  C_25
REMARK    6  A    between atoms: C_25  and  C_26
REMARK    7  A    between atoms: C_29  and  C_30
REMARK    8  A    between atoms: C_30  and  C_31
REMARK    9  A    between atoms: C_30  and  C_32
REMARK                            x       y       z     vdW  Elec       q    Type
REMARK                         _______ _______ _______ _____ _____    ______ ____
ROOT
ATOM      1  C   UNL     1       1.537   8.475  20.249  0.00  0.00    +0.000 A 
ATOM      2  C   UNL     1       2.192   7.291  19.856  0.00  0.00    +0.000 A 
ATOM      3  C   UNL     1       2.487   7.017  18.519  0.00  0.00    +0.000 A 
ATOM      4  C   UNL     1       2.202   7.996  17.573  0.00  0.00    +0.000 A 
ATOM      5  C   UNL     1       1.609   9.206  17.956  0.00  0.00    +0.000 A 
ATOM      6  C   UNL     1       1.253   9.470  19.285  0.00  0.00    +0.000 A 
ENDROOT
BRANCH   3   7
ATOM      7  N   UNL     1       3.095   5.778  18.137  0.00  0.00    +0.000 N 
ATOM      8  C   UNL     1       4.124   5.661  17.235  0.00  0.00    +0.000 A 
ATOM      9  C   UNL     1       4.515   4.356  17.130  0.00  0.00    +0.000 A 
ATOM     10  C   UNL     1       3.704   3.593  17.949  0.00  0.00    +0.000 A 
ATOM     11  N   UNL     1       3.736   2.259  18.131  0.00  0.00    +0.000 NA
ATOM     12  C   UNL     1       2.806   1.822  18.970  0.00  0.00    +0.000 A 
ATOM     13  N   UNL     1       1.887   2.548  19.619  0.00  0.00    +0.000 NA
ATOM     14  C   UNL     1       1.856   3.882  19.438  0.00  0.00    +0.000 A 
ATOM     15  N   UNL     1       0.825   4.519  20.111  0.00  0.00    +0.000 N 
ATOM     16  C   UNL     1       2.804   4.467  18.588  0.00  0.00    +0.000 A 
ATOM     17  C   UNL     1       5.687   4.178  16.247  0.00  0.00    +0.000 C 
ATOM     18  C   UNL     1       6.207   5.642  16.129  0.00  0.00    +0.000 C 
ATOM     19  C   UNL     1       5.000   6.585  16.471  0.00  0.00    +0.000 C 
ATOM     20  H   UNL     1       0.193   3.812  20.473  0.00  0.00    +0.000 HD
ATOM     21  H   UNL     1       0.376   5.248  19.571  0.00  0.00    +0.000 HD
ENDBRANCH   3   7
BRANCH   6  22
ATOM     22  N   UNL     1       0.650  10.705  19.670  0.00  0.00    +0.000 N 
ATOM     23  C   UNL     1      -0.675  11.074  19.448  0.00  0.00    +0.000 C 
ATOM     24  O   UNL     1      -1.548  10.343  18.975  0.00  0.00    +0.000 OA
ATOM     25  H   UNL     1       1.246  11.320  20.217  0.00  0.00    +0.000 HD
BRANCH  23  26
ATOM     26  C   UNL     1      -1.031  12.507  19.818  0.00  0.00    +0.000 C 
BRANCH  26  27
ATOM     27  C   UNL     1      -1.419  12.637  21.249  0.00  0.00    +0.000 A 
ATOM     28  C   UNL     1      -0.809  12.142  22.382  0.00  0.00    +0.000 A 
ATOM     29  O   UNL     1      -1.570  12.475  23.460  0.00  0.00    +0.000 OA
ATOM     30  C   UNL     1      -2.625  13.162  22.924  0.00  0.00    +0.000 A 
ATOM     31  N   UNL     1      -2.582  13.288  21.612  0.00  0.00    +0.000 NA
BRANCH  30  32
ATOM     32  C   UNL     1      -3.675  13.625  23.880  0.00  0.00    +0.000 C 
ATOM     33  C   UNL     1      -4.324  12.443  24.599  0.00  0.00    +0.000 C 
ATOM     34  C   UNL     1      -3.081  14.607  24.890  0.00  0.00    +0.000 C 
ENDBRANCH  30  32
ENDBRANCH  26  27
ENDBRANCH  23  26
ENDBRANCH   6  22
BRANCH   1  36
ATOM     35  C   UNL     1      -0.186   8.372  21.880  0.00  0.00    +0.000 C 
ATOM     36  O   UNL     1       1.171   8.709  21.559  0.00  0.00    +0.000 OA
ENDBRANCH   1  36
TORSDOF 6
ENDMDL
