MODEL 1
REMARK VINA RESULT:      -6.4      0.000      0.000
REMARK  Name = 
REMARK  3 active torsions:
REMARK  status: ('A' for Active; 'I' for Inactive)
REMARK    1  A    between atoms: C_2  and  C_4
REMARK    2  A    between atoms: N_10  and  C_11
REMARK    3  A    between atoms: C_11  and  O_12
REMARK                            x       y       z     vdW  Elec       q    Type
REMARK                         _______ _______ _______ _____ _____    ______ ____
ROOT
ATOM      1  C   UNL     1       6.549   6.520  17.368  0.00  0.00    +0.000 A 
ATOM      2  N   UNL     1       5.888   6.719  16.157  0.00  0.00    +0.000 NA
ATOM      3  C   UNL     1       4.985   5.764  16.104  0.00  0.00    +0.000 A 
ATOM      4  N   UNL     1       5.017   4.973  17.220  0.00  0.00    +0.000 N 
ATOM      5  C   UNL     1       4.206   3.900  17.534  0.00  0.00    +0.000 A 
ATOM      6  O   UNL     1       3.353   3.532  16.741  0.00  0.00    +0.000 OA
ATOM      7  N   UNL     1       4.509   3.397  18.785  0.00  0.00    +0.000 N 
ATOM      8  N   UNL     1       5.574   3.812  19.556  0.00  0.00    +0.000 NA
ATOM      9  N   UNL     1       6.275   4.787  19.193  0.00  0.00    +0.000 NA
ATOM     10  C   UNL     1       6.019   5.424  18.030  0.00  0.00    +0.000 A 
ENDROOT
BRANCH   1  12
ATOM     11  N   UNL     1       8.307   6.903  18.911  0.00  0.00    +0.000 N 
ATOM     12  C   UNL     1       7.634   7.382  17.823  0.00  0.00    +0.000 C 
ATOM     13  O   UNL     1       7.948   8.440  17.290  0.00  0.00    +0.000 OA
ATOM     14  H   UNL     1       9.115   7.407  19.245  0.00  0.00    +0.000 HD
ATOM     15  H   UNL     1       8.072   5.993  19.290  0.00  0.00    +0.000 HD
ENDBRANCH   1  12
BRANCH   7  16
ATOM     16  C   UNL     1       3.751   2.256  19.247  0.00  0.00    +0.000 C 
BRANCH  16  17
ATOM     17  O   UNL     1       4.002   1.130  18.427  0.00  0.00    +0.000 OA
ATOM     18  H   UNL     1       4.936   0.904  18.573  0.00  0.00    +0.000 HD
ENDBRANCH  16  17
ENDBRANCH   7  16
TORSDOF 3
ENDMDL
MODEL 2
REMARK VINA RESULT:      -6.3      2.197      2.414
REMARK  Name = 
REMARK  3 active torsions:
REMARK  status: ('A' for Active; 'I' for Inactive)
REMARK    1  A    between atoms: C_2  and  C_4
REMARK    2  A    between atoms: N_10  and  C_11
REMARK    3  A    between atoms: C_11  and  O_12
REMARK                            x       y       z     vdW  Elec       q    Type
REMARK                         _______ _______ _______ _____ _____    ______ ____
ROOT
ATOM      1  C   UNL     1       6.090   4.946  18.124  0.00  0.00    +0.000 A 
ATOM      2  N   UNL     1       5.564   5.877  17.230  0.00  0.00    +0.000 NA
ATOM      3  C   UNL     1       4.265   5.672  17.252  0.00  0.00    +0.000 A 
ATOM      4  N   UNL     1       3.925   4.672  18.124  0.00  0.00    +0.000 N 
ATOM      5  C   UNL     1       2.665   4.202  18.438  0.00  0.00    +0.000 A 
ATOM      6  O   UNL     1       1.685   4.667  17.876  0.00  0.00    +0.000 OA
ATOM      7  N   UNL     1       2.728   3.224  19.413  0.00  0.00    +0.000 N 
ATOM      8  N   UNL     1       3.899   2.685  19.902  0.00  0.00    +0.000 NA
ATOM      9  N   UNL     1       5.007   3.160  19.555  0.00  0.00    +0.000 NA
ATOM     10  C   UNL     1       5.073   4.183  18.675  0.00  0.00    +0.000 A 
ENDROOT
BRANCH   1  12
ATOM     11  N   UNL     1       7.924   5.548  19.499  0.00  0.00    +0.000 N 
ATOM     12  C   UNL     1       7.517   4.842  18.403  0.00  0.00    +0.000 C 
ATOM     13  O   UNL     1       8.307   4.177  17.740  0.00  0.00    +0.000 OA
ATOM     14  H   UNL     1       8.884   5.473  19.799  0.00  0.00    +0.000 HD
ATOM     15  H   UNL     1       7.240   6.032  20.069  0.00  0.00    +0.000 HD
ENDBRANCH   1  12
BRANCH   7  16
ATOM     16  C   UNL     1       1.485   2.622  19.836  0.00  0.00    +0.000 C 
BRANCH  16  17
ATOM     17  O   UNL     1       0.601   3.609  20.334  0.00  0.00    +0.000 OA
ATOM     18  H   UNL     1      -0.200   3.129  20.607  0.00  0.00    +0.000 HD
ENDBRANCH  16  17
ENDBRANCH   7  16
TORSDOF 3
ENDMDL
MODEL 3
REMARK VINA RESULT:      -6.3      2.284      2.538
REMARK  Name = 
REMARK  3 active torsions:
REMARK  status: ('A' for Active; 'I' for Inactive)
REMARK    1  A    between atoms: C_2  and  C_4
REMARK    2  A    between atoms: N_10  and  C_11
REMARK    3  A    between atoms: C_11  and  O_12
REMARK                            x       y       z     vdW  Elec       q    Type
REMARK                         _______ _______ _______ _____ _____    ______ ____
ROOT
ATOM      1  C   UNL     1       5.666   5.097  17.610  0.00  0.00    +0.000 A 
ATOM      2  N   UNL     1       4.786   6.084  17.168  0.00  0.00    +0.000 NA
ATOM      3  C   UNL     1       3.661   5.844  17.804  0.00  0.00    +0.000 A 
ATOM      4  N   UNL     1       3.773   4.770  18.645  0.00  0.00    +0.000 N 
ATOM      5  C   UNL     1       2.820   4.244  19.494  0.00  0.00    +0.000 A 
ATOM      6  O   UNL     1       1.698   4.727  19.523  0.00  0.00    +0.000 OA
ATOM      7  N   UNL     1       3.334   3.192  20.230  0.00  0.00    +0.000 N 
ATOM      8  N   UNL     1       4.585   2.646  20.039  0.00  0.00    +0.000 NA
ATOM      9  N   UNL     1       5.390   3.175  19.235  0.00  0.00    +0.000 NA
ATOM     10  C   UNL     1       5.035   4.267  18.523  0.00  0.00    +0.000 A 
ENDROOT
BRANCH   1  12
ATOM     11  N   UNL     1       7.873   4.322  17.990  0.00  0.00    +0.000 N 
ATOM     12  C   UNL     1       7.046   5.007  17.147  0.00  0.00    +0.000 C 
ATOM     13  O   UNL     1       7.455   5.483  16.093  0.00  0.00    +0.000 OA
ATOM     14  H   UNL     1       8.828   4.157  17.709  0.00  0.00    +0.000 HD
ATOM     15  H   UNL     1       7.494   3.880  18.820  0.00  0.00    +0.000 HD
ENDBRANCH   1  12
BRANCH   7  16
ATOM     16  C   UNL     1       2.446   2.526  21.155  0.00  0.00    +0.000 C 
BRANCH  16  17
ATOM     17  O   UNL     1       2.141   3.375  22.246  0.00  0.00    +0.000 OA
ATOM     18  H   UNL     1       2.001   2.784  23.005  0.00  0.00    +0.000 HD
ENDBRANCH  16  17
ENDBRANCH   7  16
TORSDOF 3
ENDMDL
MODEL 4
REMARK VINA RESULT:      -6.2      2.777      3.577
REMARK  Name = 
REMARK  3 active torsions:
REMARK  status: ('A' for Active; 'I' for Inactive)
REMARK    1  A    between atoms: C_2  and  C_4
REMARK    2  A    between atoms: N_10  and  C_11
REMARK    3  A    between atoms: C_11  and  O_12
REMARK                            x       y       z     vdW  Elec       q    Type
REMARK                         _______ _______ _______ _____ _____    ______ ____
ROOT
ATOM      1  C   UNL     1       6.789   4.527  15.736  0.00  0.00    +0.000 A 
ATOM      2  N   UNL     1       7.935   4.636  16.522  0.00  0.00    +0.000 NA
ATOM      3  C   UNL     1       7.496   4.644  17.762  0.00  0.00    +0.000 A 
ATOM      4  N   UNL     1       6.134   4.527  17.818  0.00  0.00    +0.000 N 
ATOM      5  C   UNL     1       5.324   4.466  18.935  0.00  0.00    +0.000 A 
ATOM      6  O   UNL     1       5.818   4.557  20.049  0.00  0.00    +0.000 OA
ATOM      7  N   UNL     1       4.000   4.285  18.581  0.00  0.00    +0.000 N 
ATOM      8  N   UNL     1       3.529   4.309  17.285  0.00  0.00    +0.000 NA
ATOM      9  N   UNL     1       4.330   4.383  16.323  0.00  0.00    +0.000 NA
ATOM     10  C   UNL     1       5.661   4.472  16.539  0.00  0.00    +0.000 A 
ENDROOT
BRANCH   1  12
ATOM     11  N   UNL     1       6.132   3.439  13.736  0.00  0.00    +0.000 N 
ATOM     12  C   UNL     1       6.835   4.476  14.280  0.00  0.00    +0.000 C 
ATOM     13  O   UNL     1       7.432   5.285  13.577  0.00  0.00    +0.000 OA
ATOM     14  H   UNL     1       6.058   3.374  12.732  0.00  0.00    +0.000 HD
ATOM     15  H   UNL     1       5.592   2.827  14.336  0.00  0.00    +0.000 HD
ENDBRANCH   1  12
BRANCH   7  16
ATOM     16  C   UNL     1       3.027   4.217  19.647  0.00  0.00    +0.000 C 
BRANCH  16  17
ATOM     17  O   UNL     1       3.067   5.396  20.430  0.00  0.00    +0.000 OA
ATOM     18  H   UNL     1       2.189   5.465  20.843  0.00  0.00    +0.000 HD
ENDBRANCH  16  17
ENDBRANCH   7  16
TORSDOF 3
ENDMDL
MODEL 5
REMARK VINA RESULT:      -6.2      1.863      2.014
REMARK  Name = 
REMARK  3 active torsions:
REMARK  status: ('A' for Active; 'I' for Inactive)
REMARK    1  A    between atoms: C_2  and  C_4
REMARK    2  A    between atoms: N_10  and  C_11
REMARK    3  A    between atoms: C_11  and  O_12
REMARK                            x       y       z     vdW  Elec       q    Type
REMARK                         _______ _______ _______ _____ _____    ______ ____
ROOT
ATOM      1  C   UNL     1       5.909   5.472  18.188  0.00  0.00    +0.000 A 
ATOM      2  N   UNL     1       5.208   6.439  17.469  0.00  0.00    +0.000 NA
ATOM      3  C   UNL     1       3.952   6.054  17.519  0.00  0.00    +0.000 A 
ATOM      4  N   UNL     1       3.803   4.903  18.246  0.00  0.00    +0.000 N 
ATOM      5  C   UNL     1       2.639   4.222  18.542  0.00  0.00    +0.000 A 
ATOM      6  O   UNL     1       1.572   4.622  18.101  0.00  0.00    +0.000 OA
ATOM      7  N   UNL     1       2.893   3.134  19.357  0.00  0.00    +0.000 N 
ATOM      8  N   UNL     1       4.154   2.700  19.706  0.00  0.00    +0.000 NA
ATOM      9  N   UNL     1       5.165   3.369  19.384  0.00  0.00    +0.000 NA
ATOM     10  C   UNL     1       5.039   4.505  18.665  0.00  0.00    +0.000 A 
ENDROOT
BRANCH   1  12
ATOM     11  N   UNL     1       7.996   4.352  18.131  0.00  0.00    +0.000 N 
ATOM     12  C   UNL     1       7.353   5.530  18.384  0.00  0.00    +0.000 C 
ATOM     13  O   UNL     1       7.965   6.534  18.731  0.00  0.00    +0.000 OA
ATOM     14  H   UNL     1       9.004   4.327  18.177  0.00  0.00    +0.000 HD
ATOM     15  H   UNL     1       7.475   3.557  17.779  0.00  0.00    +0.000 HD
ENDBRANCH   1  12
BRANCH   7  16
ATOM     16  C   UNL     1       1.769   2.311  19.741  0.00  0.00    +0.000 C 
BRANCH  16  17
ATOM     17  O   UNL     1       1.192   1.698  18.602  0.00  0.00    +0.000 OA
ATOM     18  H   UNL     1       0.454   2.275  18.341  0.00  0.00    +0.000 HD
ENDBRANCH  16  17
ENDBRANCH   7  16
TORSDOF 3
ENDMDL
MODEL 6
REMARK VINA RESULT:      -6.2      2.660      4.816
REMARK  Name = 
REMARK  3 active torsions:
REMARK  status: ('A' for Active; 'I' for Inactive)
REMARK    1  A    between atoms: C_2  and  C_4
REMARK    2  A    between atoms: N_10  and  C_11
REMARK    3  A    between atoms: C_11  and  O_12
REMARK                            x       y       z     vdW  Elec       q    Type
REMARK                         _______ _______ _______ _____ _____    ______ ____
ROOT
ATOM      1  C   UNL     1       2.206   3.991  18.938  0.00  0.00    +0.000 A 
ATOM      2  N   UNL     1       1.847   3.291  17.787  0.00  0.00    +0.000 NA
ATOM      3  C   UNL     1       2.915   3.330  17.021  0.00  0.00    +0.000 A 
ATOM      4  N   UNL     1       3.946   4.000  17.622  0.00  0.00    +0.000 N 
ATOM      5  C   UNL     1       5.223   4.214  17.142  0.00  0.00    +0.000 A 
ATOM      6  O   UNL     1       5.529   3.814  16.029  0.00  0.00    +0.000 OA
ATOM      7  N   UNL     1       5.998   4.881  18.072  0.00  0.00    +0.000 N 
ATOM      8  N   UNL     1       5.523   5.394  19.260  0.00  0.00    +0.000 NA
ATOM      9  N   UNL     1       4.342   5.167  19.619  0.00  0.00    +0.000 NA
ATOM     10  C   UNL     1       3.511   4.446  18.836  0.00  0.00    +0.000 A 
ENDROOT
BRANCH   1  12
ATOM     11  N   UNL     1       0.566   3.067  20.378  0.00  0.00    +0.000 N 
ATOM     12  C   UNL     1       1.296   4.178  20.062  0.00  0.00    +0.000 C 
ATOM     13  O   UNL     1       1.182   5.221  20.696  0.00  0.00    +0.000 OA
ATOM     14  H   UNL     1      -0.037   3.094  21.187  0.00  0.00    +0.000 HD
ATOM     15  H   UNL     1       0.729   2.198  19.883  0.00  0.00    +0.000 HD
ENDBRANCH   1  12
BRANCH   7  16
ATOM     16  C   UNL     1       7.361   5.193  17.705  0.00  0.00    +0.000 C 
BRANCH  16  17
ATOM     17  O   UNL     1       8.130   4.008  17.603  0.00  0.00    +0.000 OA
ATOM     18  H   UNL     1       8.956   4.270  17.164  0.00  0.00    +0.000 HD
ENDBRANCH  16  17
ENDBRANCH   7  16
TORSDOF 3
ENDMDL
MODEL 7
REMARK VINA RESULT:      -6.2      2.592      2.879
REMARK  Name = 
REMARK  3 active torsions:
REMARK  status: ('A' for Active; 'I' for Inactive)
REMARK    1  A    between atoms: C_2  and  C_4
REMARK    2  A    between atoms: N_10  and  C_11
REMARK    3  A    between atoms: C_11  and  O_12
REMARK                            x       y       z     vdW  Elec       q    Type
REMARK                         _______ _______ _______ _____ _____    ______ ____
ROOT
ATOM      1  C   UNL     1       5.807   5.001  18.106  0.00  0.00    +0.000 A 
ATOM      2  N   UNL     1       5.190   6.204  17.769  0.00  0.00    +0.000 NA
ATOM      3  C   UNL     1       4.020   6.165  18.369  0.00  0.00    +0.000 A 
ATOM      4  N   UNL     1       3.858   5.013  19.089  0.00  0.00    +0.000 N 
ATOM      5  C   UNL     1       2.785   4.635  19.870  0.00  0.00    +0.000 A 
ATOM      6  O   UNL     1       1.803   5.358  19.945  0.00  0.00    +0.000 OA
ATOM      7  N   UNL     1       3.023   3.423  20.491  0.00  0.00    +0.000 N 
ATOM      8  N   UNL     1       4.122   2.626  20.250  0.00  0.00    +0.000 NA
ATOM      9  N   UNL     1       5.050   3.036  19.512  0.00  0.00    +0.000 NA
ATOM     10  C   UNL     1       4.976   4.248  18.920  0.00  0.00    +0.000 A 
ENDROOT
BRANCH   1  12
ATOM     11  N   UNL     1       7.276   4.625  16.285  0.00  0.00    +0.000 N 
ATOM     12  C   UNL     1       7.143   4.644  17.644  0.00  0.00    +0.000 C 
ATOM     13  O   UNL     1       8.088   4.392  18.384  0.00  0.00    +0.000 OA
ATOM     14  H   UNL     1       8.187   4.455  15.887  0.00  0.00    +0.000 HD
ATOM     15  H   UNL     1       6.498   4.905  15.698  0.00  0.00    +0.000 HD
ENDBRANCH   1  12
BRANCH   7  16
ATOM     16  C   UNL     1       1.978   2.887  21.334  0.00  0.00    +0.000 C 
BRANCH  16  17
ATOM     17  O   UNL     1       0.729   2.947  20.672  0.00  0.00    +0.000 OA
ATOM     18  H   UNL     1       0.653   3.857  20.338  0.00  0.00    +0.000 HD
ENDBRANCH  16  17
ENDBRANCH   7  16
TORSDOF 3
ENDMDL
MODEL 8
REMARK VINA RESULT:      -6.1      2.852      4.967
REMARK  Name = 
REMARK  3 active torsions:
REMARK  status: ('A' for Active; 'I' for Inactive)
REMARK    1  A    between atoms: C_2  and  C_4
REMARK    2  A    between atoms: N_10  and  C_11
REMARK    3  A    between atoms: C_11  and  O_12
REMARK                            x       y       z     vdW  Elec       q    Type
REMARK                         _______ _______ _______ _____ _____    ______ ____
ROOT
ATOM      1  C   UNL     1       2.613   4.637  20.169  0.00  0.00    +0.000 A 
ATOM      2  N   UNL     1       2.044   5.864  19.832  0.00  0.00    +0.000 NA
ATOM      3  C   UNL     1       2.918   6.434  19.032  0.00  0.00    +0.000 A 
ATOM      4  N   UNL     1       4.009   5.636  18.820  0.00  0.00    +0.000 N 
ATOM      5  C   UNL     1       5.107   5.879  18.020  0.00  0.00    +0.000 A 
ATOM      6  O   UNL     1       5.199   6.941  17.423  0.00  0.00    +0.000 OA
ATOM      7  N   UNL     1       5.971   4.800  18.018  0.00  0.00    +0.000 N 
ATOM      8  N   UNL     1       5.831   3.688  18.821  0.00  0.00    +0.000 NA
ATOM      9  N   UNL     1       4.809   3.548  19.534  0.00  0.00    +0.000 NA
ATOM     10  C   UNL     1       3.845   4.494  19.550  0.00  0.00    +0.000 A 
ENDROOT
BRANCH   1  12
ATOM     11  N   UNL     1       0.780   3.186  20.553  0.00  0.00    +0.000 N 
ATOM     12  C   UNL     1       1.954   3.678  21.047  0.00  0.00    +0.000 C 
ATOM     13  O   UNL     1       2.395   3.315  22.132  0.00  0.00    +0.000 OA
ATOM     14  H   UNL     1       0.297   2.465  21.069  0.00  0.00    +0.000 HD
ATOM     15  H   UNL     1       0.473   3.450  19.624  0.00  0.00    +0.000 HD
ENDBRANCH   1  12
BRANCH   7  16
ATOM     16  C   UNL     1       7.180   4.914  17.234  0.00  0.00    +0.000 C 
BRANCH  16  17
ATOM     17  O   UNL     1       8.180   4.048  17.738  0.00  0.00    +0.000 OA
ATOM     18  H   UNL     1       8.987   4.586  17.795  0.00  0.00    +0.000 HD
ENDBRANCH  16  17
ENDBRANCH   7  16
TORSDOF 3
ENDMDL
MODEL 9
REMARK VINA RESULT:      -6.1      2.310      4.759
REMARK  Name = 
REMARK  3 active torsions:
REMARK  status: ('A' for Active; 'I' for Inactive)
REMARK    1  A    between atoms: C_2  and  C_4
REMARK    2  A    between atoms: N_10  and  C_11
REMARK    3  A    between atoms: C_11  and  O_12
REMARK                            x       y       z     vdW  Elec       q    Type
REMARK                         _______ _______ _______ _____ _____    ______ ____
ROOT
ATOM      1  C   UNL     1       2.550   3.886  19.241  0.00  0.00    +0.000 A 
ATOM      2  N   UNL     1       1.852   3.480  18.105  0.00  0.00    +0.000 NA
ATOM      3  C   UNL     1       2.729   3.544  17.128  0.00  0.00    +0.000 A 
ATOM      4  N   UNL     1       3.957   3.951  17.575  0.00  0.00    +0.000 N 
ATOM      5  C   UNL     1       5.124   4.104  16.853  0.00  0.00    +0.000 A 
ATOM      6  O   UNL     1       5.124   3.902  15.649  0.00  0.00    +0.000 OA
ATOM      7  N   UNL     1       6.173   4.473  17.675  0.00  0.00    +0.000 N 
ATOM      8  N   UNL     1       6.043   4.790  19.010  0.00  0.00    +0.000 NA
ATOM      9  N   UNL     1       4.941   4.638  19.592  0.00  0.00    +0.000 NA
ATOM     10  C   UNL     1       3.861   4.193  18.915  0.00  0.00    +0.000 A 
ENDROOT
BRANCH   1  12
ATOM     11  N   UNL     1       2.307   5.039  21.298  0.00  0.00    +0.000 N 
ATOM     12  C   UNL     1       1.934   3.951  20.562  0.00  0.00    +0.000 C 
ATOM     13  O   UNL     1       1.139   3.125  20.997  0.00  0.00    +0.000 OA
ATOM     14  H   UNL     1       1.873   5.193  22.195  0.00  0.00    +0.000 HD
ATOM     15  H   UNL     1       2.911   5.743  20.888  0.00  0.00    +0.000 HD
ENDBRANCH   1  12
BRANCH   7  16
ATOM     16  C   UNL     1       7.462   4.687  17.058  0.00  0.00    +0.000 C 
BRANCH  16  17
ATOM     17  O   UNL     1       7.397   5.757  16.134  0.00  0.00    +0.000 OA
ATOM     18  H   UNL     1       6.533   5.673  15.696  0.00  0.00    +0.000 HD
ENDBRANCH  16  17
ENDBRANCH   7  16
TORSDOF 3
ENDMDL
