MODEL 1
REMARK VINA RESULT:      -7.8      0.000      0.000
REMARK  Name = 
REMARK  3 active torsions:
REMARK  status: ('A' for Active; 'I' for Inactive)
REMARK    1  A    between atoms: C_2  and  C_3
REMARK    2  A    between atoms: N_5  and  C_6
REMARK    3  A    between atoms: N_14  and  C_15
REMARK                            x       y       z     vdW  Elec       q    Type
REMARK                         _______ _______ _______ _____ _____    ______ ____
ROOT
ATOM      1  C   UNL     1       5.421   4.277  13.248  0.00  0.00    +0.000 A 
ATOM      2  C   UNL     1       6.812   4.281  13.194  0.00  0.00    +0.000 A 
ATOM      3  C   UNL     1       7.565   4.442  14.360  0.00  0.00    +0.000 A 
ATOM      4  C   UNL     1       6.969   4.567  15.602  0.00  0.00    +0.000 A 
ATOM      5  N   UNL     1       7.758   4.656  16.673  0.00  0.00    +0.000 NA
ATOM      6  C   UNL     1       7.151   4.739  17.857  0.00  0.00    +0.000 A 
ATOM      7  N   UNL     1       5.834   4.738  18.062  0.00  0.00    +0.000 NA
ATOM      8  C   UNL     1       5.041   4.646  16.976  0.00  0.00    +0.000 A 
ATOM      9  N   UNL     1       3.631   4.566  17.171  0.00  0.00    +0.000 N 
ATOM     10  C   UNL     1       5.568   4.574  15.675  0.00  0.00    +0.000 A 
ATOM     11  C   UNL     1       4.801   4.485  14.481  0.00  0.00    +0.000 A 
ATOM     12  H   UNL     1       3.298   3.705  16.751  0.00  0.00    +0.000 HD
ENDROOT
BRANCH   9  13
ATOM     13  C   UNL     1       2.999   4.813  18.417  0.00  0.00    +0.000 A 
ATOM     14  C   UNL     1       2.719   6.128  18.819  0.00  0.00    +0.000 A 
ATOM     15  C   UNL     1       2.158   6.398  20.071  0.00  0.00    +0.000 A 
ATOM     16  C   UNL     1       1.867   5.346  20.931  0.00  0.00    +0.000 A 
ATOM     17  C   UNL     1       2.112   4.033  20.528  0.00  0.00    +0.000 A 
ATOM     18 BR   UNL     1       1.723   2.608  21.711  0.00  0.00    +0.000 Br
ATOM     19  C   UNL     1       2.667   3.763  19.276  0.00  0.00    +0.000 A 
ENDBRANCH   9  13
BRANCH   1  22
ATOM     20  C   UNL     1       4.629   2.875  11.367  0.00  0.00    +0.000 C 
ATOM     21  O   UNL     1       5.362   1.908  11.529  0.00  0.00    +0.000 OA
ATOM     22  N   UNL     1       4.604   4.030  12.126  0.00  0.00    +0.000 N 
ATOM     23  H   UNL     1       3.841   4.676  11.970  0.00  0.00    +0.000 HD
BRANCH  20  25
ATOM     24  C   UNL     1       3.069   4.022   9.869  0.00  0.00    +0.000 C 
ATOM     25  C   UNL     1       3.577   2.863  10.312  0.00  0.00    +0.000 C 
ENDBRANCH  20  25
ENDBRANCH   1  22
TORSDOF 3
ENDMDL
MODEL 2
REMARK VINA RESULT:      -7.8      1.094      1.484
REMARK  Name = 
REMARK  3 active torsions:
REMARK  status: ('A' for Active; 'I' for Inactive)
REMARK    1  A    between atoms: C_2  and  C_3
REMARK    2  A    between atoms: N_5  and  C_6
REMARK    3  A    between atoms: N_14  and  C_15
REMARK                            x       y       z     vdW  Elec       q    Type
REMARK                         _______ _______ _______ _____ _____    ______ ____
ROOT
ATOM      1  C   UNL     1       5.419   4.291  13.332  0.00  0.00    +0.000 A 
ATOM      2  C   UNL     1       6.805   4.376  13.230  0.00  0.00    +0.000 A 
ATOM      3  C   UNL     1       7.589   4.538  14.376  0.00  0.00    +0.000 A 
ATOM      4  C   UNL     1       7.032   4.585  15.640  0.00  0.00    +0.000 A 
ATOM      5  N   UNL     1       7.853   4.680  16.687  0.00  0.00    +0.000 NA
ATOM      6  C   UNL     1       7.286   4.687  17.894  0.00  0.00    +0.000 A 
ATOM      7  N   UNL     1       5.979   4.605  18.143  0.00  0.00    +0.000 NA
ATOM      8  C   UNL     1       5.154   4.506  17.082  0.00  0.00    +0.000 A 
ATOM      9  N   UNL     1       3.758   4.340  17.322  0.00  0.00    +0.000 N 
ATOM     10  C   UNL     1       5.637   4.510  15.761  0.00  0.00    +0.000 A 
ATOM     11  C   UNL     1       4.833   4.420  14.592  0.00  0.00    +0.000 A 
ATOM     12  H   UNL     1       3.459   3.476  16.882  0.00  0.00    +0.000 HD
ENDROOT
BRANCH   9  13
ATOM     13  C   UNL     1       3.159   4.506  18.597  0.00  0.00    +0.000 A 
ATOM     14  C   UNL     1       2.942   3.395  19.426  0.00  0.00    +0.000 A 
ATOM     15  C   UNL     1       2.294   3.528  20.658  0.00  0.00    +0.000 A 
ATOM     16  C   UNL     1       1.861   4.782  21.072  0.00  0.00    +0.000 A 
ATOM     17  C   UNL     1       2.101   5.898  20.269  0.00  0.00    +0.000 A 
ATOM     18 BR   UNL     1       1.498   7.599  20.836  0.00  0.00    +0.000 Br
ATOM     19  C   UNL     1       2.754   5.767  19.042  0.00  0.00    +0.000 A 
ENDBRANCH   9  13
BRANCH   1  22
ATOM     20  C   UNL     1       4.635   2.911  11.430  0.00  0.00    +0.000 C 
ATOM     21  O   UNL     1       5.423   1.981  11.534  0.00  0.00    +0.000 OA
ATOM     22  N   UNL     1       4.576   4.037  12.230  0.00  0.00    +0.000 N 
ATOM     23  H   UNL     1       3.776   4.646  12.122  0.00  0.00    +0.000 HD
BRANCH  20  25
ATOM     24  C   UNL     1       3.094   4.026   9.890  0.00  0.00    +0.000 C 
ATOM     25  C   UNL     1       3.549   2.878  10.412  0.00  0.00    +0.000 C 
ENDBRANCH  20  25
ENDBRANCH   1  22
TORSDOF 3
ENDMDL
MODEL 3
REMARK VINA RESULT:      -7.5      3.349      5.288
REMARK  Name = 
REMARK  3 active torsions:
REMARK  status: ('A' for Active; 'I' for Inactive)
REMARK    1  A    between atoms: C_2  and  C_3
REMARK    2  A    between atoms: N_5  and  C_6
REMARK    3  A    between atoms: N_14  and  C_15
REMARK                            x       y       z     vdW  Elec       q    Type
REMARK                         _______ _______ _______ _____ _____    ______ ____
ROOT
ATOM      1  C   UNL     1       4.500   4.032  17.006  0.00  0.00    +0.000 A 
ATOM      2  C   UNL     1       4.367   2.734  17.492  0.00  0.00    +0.000 A 
ATOM      3  C   UNL     1       3.608   2.483  18.638  0.00  0.00    +0.000 A 
ATOM      4  C   UNL     1       2.940   3.492  19.307  0.00  0.00    +0.000 A 
ATOM      5  N   UNL     1       2.188   3.161  20.357  0.00  0.00    +0.000 NA
ATOM      6  C   UNL     1       1.529   4.153  20.957  0.00  0.00    +0.000 A 
ATOM      7  N   UNL     1       1.555   5.437  20.599  0.00  0.00    +0.000 NA
ATOM      8  C   UNL     1       2.314   5.765  19.536  0.00  0.00    +0.000 A 
ATOM      9  N   UNL     1       2.299   7.118  19.084  0.00  0.00    +0.000 N 
ATOM     10  C   UNL     1       3.070   4.807  18.837  0.00  0.00    +0.000 A 
ATOM     11  C   UNL     1       3.901   5.075  17.715  0.00  0.00    +0.000 A 
ATOM     12  H   UNL     1       1.992   7.128  18.117  0.00  0.00    +0.000 HD
ENDROOT
BRANCH   9  13
ATOM     13  C   UNL     1       1.721   8.182  19.823  0.00  0.00    +0.000 A 
ATOM     14  C   UNL     1       1.635   8.105  21.222  0.00  0.00    +0.000 A 
ATOM     15  C   UNL     1       1.009   9.112  21.964  0.00  0.00    +0.000 A 
ATOM     16  C   UNL     1       0.469  10.211  21.307  0.00  0.00    +0.000 A 
ATOM     17  C   UNL     1       0.578  10.311  19.919  0.00  0.00    +0.000 A 
ATOM     18 BR   UNL     1      -0.171  11.806  19.033  0.00  0.00    +0.000 Br
ATOM     19  C   UNL     1       1.208   9.309  19.179  0.00  0.00    +0.000 A 
ENDBRANCH   9  13
BRANCH   1  22
ATOM     20  C   UNL     1       6.537   4.541  15.692  0.00  0.00    +0.000 C 
ATOM     21  O   UNL     1       7.362   4.494  16.595  0.00  0.00    +0.000 OA
ATOM     22  N   UNL     1       5.173   4.345  15.807  0.00  0.00    +0.000 N 
ATOM     23  H   UNL     1       4.639   4.261  14.953  0.00  0.00    +0.000 HD
BRANCH  20  25
ATOM     24  C   UNL     1       6.443   3.992  13.309  0.00  0.00    +0.000 C 
ATOM     25  C   UNL     1       6.966   4.753  14.282  0.00  0.00    +0.000 C 
ENDBRANCH  20  25
ENDBRANCH   1  22
TORSDOF 3
ENDMDL
MODEL 4
REMARK VINA RESULT:      -7.5      3.881      5.517
REMARK  Name = 
REMARK  3 active torsions:
REMARK  status: ('A' for Active; 'I' for Inactive)
REMARK    1  A    between atoms: C_2  and  C_3
REMARK    2  A    between atoms: N_5  and  C_6
REMARK    3  A    between atoms: N_14  and  C_15
REMARK                            x       y       z     vdW  Elec       q    Type
REMARK                         _______ _______ _______ _____ _____    ______ ____
ROOT
ATOM      1  C   UNL     1       4.776   4.887  16.801  0.00  0.00    +0.000 A 
ATOM      2  C   UNL     1       4.840   3.904  17.784  0.00  0.00    +0.000 A 
ATOM      3  C   UNL     1       4.180   4.080  19.004  0.00  0.00    +0.000 A 
ATOM      4  C   UNL     1       3.420   5.205  19.267  0.00  0.00    +0.000 A 
ATOM      5  N   UNL     1       2.773   5.269  20.431  0.00  0.00    +0.000 NA
ATOM      6  C   UNL     1       2.021   6.351  20.637  0.00  0.00    +0.000 A 
ATOM      7  N   UNL     1       1.859   7.364  19.787  0.00  0.00    +0.000 NA
ATOM      8  C   UNL     1       2.513   7.293  18.611  0.00  0.00    +0.000 A 
ATOM      9  N   UNL     1       2.298   8.325  17.651  0.00  0.00    +0.000 N 
ATOM     10  C   UNL     1       3.352   6.210  18.291  0.00  0.00    +0.000 A 
ATOM     11  C   UNL     1       4.082   6.066  17.080  0.00  0.00    +0.000 A 
ATOM     12  H   UNL     1       1.944   7.902  16.800  0.00  0.00    +0.000 HD
ENDROOT
BRANCH   9  13
ATOM     13  C   UNL     1       1.624   9.538  17.947  0.00  0.00    +0.000 A 
ATOM     14  C   UNL     1       2.355  10.697  18.251  0.00  0.00    +0.000 A 
ATOM     15  C   UNL     1       1.711  11.885  18.610  0.00  0.00    +0.000 A 
ATOM     16  C   UNL     1       0.323  11.922  18.661  0.00  0.00    +0.000 A 
ATOM     17  C   UNL     1      -0.414  10.784  18.329  0.00  0.00    +0.000 A 
ATOM     18 BR   UNL     1      -2.303  10.842  18.412  0.00  0.00    +0.000 Br
ATOM     19  C   UNL     1       0.229   9.600  17.965  0.00  0.00    +0.000 A 
ENDBRANCH   9  13
BRANCH   1  22
ATOM     20  C   UNL     1       6.610   5.146  15.157  0.00  0.00    +0.000 C 
ATOM     21  O   UNL     1       7.427   5.711  15.872  0.00  0.00    +0.000 OA
ATOM     22  N   UNL     1       5.340   4.736  15.517  0.00  0.00    +0.000 N 
ATOM     23  H   UNL     1       4.838   4.146  14.868  0.00  0.00    +0.000 HD
BRANCH  20  25
ATOM     24  C   UNL     1       6.265   3.787  13.151  0.00  0.00    +0.000 C 
ATOM     25  C   UNL     1       6.961   4.756  13.763  0.00  0.00    +0.000 C 
ENDBRANCH  20  25
ENDBRANCH   1  22
TORSDOF 3
ENDMDL
MODEL 5
REMARK VINA RESULT:      -7.5      3.196      5.073
REMARK  Name = 
REMARK  3 active torsions:
REMARK  status: ('A' for Active; 'I' for Inactive)
REMARK    1  A    between atoms: C_2  and  C_3
REMARK    2  A    between atoms: N_5  and  C_6
REMARK    3  A    between atoms: N_14  and  C_15
REMARK                            x       y       z     vdW  Elec       q    Type
REMARK                         _______ _______ _______ _____ _____    ______ ____
ROOT
ATOM      1  C   UNL     1       4.690   4.384  16.974  0.00  0.00    +0.000 A 
ATOM      2  C   UNL     1       4.701   3.171  17.658  0.00  0.00    +0.000 A 
ATOM      3  C   UNL     1       4.006   3.032  18.863  0.00  0.00    +0.000 A 
ATOM      4  C   UNL     1       3.261   4.066  19.398  0.00  0.00    +0.000 A 
ATOM      5  N   UNL     1       2.577   3.834  20.520  0.00  0.00    +0.000 NA
ATOM      6  C   UNL     1       1.840   4.842  20.990  0.00  0.00    +0.000 A 
ATOM      7  N   UNL     1       1.727   6.050  20.439  0.00  0.00    +0.000 NA
ATOM      8  C   UNL     1       2.418   6.278  19.305  0.00  0.00    +0.000 A 
ATOM      9  N   UNL     1       2.255   7.536  18.653  0.00  0.00    +0.000 N 
ATOM     10  C   UNL     1       3.244   5.298  18.728  0.00  0.00    +0.000 A 
ATOM     11  C   UNL     1       4.011   5.464  17.542  0.00  0.00    +0.000 A 
ATOM     12  H   UNL     1       1.920   7.367  17.711  0.00  0.00    +0.000 HD
ENDROOT
BRANCH   9  13
ATOM     13  C   UNL     1       1.597   8.643  19.246  0.00  0.00    +0.000 A 
ATOM     14  C   UNL     1       1.433   9.837  18.525  0.00  0.00    +0.000 A 
ATOM     15  C   UNL     1       0.846  10.962  19.113  0.00  0.00    +0.000 A 
ATOM     16  C   UNL     1       0.412  10.897  20.431  0.00  0.00    +0.000 A 
ATOM     17  C   UNL     1       0.542   9.705  21.146  0.00  0.00    +0.000 A 
ATOM     18 BR   UNL     1      -0.042   9.631  22.944  0.00  0.00    +0.000 Br
ATOM     19  C   UNL     1       1.122   8.580  20.558  0.00  0.00    +0.000 A 
ENDBRANCH   9  13
BRANCH   1  22
ATOM     20  C   UNL     1       6.653   4.675  15.493  0.00  0.00    +0.000 C 
ATOM     21  O   UNL     1       7.536   4.650  16.341  0.00  0.00    +0.000 OA
ATOM     22  N   UNL     1       5.293   4.567  15.713  0.00  0.00    +0.000 N 
ATOM     23  H   UNL     1       4.696   4.449  14.905  0.00  0.00    +0.000 HD
BRANCH  20  25
ATOM     24  C   UNL     1       6.341   3.979  13.167  0.00  0.00    +0.000 C 
ATOM     25  C   UNL     1       6.992   4.756  14.045  0.00  0.00    +0.000 C 
ENDBRANCH  20  25
ENDBRANCH   1  22
TORSDOF 3
ENDMDL
MODEL 6
REMARK VINA RESULT:      -7.4      4.150      5.849
REMARK  Name = 
REMARK  3 active torsions:
REMARK  status: ('A' for Active; 'I' for Inactive)
REMARK    1  A    between atoms: C_2  and  C_3
REMARK    2  A    between atoms: N_5  and  C_6
REMARK    3  A    between atoms: N_14  and  C_15
REMARK                            x       y       z     vdW  Elec       q    Type
REMARK                         _______ _______ _______ _____ _____    ______ ____
ROOT
ATOM      1  C   UNL     1       4.635   4.980  16.970  0.00  0.00    +0.000 A 
ATOM      2  C   UNL     1       4.637   3.971  17.928  0.00  0.00    +0.000 A 
ATOM      3  C   UNL     1       3.947   4.137  19.132  0.00  0.00    +0.000 A 
ATOM      4  C   UNL     1       3.216   5.279  19.402  0.00  0.00    +0.000 A 
ATOM      5  N   UNL     1       2.536   5.335  20.548  0.00  0.00    +0.000 NA
ATOM      6  C   UNL     1       1.813   6.435  20.761  0.00  0.00    +0.000 A 
ATOM      7  N   UNL     1       1.710   7.475  19.933  0.00  0.00    +0.000 NA
ATOM      8  C   UNL     1       2.397   7.412  18.775  0.00  0.00    +0.000 A 
ATOM      9  N   UNL     1       2.244   8.475  17.838  0.00  0.00    +0.000 N 
ATOM     10  C   UNL     1       3.209   6.311  18.452  0.00  0.00    +0.000 A 
ATOM     11  C   UNL     1       3.971   6.174  17.259  0.00  0.00    +0.000 A 
ATOM     12  H   UNL     1       1.902   8.086  16.966  0.00  0.00    +0.000 HD
ENDROOT
BRANCH   9  13
ATOM     13  C   UNL     1       1.601   9.701  18.145  0.00  0.00    +0.000 A 
ATOM     14  C   UNL     1       0.204   9.755  18.269  0.00  0.00    +0.000 A 
ATOM     15  C   UNL     1      -0.455  10.966  18.505  0.00  0.00    +0.000 A 
ATOM     16  C   UNL     1       0.284  12.135  18.626  0.00  0.00    +0.000 A 
ATOM     17  C   UNL     1       1.677  12.087  18.537  0.00  0.00    +0.000 A 
ATOM     18 BR   UNL     1       2.674  13.687  18.691  0.00  0.00    +0.000 Br
ATOM     19  C   UNL     1       2.335  10.878  18.306  0.00  0.00    +0.000 A 
ENDBRANCH   9  13
BRANCH   1  22
ATOM     20  C   UNL     1       6.594   4.781  15.467  0.00  0.00    +0.000 C 
ATOM     21  O   UNL     1       7.483   4.851  16.305  0.00  0.00    +0.000 OA
ATOM     22  N   UNL     1       5.233   4.844  15.700  0.00  0.00    +0.000 N 
ATOM     23  H   UNL     1       4.616   4.617  14.931  0.00  0.00    +0.000 HD
BRANCH  20  25
ATOM     24  C   UNL     1       6.098   3.769  13.295  0.00  0.00    +0.000 C 
ATOM     25  C   UNL     1       6.917   4.531  14.035  0.00  0.00    +0.000 C 
ENDBRANCH  20  25
ENDBRANCH   1  22
TORSDOF 3
ENDMDL
MODEL 7
REMARK VINA RESULT:      -7.2      1.550      1.707
REMARK  Name = 
REMARK  3 active torsions:
REMARK  status: ('A' for Active; 'I' for Inactive)
REMARK    1  A    between atoms: C_2  and  C_3
REMARK    2  A    between atoms: N_5  and  C_6
REMARK    3  A    between atoms: N_14  and  C_15
REMARK                            x       y       z     vdW  Elec       q    Type
REMARK                         _______ _______ _______ _____ _____    ______ ____
ROOT
ATOM      1  C   UNL     1       6.117   3.606  13.357  0.00  0.00    +0.000 A 
ATOM      2  C   UNL     1       7.282   4.344  13.168  0.00  0.00    +0.000 A 
ATOM      3  C   UNL     1       7.685   5.286  14.119  0.00  0.00    +0.000 A 
ATOM      4  C   UNL     1       6.973   5.494  15.286  0.00  0.00    +0.000 A 
ATOM      5  N   UNL     1       7.457   6.367  16.170  0.00  0.00    +0.000 NA
ATOM      6  C   UNL     1       6.765   6.519  17.300  0.00  0.00    +0.000 A 
ATOM      7  N   UNL     1       5.642   5.876  17.621  0.00  0.00    +0.000 NA
ATOM      8  C   UNL     1       5.159   4.993  16.725  0.00  0.00    +0.000 A 
ATOM      9  N   UNL     1       4.003   4.236  17.074  0.00  0.00    +0.000 N 
ATOM     10  C   UNL     1       5.792   4.766  15.490  0.00  0.00    +0.000 A 
ATOM     11  C   UNL     1       5.341   3.862  14.490  0.00  0.00    +0.000 A 
ATOM     12  H   UNL     1       4.239   3.251  17.026  0.00  0.00    +0.000 HD
ENDROOT
BRANCH   9  13
ATOM     13  C   UNL     1       3.196   4.520  18.206  0.00  0.00    +0.000 A 
ATOM     14  C   UNL     1       2.632   5.795  18.369  0.00  0.00    +0.000 A 
ATOM     15  C   UNL     1       1.888   6.117  19.509  0.00  0.00    +0.000 A 
ATOM     16  C   UNL     1       1.699   5.157  20.495  0.00  0.00    +0.000 A 
ATOM     17  C   UNL     1       2.228   3.877  20.327  0.00  0.00    +0.000 A 
ATOM     18 BR   UNL     1       1.974   2.580  21.681  0.00  0.00    +0.000 Br
ATOM     19  C   UNL     1       2.965   3.553  19.187  0.00  0.00    +0.000 A 
ENDBRANCH   9  13
BRANCH   1  22
ATOM     20  C   UNL     1       6.502   1.972  11.537  0.00  0.00    +0.000 C 
ATOM     21  O   UNL     1       7.672   2.235  11.290  0.00  0.00    +0.000 OA
ATOM     22  N   UNL     1       5.701   2.578  12.486  0.00  0.00    +0.000 N 
ATOM     23  H   UNL     1       4.805   2.153  12.682  0.00  0.00    +0.000 HD
BRANCH  20  25
ATOM     24  C   UNL     1       6.020  -0.411  11.250  0.00  0.00    +0.000 C 
ATOM     25  C   UNL     1       5.813   0.850  10.841  0.00  0.00    +0.000 C 
ENDBRANCH  20  25
ENDBRANCH   1  22
TORSDOF 3
ENDMDL
MODEL 8
REMARK VINA RESULT:      -7.2      5.853      8.503
REMARK  Name = 
REMARK  3 active torsions:
REMARK  status: ('A' for Active; 'I' for Inactive)
REMARK    1  A    between atoms: C_2  and  C_3
REMARK    2  A    between atoms: N_5  and  C_6
REMARK    3  A    between atoms: N_14  and  C_15
REMARK                            x       y       z     vdW  Elec       q    Type
REMARK                         _______ _______ _______ _____ _____    ______ ____
ROOT
ATOM      1  C   UNL     1      -1.112  10.864  18.507  0.00  0.00    +0.000 A 
ATOM      2  C   UNL     1      -1.355  11.755  19.549  0.00  0.00    +0.000 A 
ATOM      3  C   UNL     1      -0.789  11.542  20.809  0.00  0.00    +0.000 A 
ATOM      4  C   UNL     1       0.051  10.472  21.059  0.00  0.00    +0.000 A 
ATOM      5  N   UNL     1       0.598  10.373  22.272  0.00  0.00    +0.000 NA
ATOM      6  C   UNL     1       1.431   9.350  22.469  0.00  0.00    +0.000 A 
ATOM      7  N   UNL     1       1.763   8.428  21.566  0.00  0.00    +0.000 NA
ATOM      8  C   UNL     1       1.209   8.534  20.343  0.00  0.00    +0.000 A 
ATOM      9  N   UNL     1       1.606   7.606  19.336  0.00  0.00    +0.000 N 
ATOM     10  C   UNL     1       0.300   9.559  20.025  0.00  0.00    +0.000 A 
ATOM     11  C   UNL     1      -0.333   9.734  18.765  0.00  0.00    +0.000 A 
ATOM     12  H   UNL     1       1.989   8.127  18.554  0.00  0.00    +0.000 HD
ENDROOT
BRANCH   9  13
ATOM     13  C   UNL     1       2.366   6.440  19.604  0.00  0.00    +0.000 A 
ATOM     14  C   UNL     1       3.668   6.311  19.095  0.00  0.00    +0.000 A 
ATOM     15  C   UNL     1       4.409   5.142  19.292  0.00  0.00    +0.000 A 
ATOM     16  C   UNL     1       3.852   4.091  20.009  0.00  0.00    +0.000 A 
ATOM     17  C   UNL     1       2.570   4.221  20.547  0.00  0.00    +0.000 A 
ATOM     18 BR   UNL     1       1.816   2.779  21.512  0.00  0.00    +0.000 Br
ATOM     19  C   UNL     1       1.832   5.390  20.355  0.00  0.00    +0.000 A 
ENDBRANCH   9  13
BRANCH   1  22
ATOM     20  C   UNL     1      -2.713  10.494  16.655  0.00  0.00    +0.000 C 
ATOM     21  O   UNL     1      -3.477   9.721  17.217  0.00  0.00    +0.000 OA
ATOM     22  N   UNL     1      -1.575  11.067  17.191  0.00  0.00    +0.000 N 
ATOM     23  H   UNL     1      -1.129  11.804  16.662  0.00  0.00    +0.000 HD
BRANCH  20  25
ATOM     24  C   UNL     1      -3.023  10.106  14.258  0.00  0.00    +0.000 C 
ATOM     25  C   UNL     1      -3.000  10.979  15.276  0.00  0.00    +0.000 C 
ENDBRANCH  20  25
ENDBRANCH   1  22
TORSDOF 3
ENDMDL
MODEL 9
REMARK VINA RESULT:      -7.2      3.706      7.845
REMARK  Name = 
REMARK  3 active torsions:
REMARK  status: ('A' for Active; 'I' for Inactive)
REMARK    1  A    between atoms: C_2  and  C_3
REMARK    2  A    between atoms: N_5  and  C_6
REMARK    3  A    between atoms: N_14  and  C_15
REMARK                            x       y       z     vdW  Elec       q    Type
REMARK                         _______ _______ _______ _____ _____    ______ ____
ROOT
ATOM      1  C   UNL     1       1.752   5.656  20.385  0.00  0.00    +0.000 A 
ATOM      2  C   UNL     1       1.127   4.527  20.906  0.00  0.00    +0.000 A 
ATOM      3  C   UNL     1       1.398   3.261  20.379  0.00  0.00    +0.000 A 
ATOM      4  C   UNL     1       2.311   3.078  19.357  0.00  0.00    +0.000 A 
ATOM      5  N   UNL     1       2.558   1.832  18.951  0.00  0.00    +0.000 NA
ATOM      6  C   UNL     1       3.470   1.687  17.988  0.00  0.00    +0.000 A 
ATOM      7  N   UNL     1       4.151   2.672  17.403  0.00  0.00    +0.000 NA
ATOM      8  C   UNL     1       3.899   3.928  17.819  0.00  0.00    +0.000 A 
ATOM      9  N   UNL     1       4.668   4.993  17.265  0.00  0.00    +0.000 N 
ATOM     10  C   UNL     1       2.944   4.204  18.813  0.00  0.00    +0.000 A 
ATOM     11  C   UNL     1       2.613   5.499  19.297  0.00  0.00    +0.000 A 
ATOM     12  H   UNL     1       5.142   5.473  18.022  0.00  0.00    +0.000 HD
ENDROOT
BRANCH   9  13
ATOM     13  C   UNL     1       5.516   4.840  16.138  0.00  0.00    +0.000 A 
ATOM     14  C   UNL     1       6.835   5.318  16.175  0.00  0.00    +0.000 A 
ATOM     15  C   UNL     1       7.666   5.237  15.053  0.00  0.00    +0.000 A 
ATOM     16  C   UNL     1       7.181   4.669  13.882  0.00  0.00    +0.000 A 
ATOM     17  C   UNL     1       5.881   4.161  13.844  0.00  0.00    +0.000 A 
ATOM     18 BR   UNL     1       5.226   3.400  12.241  0.00  0.00    +0.000 Br
ATOM     19  C   UNL     1       5.053   4.237  14.966  0.00  0.00    +0.000 A 
ENDBRANCH   9  13
BRANCH   1  22
ATOM     20  C   UNL     1       1.604   8.121  20.194  0.00  0.00    +0.000 C 
ATOM     21  O   UNL     1       1.767   8.228  18.986  0.00  0.00    +0.000 OA
ATOM     22  N   UNL     1       1.594   6.949  20.926  0.00  0.00    +0.000 N 
ATOM     23  H   UNL     1       1.294   7.002  21.891  0.00  0.00    +0.000 HD
BRANCH  20  25
ATOM     24  C   UNL     1       1.154   9.179  22.355  0.00  0.00    +0.000 C 
ATOM     25  C   UNL     1       1.308   9.318  21.030  0.00  0.00    +0.000 C 
ENDBRANCH  20  25
ENDBRANCH   1  22
TORSDOF 3
ENDMDL
