MODEL 1
REMARK VINA RESULT:      -8.1      0.000      0.000
REMARK  Name = 
REMARK  7 active torsions:
REMARK  status: ('A' for Active; 'I' for Inactive)
REMARK    1  A    between atoms: C_1  and  C_2
REMARK    2  A    between atoms: N_4  and  C_5
REMARK    3  A    between atoms: C_5  and  C_6
REMARK    4  A    between atoms: C_6  and  C_7
REMARK    5  A    between atoms: C_16  and  C_17
REMARK    6  A    between atoms: C_16  and  C_18
REMARK    7  A    between atoms: C_22  and  O_23
REMARK                            x       y       z     vdW  Elec       q    Type
REMARK                         _______ _______ _______ _____ _____    ______ ____
ROOT
ATOM      1  C   UNL     1       1.356   3.966  17.625  0.00  0.00    +0.000 C 
ATOM      2  C   UNL     1       2.715   3.911  18.339  0.00  0.00    +0.000 C 
ATOM      3  C   UNL     1       3.865   4.056  17.323  0.00  0.00    +0.000 C 
ATOM      4  N   UNL     1       5.222   4.067  17.902  0.00  0.00    +0.000 NA
ATOM      5  C   UNL     1       5.374   4.849  19.134  0.00  0.00    +0.000 C 
ATOM      6  C   UNL     1       4.240   4.724  20.140  0.00  0.00    +0.000 C 
ATOM      7  C   UNL     1       2.819   4.895  19.553  0.00  0.00    +0.000 C 
ATOM      8  C   UNL     1       1.873   4.368  20.677  0.00  0.00    +0.000 C 
ENDROOT
BRANCH   7   9
ATOM      9  C   UNL     1       2.508   6.379  19.197  0.00  0.00    +0.000 A 
ATOM     10  C   UNL     1       2.867   6.952  17.960  0.00  0.00    +0.000 A 
ATOM     11  C   UNL     1       2.569   8.277  17.620  0.00  0.00    +0.000 A 
ATOM     12  C   UNL     1       1.893   9.088  18.516  0.00  0.00    +0.000 A 
ATOM     13  C   UNL     1       1.529   8.557  19.744  0.00  0.00    +0.000 A 
ATOM     14  C   UNL     1       1.830   7.235  20.084  0.00  0.00    +0.000 A 
BRANCH  13  15
ATOM     15  O   UNL     1       0.858   9.314  20.662  0.00  0.00    +0.000 OA
ATOM     16  H   UNL     1       1.473   9.539  21.379  0.00  0.00    +0.000 HD
ENDBRANCH  13  15
ENDBRANCH   7   9
BRANCH   4  17
ATOM     17  C   UNL     1       6.201   4.506  16.874  0.00  0.00    +0.000 C 
BRANCH  17  18
ATOM     18  C   UNL     1       5.568   5.207  15.658  0.00  0.00    +0.000 C 
BRANCH  18  19
ATOM     19  C   UNL     1       6.172   4.772  14.345  0.00  0.00    +0.000 A 
ATOM     20  C   UNL     1       7.340   5.375  13.867  0.00  0.00    +0.000 A 
ATOM     21  C   UNL     1       7.872   4.999  12.632  0.00  0.00    +0.000 A 
ATOM     22  C   UNL     1       7.244   4.013  11.869  0.00  0.00    +0.000 A 
ATOM     23  C   UNL     1       6.089   3.400  12.347  0.00  0.00    +0.000 A 
ATOM     24 CL   UNL     1       5.307   2.191  11.405  0.00  0.00    +0.000 Cl
ATOM     25  C   UNL     1       5.555   3.770  13.581  0.00  0.00    +0.000 A 
ENDBRANCH  18  19
ENDBRANCH  17  18
ENDBRANCH   4  17
TORSDOF 5
ENDMDL
MODEL 2
REMARK VINA RESULT:      -8.0      5.369      6.569
REMARK  Name = 
REMARK  7 active torsions:
REMARK  status: ('A' for Active; 'I' for Inactive)
REMARK    1  A    between atoms: C_1  and  C_2
REMARK    2  A    between atoms: N_4  and  C_5
REMARK    3  A    between atoms: C_5  and  C_6
REMARK    4  A    between atoms: C_6  and  C_7
REMARK    5  A    between atoms: C_16  and  C_17
REMARK    6  A    between atoms: C_16  and  C_18
REMARK    7  A    between atoms: C_22  and  O_23
REMARK                            x       y       z     vdW  Elec       q    Type
REMARK                         _______ _______ _______ _____ _____    ______ ____
ROOT
ATOM      1  C   UNL     1       5.085   6.779  15.412  0.00  0.00    +0.000 C 
ATOM      2  C   UNL     1       6.087   6.159  16.397  0.00  0.00    +0.000 C 
ATOM      3  C   UNL     1       6.944   7.257  17.058  0.00  0.00    +0.000 C 
ATOM      4  N   UNL     1       7.913   6.782  18.064  0.00  0.00    +0.000 NA
ATOM      5  C   UNL     1       7.417   5.744  18.974  0.00  0.00    +0.000 C 
ATOM      6  C   UNL     1       6.559   4.662  18.337  0.00  0.00    +0.000 C 
ATOM      7  C   UNL     1       5.424   5.176  17.421  0.00  0.00    +0.000 C 
ATOM      8  C   UNL     1       4.961   3.910  16.635  0.00  0.00    +0.000 C 
ENDROOT
BRANCH   7   9
ATOM      9  C   UNL     1       4.253   5.801  18.235  0.00  0.00    +0.000 A 
ATOM     10  C   UNL     1       3.568   6.958  17.811  0.00  0.00    +0.000 A 
ATOM     11  C   UNL     1       2.497   7.512  18.522  0.00  0.00    +0.000 A 
ATOM     12  C   UNL     1       2.067   6.923  19.700  0.00  0.00    +0.000 A 
ATOM     13  C   UNL     1       2.721   5.787  20.148  0.00  0.00    +0.000 A 
ATOM     14  C   UNL     1       3.794   5.235  19.439  0.00  0.00    +0.000 A 
BRANCH  13  15
ATOM     15  O   UNL     1       2.335   5.165  21.301  0.00  0.00    +0.000 OA
ATOM     16  H   UNL     1       1.402   4.912  21.213  0.00  0.00    +0.000 HD
ENDBRANCH  13  15
ENDBRANCH   7   9
BRANCH   4  17
ATOM     17  C   UNL     1       8.452   7.939  18.825  0.00  0.00    +0.000 C 
BRANCH  17  18
ATOM     18  C   UNL     1       8.336   9.287  18.090  0.00  0.00    +0.000 C 
BRANCH  18  19
ATOM     19  C   UNL     1       9.266  10.341  18.640  0.00  0.00    +0.000 A 
ATOM     20  C   UNL     1       9.340  10.572  20.018  0.00  0.00    +0.000 A 
ATOM     21  C   UNL     1      10.170  11.576  20.520  0.00  0.00    +0.000 A 
ATOM     22  C   UNL     1      10.936  12.353  19.649  0.00  0.00    +0.000 A 
ATOM     23  C   UNL     1      10.876  12.118  18.278  0.00  0.00    +0.000 A 
ATOM     24 CL   UNL     1      11.812  13.080  17.202  0.00  0.00    +0.000 Cl
ATOM     25  C   UNL     1      10.051  11.114  17.772  0.00  0.00    +0.000 A 
ENDBRANCH  18  19
ENDBRANCH  17  18
ENDBRANCH   4  17
TORSDOF 5
ENDMDL
MODEL 3
REMARK VINA RESULT:      -7.9      0.940      1.362
REMARK  Name = 
REMARK  7 active torsions:
REMARK  status: ('A' for Active; 'I' for Inactive)
REMARK    1  A    between atoms: C_1  and  C_2
REMARK    2  A    between atoms: N_4  and  C_5
REMARK    3  A    between atoms: C_5  and  C_6
REMARK    4  A    between atoms: C_6  and  C_7
REMARK    5  A    between atoms: C_16  and  C_17
REMARK    6  A    between atoms: C_16  and  C_18
REMARK    7  A    between atoms: C_22  and  O_23
REMARK                            x       y       z     vdW  Elec       q    Type
REMARK                         _______ _______ _______ _____ _____    ______ ____
ROOT
ATOM      1  C   UNL     1       1.151   3.837  17.481  0.00  0.00    +0.000 C 
ATOM      2  C   UNL     1       2.495   3.622  18.192  0.00  0.00    +0.000 C 
ATOM      3  C   UNL     1       3.666   3.969  17.250  0.00  0.00    +0.000 C 
ATOM      4  N   UNL     1       5.012   3.846  17.843  0.00  0.00    +0.000 NA
ATOM      5  C   UNL     1       5.143   4.351  19.214  0.00  0.00    +0.000 C 
ATOM      6  C   UNL     1       3.989   4.027  20.151  0.00  0.00    +0.000 C 
ATOM      7  C   UNL     1       2.580   4.329  19.587  0.00  0.00    +0.000 C 
ATOM      8  C   UNL     1       1.610   3.585  20.558  0.00  0.00    +0.000 C 
ENDROOT
BRANCH   7   9
ATOM      9  C   UNL     1       2.282   5.857  19.544  0.00  0.00    +0.000 A 
ATOM     10  C   UNL     1       1.747   6.556  20.646  0.00  0.00    +0.000 A 
ATOM     11  C   UNL     1       1.501   7.934  20.626  0.00  0.00    +0.000 A 
ATOM     12  C   UNL     1       1.783   8.673  19.490  0.00  0.00    +0.000 A 
ATOM     13  C   UNL     1       2.307   8.017  18.387  0.00  0.00    +0.000 A 
ATOM     14  C   UNL     1       2.549   6.640  18.406  0.00  0.00    +0.000 A 
BRANCH  13  15
ATOM     15  O   UNL     1       2.606   8.700  17.243  0.00  0.00    +0.000 OA
ATOM     16  H   UNL     1       3.361   8.264  16.816  0.00  0.00    +0.000 HD
ENDBRANCH  13  15
ENDBRANCH   7   9
BRANCH   4  17
ATOM     17  C   UNL     1       6.012   4.483  16.947  0.00  0.00    +0.000 C 
BRANCH  17  18
ATOM     18  C   UNL     1       5.404   5.178  15.715  0.00  0.00    +0.000 C 
BRANCH  18  19
ATOM     19  C   UNL     1       6.056   4.758  14.420  0.00  0.00    +0.000 A 
ATOM     20  C   UNL     1       7.251   5.354  14.002  0.00  0.00    +0.000 A 
ATOM     21  C   UNL     1       7.829   4.993  12.783  0.00  0.00    +0.000 A 
ATOM     22  C   UNL     1       7.219   4.031  11.976  0.00  0.00    +0.000 A 
ATOM     23  C   UNL     1       6.037   3.426  12.394  0.00  0.00    +0.000 A 
ATOM     24 CL   UNL     1       5.279   2.245  11.398  0.00  0.00    +0.000 Cl
ATOM     25  C   UNL     1       5.457   3.780  13.612  0.00  0.00    +0.000 A 
ENDBRANCH  18  19
ENDBRANCH  17  18
ENDBRANCH   4  17
TORSDOF 5
ENDMDL
MODEL 4
REMARK VINA RESULT:      -7.7      5.323      6.568
REMARK  Name = 
REMARK  7 active torsions:
REMARK  status: ('A' for Active; 'I' for Inactive)
REMARK    1  A    between atoms: C_1  and  C_2
REMARK    2  A    between atoms: N_4  and  C_5
REMARK    3  A    between atoms: C_5  and  C_6
REMARK    4  A    between atoms: C_6  and  C_7
REMARK    5  A    between atoms: C_16  and  C_17
REMARK    6  A    between atoms: C_16  and  C_18
REMARK    7  A    between atoms: C_22  and  O_23
REMARK                            x       y       z     vdW  Elec       q    Type
REMARK                         _______ _______ _______ _____ _____    ______ ____
ROOT
ATOM      1  C   UNL     1       5.070   6.748  15.421  0.00  0.00    +0.000 C 
ATOM      2  C   UNL     1       6.083   6.145  16.405  0.00  0.00    +0.000 C 
ATOM      3  C   UNL     1       6.917   7.257  17.071  0.00  0.00    +0.000 C 
ATOM      4  N   UNL     1       7.895   6.797  18.076  0.00  0.00    +0.000 NA
ATOM      5  C   UNL     1       7.419   5.746  18.982  0.00  0.00    +0.000 C 
ATOM      6  C   UNL     1       6.584   4.649  18.339  0.00  0.00    +0.000 C 
ATOM      7  C   UNL     1       5.439   5.144  17.423  0.00  0.00    +0.000 C 
ATOM      8  C   UNL     1       5.003   3.872  16.631  0.00  0.00    +0.000 C 
ENDROOT
BRANCH   7   9
ATOM      9  C   UNL     1       4.255   5.742  18.239  0.00  0.00    +0.000 A 
ATOM     10  C   UNL     1       3.809   5.177  19.451  0.00  0.00    +0.000 A 
ATOM     11  C   UNL     1       2.763   5.722  20.205  0.00  0.00    +0.000 A 
ATOM     12  C   UNL     1       2.115   6.865  19.769  0.00  0.00    +0.000 A 
ATOM     13  C   UNL     1       2.526   7.444  18.578  0.00  0.00    +0.000 A 
ATOM     14  C   UNL     1       3.569   6.897  17.823  0.00  0.00    +0.000 A 
BRANCH  13  15
ATOM     15  O   UNL     1       1.923   8.574  18.105  0.00  0.00    +0.000 OA
ATOM     16  H   UNL     1       2.601   9.260  17.996  0.00  0.00    +0.000 HD
ENDBRANCH  13  15
ENDBRANCH   7   9
BRANCH   4  17
ATOM     17  C   UNL     1       8.408   7.962  18.843  0.00  0.00    +0.000 C 
BRANCH  17  18
ATOM     18  C   UNL     1       8.337   9.299  18.084  0.00  0.00    +0.000 C 
BRANCH  18  19
ATOM     19  C   UNL     1       9.285  10.339  18.629  0.00  0.00    +0.000 A 
ATOM     20  C   UNL     1       9.379  10.559  20.008  0.00  0.00    +0.000 A 
ATOM     21  C   UNL     1      10.227  11.551  20.506  0.00  0.00    +0.000 A 
ATOM     22  C   UNL     1      10.990  12.326  19.631  0.00  0.00    +0.000 A 
ATOM     23  C   UNL     1      10.909  12.101  18.259  0.00  0.00    +0.000 A 
ATOM     24 CL   UNL     1      11.842  13.061  17.177  0.00  0.00    +0.000 Cl
ATOM     25  C   UNL     1      10.067  11.111  17.756  0.00  0.00    +0.000 A 
ENDBRANCH  18  19
ENDBRANCH  17  18
ENDBRANCH   4  17
TORSDOF 5
ENDMDL
MODEL 5
REMARK VINA RESULT:      -7.7      4.437      7.852
REMARK  Name = 
REMARK  7 active torsions:
REMARK  status: ('A' for Active; 'I' for Inactive)
REMARK    1  A    between atoms: C_1  and  C_2
REMARK    2  A    between atoms: N_4  and  C_5
REMARK    3  A    between atoms: C_5  and  C_6
REMARK    4  A    between atoms: C_6  and  C_7
REMARK    5  A    between atoms: C_16  and  C_17
REMARK    6  A    between atoms: C_16  and  C_18
REMARK    7  A    between atoms: C_22  and  O_23
REMARK                            x       y       z     vdW  Elec       q    Type
REMARK                         _______ _______ _______ _____ _____    ______ ____
ROOT
ATOM      1  C   UNL     1       4.263   2.340  20.537  0.00  0.00    +0.000 C 
ATOM      2  C   UNL     1       3.195   3.130  19.765  0.00  0.00    +0.000 C 
ATOM      3  C   UNL     1       2.762   4.376  20.564  0.00  0.00    +0.000 C 
ATOM      4  N   UNL     1       1.771   5.241  19.895  0.00  0.00    +0.000 NA
ATOM      5  C   UNL     1       1.995   5.464  18.463  0.00  0.00    +0.000 C 
ATOM      6  C   UNL     1       2.435   4.246  17.665  0.00  0.00    +0.000 C 
ATOM      7  C   UNL     1       3.602   3.441  18.285  0.00  0.00    +0.000 C 
ATOM      8  C   UNL     1       3.601   2.094  17.497  0.00  0.00    +0.000 C 
ENDROOT
BRANCH   7   9
ATOM      9  C   UNL     1       4.964   4.183  18.142  0.00  0.00    +0.000 A 
ATOM     10  C   UNL     1       5.542   4.915  19.199  0.00  0.00    +0.000 A 
ATOM     11  C   UNL     1       6.778   5.563  19.090  0.00  0.00    +0.000 A 
ATOM     12  C   UNL     1       7.490   5.503  17.904  0.00  0.00    +0.000 A 
ATOM     13  C   UNL     1       6.949   4.794  16.842  0.00  0.00    +0.000 A 
ATOM     14  C   UNL     1       5.712   4.150  16.951  0.00  0.00    +0.000 A 
BRANCH  13  15
ATOM     15  O   UNL     1       7.612   4.701  15.653  0.00  0.00    +0.000 OA
ATOM     16  H   UNL     1       6.965   4.501  14.957  0.00  0.00    +0.000 HD
ENDBRANCH  13  15
ENDBRANCH   7   9
BRANCH   4  17
ATOM     17  C   UNL     1       1.667   6.534  20.621  0.00  0.00    +0.000 C 
BRANCH  17  18
ATOM     18  C   UNL     1       1.979   7.770  19.757  0.00  0.00    +0.000 C 
BRANCH  18  19
ATOM     19  C   UNL     1       1.131   8.967  20.111  0.00  0.00    +0.000 A 
ATOM     20  C   UNL     1       0.967  10.014  19.199  0.00  0.00    +0.000 A 
ATOM     21  C   UNL     1       0.216  11.139  19.545  0.00  0.00    +0.000 A 
ATOM     22  C   UNL     1      -0.381  11.223  20.805  0.00  0.00    +0.000 A 
ATOM     23  C   UNL     1      -0.231  10.177  21.712  0.00  0.00    +0.000 A 
ATOM     24 CL   UNL     1      -0.958  10.281  23.268  0.00  0.00    +0.000 Cl
ATOM     25  C   UNL     1       0.515   9.050  21.369  0.00  0.00    +0.000 A 
ENDBRANCH  18  19
ENDBRANCH  17  18
ENDBRANCH   4  17
TORSDOF 5
ENDMDL
MODEL 6
REMARK VINA RESULT:      -7.6      4.451      8.297
REMARK  Name = 
REMARK  7 active torsions:
REMARK  status: ('A' for Active; 'I' for Inactive)
REMARK    1  A    between atoms: C_1  and  C_2
REMARK    2  A    between atoms: N_4  and  C_5
REMARK    3  A    between atoms: C_5  and  C_6
REMARK    4  A    between atoms: C_6  and  C_7
REMARK    5  A    between atoms: C_16  and  C_17
REMARK    6  A    between atoms: C_16  and  C_18
REMARK    7  A    between atoms: C_22  and  O_23
REMARK                            x       y       z     vdW  Elec       q    Type
REMARK                         _______ _______ _______ _____ _____    ______ ____
ROOT
ATOM      1  C   UNL     1       3.772   2.496  20.379  0.00  0.00    +0.000 C 
ATOM      2  C   UNL     1       2.893   3.547  19.684  0.00  0.00    +0.000 C 
ATOM      3  C   UNL     1       2.647   4.749  20.619  0.00  0.00    +0.000 C 
ATOM      4  N   UNL     1       1.853   5.848  20.039  0.00  0.00    +0.000 NA
ATOM      5  C   UNL     1       2.176   6.193  18.650  0.00  0.00    +0.000 C 
ATOM      6  C   UNL     1       2.433   5.017  17.720  0.00  0.00    +0.000 C 
ATOM      7  C   UNL     1       3.414   3.951  18.264  0.00  0.00    +0.000 C 
ATOM      8  C   UNL     1       3.214   2.727  17.316  0.00  0.00    +0.000 C 
ENDROOT
BRANCH   7   9
ATOM      9  C   UNL     1       4.889   4.451  18.246  0.00  0.00    +0.000 A 
ATOM     10  C   UNL     1       5.496   5.060  19.362  0.00  0.00    +0.000 A 
ATOM     11  C   UNL     1       6.829   5.488  19.365  0.00  0.00    +0.000 A 
ATOM     12  C   UNL     1       7.614   5.322  18.236  0.00  0.00    +0.000 A 
ATOM     13  C   UNL     1       7.047   4.730  17.118  0.00  0.00    +0.000 A 
ATOM     14  C   UNL     1       5.714   4.305  17.115  0.00  0.00    +0.000 A 
BRANCH  13  15
ATOM     15  O   UNL     1       7.778   4.539  15.981  0.00  0.00    +0.000 OA
ATOM     16  H   UNL     1       7.748   5.357  15.458  0.00  0.00    +0.000 HD
ENDBRANCH  13  15
ENDBRANCH   7   9
BRANCH   4  17
ATOM     17  C   UNL     1       1.942   7.045  20.915  0.00  0.00    +0.000 C 
BRANCH  17  18
ATOM     18  C   UNL     1       1.610   8.372  20.207  0.00  0.00    +0.000 C 
BRANCH  18  19
ATOM     19  C   UNL     1       0.738   9.281  21.038  0.00  0.00    +0.000 A 
ATOM     20  C   UNL     1       0.544   9.029  22.400  0.00  0.00    +0.000 A 
ATOM     21  C   UNL     1      -0.297   9.848  23.156  0.00  0.00    +0.000 A 
ATOM     22  C   UNL     1      -0.946  10.929  22.557  0.00  0.00    +0.000 A 
ATOM     23  C   UNL     1      -0.746  11.192  21.204  0.00  0.00    +0.000 A 
ATOM     24 CL   UNL     1      -1.552  12.518  20.461  0.00  0.00    +0.000 Cl
ATOM     25  C   UNL     1       0.095  10.379  20.446  0.00  0.00    +0.000 A 
ENDBRANCH  18  19
ENDBRANCH  17  18
ENDBRANCH   4  17
TORSDOF 5
ENDMDL
MODEL 7
REMARK VINA RESULT:      -7.6      5.550      6.702
REMARK  Name = 
REMARK  7 active torsions:
REMARK  status: ('A' for Active; 'I' for Inactive)
REMARK    1  A    between atoms: C_1  and  C_2
REMARK    2  A    between atoms: N_4  and  C_5
REMARK    3  A    between atoms: C_5  and  C_6
REMARK    4  A    between atoms: C_6  and  C_7
REMARK    5  A    between atoms: C_16  and  C_17
REMARK    6  A    between atoms: C_16  and  C_18
REMARK    7  A    between atoms: C_22  and  O_23
REMARK                            x       y       z     vdW  Elec       q    Type
REMARK                         _______ _______ _______ _____ _____    ______ ____
ROOT
ATOM      1  C   UNL     1       5.109   6.725  15.415  0.00  0.00    +0.000 C 
ATOM      2  C   UNL     1       6.122   6.147  16.415  0.00  0.00    +0.000 C 
ATOM      3  C   UNL     1       6.957   7.277  17.052  0.00  0.00    +0.000 C 
ATOM      4  N   UNL     1       7.934   6.843  18.069  0.00  0.00    +0.000 NA
ATOM      5  C   UNL     1       7.458   5.815  19.002  0.00  0.00    +0.000 C 
ATOM      6  C   UNL     1       6.623   4.702  18.387  0.00  0.00    +0.000 C 
ATOM      7  C   UNL     1       5.479   5.174  17.459  0.00  0.00    +0.000 C 
ATOM      8  C   UNL     1       5.042   3.881  16.700  0.00  0.00    +0.000 C 
ENDROOT
BRANCH   7   9
ATOM      9  C   UNL     1       4.294   5.792  18.259  0.00  0.00    +0.000 A 
ATOM     10  C   UNL     1       3.590   6.929  17.812  0.00  0.00    +0.000 A 
ATOM     11  C   UNL     1       2.507   7.476  18.510  0.00  0.00    +0.000 A 
ATOM     12  C   UNL     1       2.084   6.901  19.697  0.00  0.00    +0.000 A 
ATOM     13  C   UNL     1       2.757   5.784  20.167  0.00  0.00    +0.000 A 
ATOM     14  C   UNL     1       3.841   5.240  19.471  0.00  0.00    +0.000 A 
BRANCH  13  15
ATOM     15  O   UNL     1       2.378   5.177  21.330  0.00  0.00    +0.000 OA
ATOM     16  H   UNL     1       1.411   5.091  21.328  0.00  0.00    +0.000 HD
ENDBRANCH  13  15
ENDBRANCH   7   9
BRANCH   4  17
ATOM     17  C   UNL     1       8.448   8.027  18.806  0.00  0.00    +0.000 C 
BRANCH  17  18
ATOM     18  C   UNL     1       8.358   9.347  18.019  0.00  0.00    +0.000 C 
BRANCH  18  19
ATOM     19  C   UNL     1       9.234  10.435  18.590  0.00  0.00    +0.000 A 
ATOM     20  C   UNL     1      10.262  10.993  17.822  0.00  0.00    +0.000 A 
ATOM     21  C   UNL     1      11.098  11.970  18.368  0.00  0.00    +0.000 A 
ATOM     22  C   UNL     1      10.910  12.399  19.683  0.00  0.00    +0.000 A 
ATOM     23  C   UNL     1       9.879  11.856  20.446  0.00  0.00    +0.000 A 
ATOM     24 CL   UNL     1       9.650  12.377  22.070  0.00  0.00    +0.000 Cl
ATOM     25  C   UNL     1       9.040  10.883  19.905  0.00  0.00    +0.000 A 
ENDBRANCH  18  19
ENDBRANCH  17  18
ENDBRANCH   4  17
TORSDOF 5
ENDMDL
MODEL 8
REMARK VINA RESULT:      -7.5      4.256      8.248
REMARK  Name = 
REMARK  7 active torsions:
REMARK  status: ('A' for Active; 'I' for Inactive)
REMARK    1  A    between atoms: C_1  and  C_2
REMARK    2  A    between atoms: N_4  and  C_5
REMARK    3  A    between atoms: C_5  and  C_6
REMARK    4  A    between atoms: C_6  and  C_7
REMARK    5  A    between atoms: C_16  and  C_17
REMARK    6  A    between atoms: C_16  and  C_18
REMARK    7  A    between atoms: C_22  and  O_23
REMARK                            x       y       z     vdW  Elec       q    Type
REMARK                         _______ _______ _______ _____ _____    ______ ____
ROOT
ATOM      1  C   UNL     1       3.391   2.599  20.486  0.00  0.00    +0.000 C 
ATOM      2  C   UNL     1       2.568   3.658  19.737  0.00  0.00    +0.000 C 
ATOM      3  C   UNL     1       2.526   4.975  20.537  0.00  0.00    +0.000 C 
ATOM      4  N   UNL     1       1.801   6.085  19.889  0.00  0.00    +0.000 NA
ATOM      5  C   UNL     1       2.038   6.235  18.449  0.00  0.00    +0.000 C 
ATOM      6  C   UNL     1       2.094   4.942  17.650  0.00  0.00    +0.000 C 
ATOM      7  C   UNL     1       3.004   3.841  18.244  0.00  0.00    +0.000 C 
ATOM      8  C   UNL     1       2.601   2.549  17.467  0.00  0.00    +0.000 C 
ENDROOT
BRANCH   7   9
ATOM      9  C   UNL     1       4.515   4.169  18.059  0.00  0.00    +0.000 A 
ATOM     10  C   UNL     1       5.179   4.012  16.825  0.00  0.00    +0.000 A 
ATOM     11  C   UNL     1       6.530   4.329  16.642  0.00  0.00    +0.000 A 
ATOM     12  C   UNL     1       7.278   4.820  17.700  0.00  0.00    +0.000 A 
ATOM     13  C   UNL     1       6.657   4.982  18.929  0.00  0.00    +0.000 A 
ATOM     14  C   UNL     1       5.308   4.662  19.112  0.00  0.00    +0.000 A 
BRANCH  13  15
ATOM     15  O   UNL     1       7.348   5.465  20.003  0.00  0.00    +0.000 OA
ATOM     16  H   UNL     1       7.099   6.395  20.132  0.00  0.00    +0.000 HD
ENDBRANCH  13  15
ENDBRANCH   7   9
BRANCH   4  17
ATOM     17  C   UNL     1       2.085   7.355  20.607  0.00  0.00    +0.000 C 
BRANCH  17  18
ATOM     18  C   UNL     1       1.401   8.591  19.996  0.00  0.00    +0.000 C 
BRANCH  18  19
ATOM     19  C   UNL     1       0.603   9.381  21.004  0.00  0.00    +0.000 A 
ATOM     20  C   UNL     1       0.581   8.998  22.349  0.00  0.00    +0.000 A 
ATOM     21  C   UNL     1      -0.192   9.706  23.272  0.00  0.00    +0.000 A 
ATOM     22  C   UNL     1      -0.945  10.806  22.856  0.00  0.00    +0.000 A 
ATOM     23  C   UNL     1      -0.916  11.200  21.521  0.00  0.00    +0.000 A 
ATOM     24 CL   UNL     1      -1.850  12.549  21.005  0.00  0.00    +0.000 Cl
ATOM     25  C   UNL     1      -0.143  10.498  20.597  0.00  0.00    +0.000 A 
ENDBRANCH  18  19
ENDBRANCH  17  18
ENDBRANCH   4  17
TORSDOF 5
ENDMDL
MODEL 9
REMARK VINA RESULT:      -7.5      4.044      7.659
REMARK  Name = 
REMARK  7 active torsions:
REMARK  status: ('A' for Active; 'I' for Inactive)
REMARK    1  A    between atoms: C_1  and  C_2
REMARK    2  A    between atoms: N_4  and  C_5
REMARK    3  A    between atoms: C_5  and  C_6
REMARK    4  A    between atoms: C_6  and  C_7
REMARK    5  A    between atoms: C_16  and  C_17
REMARK    6  A    between atoms: C_16  and  C_18
REMARK    7  A    between atoms: C_22  and  O_23
REMARK                            x       y       z     vdW  Elec       q    Type
REMARK                         _______ _______ _______ _____ _____    ______ ____
ROOT
ATOM      1  C   UNL     1       4.090   2.571  20.380  0.00  0.00    +0.000 C 
ATOM      2  C   UNL     1       3.050   3.421  19.636  0.00  0.00    +0.000 C 
ATOM      3  C   UNL     1       2.976   4.837  20.243  0.00  0.00    +0.000 C 
ATOM      4  N   UNL     1       2.041   5.762  19.574  0.00  0.00    +0.000 NA
ATOM      5  C   UNL     1       2.045   5.710  18.108  0.00  0.00    +0.000 C 
ATOM      6  C   UNL     1       2.130   4.320  17.497  0.00  0.00    +0.000 C 
ATOM      7  C   UNL     1       3.238   3.411  18.081  0.00  0.00    +0.000 C 
ATOM      8  C   UNL     1       2.876   1.984  17.566  0.00  0.00    +0.000 C 
ENDROOT
BRANCH   7   9
ATOM      9  C   UNL     1       4.658   3.844  17.610  0.00  0.00    +0.000 A 
ATOM     10  C   UNL     1       5.059   3.785  16.259  0.00  0.00    +0.000 A 
ATOM     11  C   UNL     1       6.323   4.197  15.822  0.00  0.00    +0.000 A 
ATOM     12  C   UNL     1       7.246   4.687  16.731  0.00  0.00    +0.000 A 
ATOM     13  C   UNL     1       6.887   4.754  18.068  0.00  0.00    +0.000 A 
ATOM     14  C   UNL     1       5.624   4.340  18.504  0.00  0.00    +0.000 A 
BRANCH  13  15
ATOM     15  O   UNL     1       7.758   5.232  19.003  0.00  0.00    +0.000 OA
ATOM     16  H   UNL     1       7.406   5.023  19.884  0.00  0.00    +0.000 HD
ENDBRANCH  13  15
ENDBRANCH   7   9
BRANCH   4  17
ATOM     17  C   UNL     1       2.280   7.148  20.054  0.00  0.00    +0.000 C 
BRANCH  17  18
ATOM     18  C   UNL     1       2.073   8.232  18.981  0.00  0.00    +0.000 C 
BRANCH  18  19
ATOM     19  C   UNL     1       1.002   9.229  19.349  0.00  0.00    +0.000 A 
ATOM     20  C   UNL     1       0.312   9.929  18.354  0.00  0.00    +0.000 A 
ATOM     21  C   UNL     1      -0.650  10.881  18.699  0.00  0.00    +0.000 A 
ATOM     22  C   UNL     1      -0.931  11.137  20.042  0.00  0.00    +0.000 A 
ATOM     23  C   UNL     1      -0.256  10.434  21.037  0.00  0.00    +0.000 A 
ATOM     24 CL   UNL     1      -0.595  10.753  22.693  0.00  0.00    +0.000 Cl
ATOM     25  C   UNL     1       0.702   9.480  20.697  0.00  0.00    +0.000 A 
ENDBRANCH  18  19
ENDBRANCH  17  18
ENDBRANCH   4  17
TORSDOF 5
ENDMDL
