MODEL 1
REMARK VINA RESULT:      -5.8      0.000      0.000
REMARK  Name = 
REMARK  7 active torsions:
REMARK  status: ('A' for Active; 'I' for Inactive)
REMARK    1  A    between atoms: C_1  and  O_2
REMARK    2  A    between atoms: O_2  and  C_3
REMARK    3  A    between atoms: C_3  and  C_4
REMARK    4  A    between atoms: C_4  and  N_5
REMARK    5  A    between atoms: C_19  and  S_20
REMARK    6  A    between atoms: S_20  and  C_21
REMARK    7  A    between atoms: N_25  and  C_26
REMARK                            x       y       z     vdW  Elec       q    Type
REMARK                         _______ _______ _______ _____ _____    ______ ____
ROOT
ATOM      1  N   UNL     1       6.771   4.938  15.510  0.00  0.00    +0.000 N 
ATOM      2  C   UNL     1       6.301   3.618  15.949  0.00  0.00    +0.000 C 
ATOM      3  C   UNL     1       4.782   3.399  16.201  0.00  0.00    +0.000 C 
ATOM      4  C   UNL     1       4.084   4.167  17.393  0.00  0.00    +0.000 C 
ATOM      5  C   UNL     1       4.147   5.704  17.128  0.00  0.00    +0.000 C 
ATOM      6  C   UNL     1       4.848   6.251  15.923  0.00  0.00    +0.000 C 
ATOM      7  C   UNL     1       6.322   6.124  16.034  0.00  0.00    +0.000 C 
ATOM      8  O   UNL     1       7.039   7.045  16.409  0.00  0.00    +0.000 OA
ATOM      9  C   UNL     1       2.510   3.853  17.383  0.00  0.00    +0.000 C 
ATOM     10  N   UNL     1       1.881   4.020  18.731  0.00  0.00    +0.000 N 
ATOM     11  C   UNL     1       1.794   5.310  19.296  0.00  0.00    +0.000 A 
ATOM     12  C   UNL     1       1.666   5.515  20.659  0.00  0.00    +0.000 A 
ATOM     13  C   UNL     1       1.719   6.811  21.137  0.00  0.00    +0.000 A 
ATOM     14  N   UNL     1       1.895   7.888  20.364  0.00  0.00    +0.000 NA
ATOM     15  C   UNL     1       1.946   7.632  19.055  0.00  0.00    +0.000 A 
ATOM     16  N   UNL     1       1.826   6.400  18.508  0.00  0.00    +0.000 NA
ATOM     17  C   UNL     1       2.374   2.932  19.573  0.00  0.00    +0.000 C 
ATOM     18  C   UNL     1       3.905   3.037  19.721  0.00  0.00    +0.000 C 
ATOM     19  N   UNL     1       4.742   3.632  18.643  0.00  0.00    +0.000 NA
ATOM     20  C   UNL     1       5.772   4.473  19.246  0.00  0.00    +0.000 C 
ENDROOT
BRANCH  15  21
ATOM     21  S   UNL     1       2.299   8.974  17.934  0.00  0.00    +0.000 S 
ATOM     22  C   UNL     1       1.273  10.300  18.630  0.00  0.00    +0.000 C 
ENDBRANCH  15  21
BRANCH   1  23
ATOM     23  C   UNL     1       7.812   5.084  14.489  0.00  0.00    +0.000 C 
BRANCH  23  24
ATOM     24  C   UNL     1       7.228   5.020  13.069  0.00  0.00    +0.000 C 
BRANCH  24  26
ATOM     25  C   UNL     1       5.733   3.368  12.266  0.00  0.00    +0.000 C 
ATOM     26  O   UNL     1       7.069   3.659  12.653  0.00  0.00    +0.000 OA
ENDBRANCH  24  26
ENDBRANCH  23  24
ENDBRANCH   1  23
TORSDOF 4
ENDMDL
MODEL 2
REMARK VINA RESULT:      -5.5     10.215     12.696
REMARK  Name = 
REMARK  7 active torsions:
REMARK  status: ('A' for Active; 'I' for Inactive)
REMARK    1  A    between atoms: C_1  and  O_2
REMARK    2  A    between atoms: O_2  and  C_3
REMARK    3  A    between atoms: C_3  and  C_4
REMARK    4  A    between atoms: C_4  and  N_5
REMARK    5  A    between atoms: C_19  and  S_20
REMARK    6  A    between atoms: S_20  and  C_21
REMARK    7  A    between atoms: N_25  and  C_26
REMARK                            x       y       z     vdW  Elec       q    Type
REMARK                         _______ _______ _______ _____ _____    ______ ____
ROOT
ATOM      1  N   UNL     1       8.247  12.203  22.057  0.00  0.00    +0.000 N 
ATOM      2  C   UNL     1       9.114  11.384  21.200  0.00  0.00    +0.000 C 
ATOM      3  C   UNL     1      10.507  11.936  20.782  0.00  0.00    +0.000 C 
ATOM      4  C   UNL     1      10.578  13.199  19.834  0.00  0.00    +0.000 C 
ATOM      5  C   UNL     1       9.950  14.429  20.562  0.00  0.00    +0.000 C 
ATOM      6  C   UNL     1       9.345  14.294  21.925  0.00  0.00    +0.000 C 
ATOM      7  C   UNL     1       8.061  13.553  21.890  0.00  0.00    +0.000 C 
ATOM      8  O   UNL     1       6.972  14.117  21.870  0.00  0.00    +0.000 OA
ATOM      9  C   UNL     1      12.110  13.630  19.630  0.00  0.00    +0.000 C 
ATOM     10  N   UNL     1      12.332  14.383  18.356  0.00  0.00    +0.000 N 
ATOM     11  C   UNL     1      11.772  15.670  18.209  0.00  0.00    +0.000 A 
ATOM     12  C   UNL     1      11.528  16.234  16.969  0.00  0.00    +0.000 A 
ATOM     13  C   UNL     1      10.859  17.443  16.916  0.00  0.00    +0.000 A 
ATOM     14  N   UNL     1      10.421  18.103  17.994  0.00  0.00    +0.000 NA
ATOM     15  C   UNL     1      10.742  17.541  19.161  0.00  0.00    +0.000 A 
ATOM     16  N   UNL     1      11.459  16.402  19.293  0.00  0.00    +0.000 NA
ATOM     17  C   UNL     1      12.165  13.431  17.259  0.00  0.00    +0.000 C 
ATOM     18  C   UNL     1      10.727  12.872  17.265  0.00  0.00    +0.000 C 
ATOM     19  N   UNL     1       9.957  12.749  18.533  0.00  0.00    +0.000 NA
ATOM     20  C   UNL     1       8.576  13.158  18.295  0.00  0.00    +0.000 C 
ENDROOT
BRANCH  15  21
ATOM     21  S   UNL     1      10.108  18.266  20.663  0.00  0.00    +0.000 S 
ATOM     22  C   UNL     1      11.321  17.683  21.881  0.00  0.00    +0.000 C 
ENDBRANCH  15  21
BRANCH   1  23
ATOM     23  C   UNL     1       7.466  11.616  23.148  0.00  0.00    +0.000 C 
BRANCH  23  24
ATOM     24  C   UNL     1       8.124  11.860  24.515  0.00  0.00    +0.000 C 
BRANCH  24  26
ATOM     25  C   UNL     1       7.948  13.424  26.285  0.00  0.00    +0.000 C 
ATOM     26  O   UNL     1       7.242  12.595  25.372  0.00  0.00    +0.000 OA
ENDBRANCH  24  26
ENDBRANCH  23  24
ENDBRANCH   1  23
TORSDOF 4
ENDMDL
MODEL 3
REMARK VINA RESULT:      -5.5      9.572     11.671
REMARK  Name = 
REMARK  7 active torsions:
REMARK  status: ('A' for Active; 'I' for Inactive)
REMARK    1  A    between atoms: C_1  and  O_2
REMARK    2  A    between atoms: O_2  and  C_3
REMARK    3  A    between atoms: C_3  and  C_4
REMARK    4  A    between atoms: C_4  and  N_5
REMARK    5  A    between atoms: C_19  and  S_20
REMARK    6  A    between atoms: S_20  and  C_21
REMARK    7  A    between atoms: N_25  and  C_26
REMARK                            x       y       z     vdW  Elec       q    Type
REMARK                         _______ _______ _______ _____ _____    ______ ____
ROOT
ATOM      1  N   UNL     1      -3.732  10.982  16.778  0.00  0.00    +0.000 N 
ATOM      2  C   UNL     1      -5.105  11.502  16.710  0.00  0.00    +0.000 C 
ATOM      3  C   UNL     1      -5.490  12.739  17.570  0.00  0.00    +0.000 C 
ATOM      4  C   UNL     1      -5.501  12.605  19.145  0.00  0.00    +0.000 C 
ATOM      5  C   UNL     1      -4.055  12.301  19.649  0.00  0.00    +0.000 C 
ATOM      6  C   UNL     1      -2.923  12.121  18.686  0.00  0.00    +0.000 C 
ATOM      7  C   UNL     1      -3.025  10.840  17.945  0.00  0.00    +0.000 C 
ATOM      8  O   UNL     1      -2.410   9.832  18.278  0.00  0.00    +0.000 OA
ATOM      9  C   UNL     1      -5.831  14.031  19.802  0.00  0.00    +0.000 C 
ATOM     10  N   UNL     1      -6.429  13.912  21.169  0.00  0.00    +0.000 N 
ATOM     11  C   UNL     1      -5.638  13.416  22.227  0.00  0.00    +0.000 A 
ATOM     12  C   UNL     1      -6.192  12.851  23.363  0.00  0.00    +0.000 A 
ATOM     13  C   UNL     1      -5.344  12.274  24.290  0.00  0.00    +0.000 A 
ATOM     14  N   UNL     1      -4.014  12.218  24.156  0.00  0.00    +0.000 NA
ATOM     15  C   UNL     1      -3.537  12.835  23.073  0.00  0.00    +0.000 A 
ATOM     16  N   UNL     1      -4.297  13.486  22.162  0.00  0.00    +0.000 NA
ATOM     17  C   UNL     1      -7.776  13.366  21.002  0.00  0.00    +0.000 C 
ATOM     18  C   UNL     1      -7.698  11.963  20.366  0.00  0.00    +0.000 C 
ATOM     19  N   UNL     1      -6.586  11.598  19.446  0.00  0.00    +0.000 NA
ATOM     20  C   UNL     1      -6.147  10.238  19.742  0.00  0.00    +0.000 C 
ENDROOT
BRANCH  15  21
ATOM     21  S   UNL     1      -1.791  12.723  22.724  0.00  0.00    +0.000 S 
ATOM     22  C   UNL     1      -1.441  11.007  23.205  0.00  0.00    +0.000 C 
ENDBRANCH  15  21
BRANCH   1  23
ATOM     23  C   UNL     1      -3.023  10.525  15.580  0.00  0.00    +0.000 C 
BRANCH  23  24
ATOM     24  C   UNL     1      -3.996  10.042  14.493  0.00  0.00    +0.000 C 
BRANCH  24  26
ATOM     25  C   UNL     1      -4.243   9.796  12.150  0.00  0.00    +0.000 C 
ATOM     26  O   UNL     1      -3.330   9.957  13.227  0.00  0.00    +0.000 OA
ENDBRANCH  24  26
ENDBRANCH  23  24
ENDBRANCH   1  23
TORSDOF 4
ENDMDL
MODEL 4
REMARK VINA RESULT:      -5.4      6.926     10.898
REMARK  Name = 
REMARK  7 active torsions:
REMARK  status: ('A' for Active; 'I' for Inactive)
REMARK    1  A    between atoms: C_1  and  O_2
REMARK    2  A    between atoms: O_2  and  C_3
REMARK    3  A    between atoms: C_3  and  C_4
REMARK    4  A    between atoms: C_4  and  N_5
REMARK    5  A    between atoms: C_19  and  S_20
REMARK    6  A    between atoms: S_20  and  C_21
REMARK    7  A    between atoms: N_25  and  C_26
REMARK                            x       y       z     vdW  Elec       q    Type
REMARK                         _______ _______ _______ _____ _____    ______ ____
ROOT
ATOM      1  N   UNL     1       0.308  12.061  19.635  0.00  0.00    +0.000 N 
ATOM      2  C   UNL     1       0.588  12.439  21.027  0.00  0.00    +0.000 C 
ATOM      3  C   UNL     1      -0.438  12.066  22.136  0.00  0.00    +0.000 C 
ATOM      4  C   UNL     1      -1.864  12.748  22.122  0.00  0.00    +0.000 C 
ATOM      5  C   UNL     1      -2.625  12.329  20.825  0.00  0.00    +0.000 C 
ATOM      6  C   UNL     1      -1.975  11.461  19.793  0.00  0.00    +0.000 C 
ATOM      7  C   UNL     1      -0.923  12.189  19.041  0.00  0.00    +0.000 C 
ATOM      8  O   UNL     1      -1.126  12.700  17.945  0.00  0.00    +0.000 OA
ATOM      9  C   UNL     1      -2.764  12.130  23.297  0.00  0.00    +0.000 C 
ATOM     10  N   UNL     1      -3.849  13.060  23.742  0.00  0.00    +0.000 N 
ATOM     11  C   UNL     1      -4.906  13.360  22.858  0.00  0.00    +0.000 A 
ATOM     12  C   UNL     1      -5.671  14.507  22.979  0.00  0.00    +0.000 A 
ATOM     13  C   UNL     1      -6.600  14.786  21.994  0.00  0.00    +0.000 A 
ATOM     14  N   UNL     1      -6.804  14.018  20.919  0.00  0.00    +0.000 NA
ATOM     15  C   UNL     1      -6.083  12.895  20.891  0.00  0.00    +0.000 A 
ATOM     16  N   UNL     1      -5.211  12.518  21.854  0.00  0.00    +0.000 NA
ATOM     17  C   UNL     1      -3.202  14.169  24.443  0.00  0.00    +0.000 C 
ATOM     18  C   UNL     1      -2.263  14.922  23.479  0.00  0.00    +0.000 C 
ATOM     19  N   UNL     1      -1.598  14.217  22.349  0.00  0.00    +0.000 NA
ATOM     20  C   UNL     1      -1.630  15.074  21.167  0.00  0.00    +0.000 C 
ENDROOT
BRANCH  15  21
ATOM     21  S   UNL     1      -6.179  11.852  19.447  0.00  0.00    +0.000 S 
ATOM     22  C   UNL     1      -7.210  10.489  20.060  0.00  0.00    +0.000 C 
ENDBRANCH  15  21
BRANCH   1  23
ATOM     23  C   UNL     1       1.358  11.553  18.750  0.00  0.00    +0.000 C 
BRANCH  23  24
ATOM     24  C   UNL     1       1.200  10.048  18.486  0.00  0.00    +0.000 C 
BRANCH  24  26
ATOM     25  C   UNL     1       2.629   8.307  17.751  0.00  0.00    +0.000 C 
ATOM     26  O   UNL     1       2.134   9.613  17.489  0.00  0.00    +0.000 OA
ENDBRANCH  24  26
ENDBRANCH  23  24
ENDBRANCH   1  23
TORSDOF 4
ENDMDL
MODEL 5
REMARK VINA RESULT:      -5.4      9.162     12.277
REMARK  Name = 
REMARK  7 active torsions:
REMARK  status: ('A' for Active; 'I' for Inactive)
REMARK    1  A    between atoms: C_1  and  O_2
REMARK    2  A    between atoms: O_2  and  C_3
REMARK    3  A    between atoms: C_3  and  C_4
REMARK    4  A    between atoms: C_4  and  N_5
REMARK    5  A    between atoms: C_19  and  S_20
REMARK    6  A    between atoms: S_20  and  C_21
REMARK    7  A    between atoms: N_25  and  C_26
REMARK                            x       y       z     vdW  Elec       q    Type
REMARK                         _______ _______ _______ _____ _____    ______ ____
ROOT
ATOM      1  N   UNL     1      -2.564  13.890  23.923  0.00  0.00    +0.000 N 
ATOM      2  C   UNL     1      -1.169  14.064  23.496  0.00  0.00    +0.000 C 
ATOM      3  C   UNL     1      -0.863  14.332  21.994  0.00  0.00    +0.000 C 
ATOM      4  C   UNL     1      -1.161  13.196  20.937  0.00  0.00    +0.000 C 
ATOM      5  C   UNL     1      -2.695  12.906  20.906  0.00  0.00    +0.000 C 
ATOM      6  C   UNL     1      -3.634  13.615  21.832  0.00  0.00    +0.000 C 
ATOM      7  C   UNL     1      -3.488  13.148  23.232  0.00  0.00    +0.000 C 
ATOM      8  O   UNL     1      -4.227  12.304  23.728  0.00  0.00    +0.000 OA
ATOM      9  C   UNL     1      -0.858  13.746  19.460  0.00  0.00    +0.000 C 
ATOM     10  N   UNL     1      -0.539  12.651  18.491  0.00  0.00    +0.000 N 
ATOM     11  C   UNL     1      -1.551  11.736  18.128  0.00  0.00    +0.000 A 
ATOM     12  C   UNL     1      -1.266  10.475  17.633  0.00  0.00    +0.000 A 
ATOM     13  C   UNL     1      -2.314   9.598  17.425  0.00  0.00    +0.000 A 
ATOM     14  N   UNL     1      -3.595   9.888  17.681  0.00  0.00    +0.000 NA
ATOM     15  C   UNL     1      -3.811  11.139  18.094  0.00  0.00    +0.000 A 
ATOM     16  N   UNL     1      -2.847  12.075  18.248  0.00  0.00    +0.000 NA
ATOM     17  C   UNL     1       0.770  12.116  18.862  0.00  0.00    +0.000 C 
ATOM     18  C   UNL     1       0.711  11.523  20.284  0.00  0.00    +0.000 C 
ATOM     19  N   UNL     1      -0.230  12.065  21.303  0.00  0.00    +0.000 NA
ATOM     20  C   UNL     1      -0.816  10.956  22.050  0.00  0.00    +0.000 C 
ENDROOT
BRANCH  15  21
ATOM     21  S   UNL     1      -5.463  11.604  18.582  0.00  0.00    +0.000 S 
ATOM     22  C   UNL     1      -6.004  12.565  17.139  0.00  0.00    +0.000 C 
ENDBRANCH  15  21
BRANCH   1  23
ATOM     23  C   UNL     1      -3.065  14.473  25.170  0.00  0.00    +0.000 C 
BRANCH  23  24
ATOM     24  C   UNL     1      -2.334  15.778  25.521  0.00  0.00    +0.000 C 
BRANCH  24  26
ATOM     25  C   UNL     1      -0.456  16.647  26.674  0.00  0.00    +0.000 C 
ATOM     26  O   UNL     1      -1.333  15.540  26.518  0.00  0.00    +0.000 OA
ENDBRANCH  24  26
ENDBRANCH  23  24
ENDBRANCH   1  23
TORSDOF 4
ENDMDL
MODEL 6
REMARK VINA RESULT:      -5.2      2.902      6.879
REMARK  Name = 
REMARK  7 active torsions:
REMARK  status: ('A' for Active; 'I' for Inactive)
REMARK    1  A    between atoms: C_1  and  O_2
REMARK    2  A    between atoms: O_2  and  C_3
REMARK    3  A    between atoms: C_3  and  C_4
REMARK    4  A    between atoms: C_4  and  N_5
REMARK    5  A    between atoms: C_19  and  S_20
REMARK    6  A    between atoms: S_20  and  C_21
REMARK    7  A    between atoms: N_25  and  C_26
REMARK                            x       y       z     vdW  Elec       q    Type
REMARK                         _______ _______ _______ _____ _____    ______ ____
ROOT
ATOM      1  N   UNL     1       1.175   7.168  20.607  0.00  0.00    +0.000 N 
ATOM      2  C   UNL     1       0.958   5.725  20.775  0.00  0.00    +0.000 C 
ATOM      3  C   UNL     1       2.179   4.763  20.721  0.00  0.00    +0.000 C 
ATOM      4  C   UNL     1       2.966   4.598  19.360  0.00  0.00    +0.000 C 
ATOM      5  C   UNL     1       3.615   5.963  18.968  0.00  0.00    +0.000 C 
ATOM      6  C   UNL     1       3.399   7.189  19.800  0.00  0.00    +0.000 C 
ATOM      7  C   UNL     1       2.017   7.711  19.668  0.00  0.00    +0.000 C 
ATOM      8  O   UNL     1       1.727   8.629  18.908  0.00  0.00    +0.000 OA
ATOM      9  C   UNL     1       4.231   3.637  19.587  0.00  0.00    +0.000 C 
ATOM     10  N   UNL     1       4.674   2.961  18.327  0.00  0.00    +0.000 N 
ATOM     11  C   UNL     1       5.233   3.737  17.289  0.00  0.00    +0.000 A 
ATOM     12  C   UNL     1       5.243   3.312  15.971  0.00  0.00    +0.000 A 
ATOM     13  C   UNL     1       5.693   4.189  15.001  0.00  0.00    +0.000 A 
ATOM     14  N   UNL     1       6.113   5.433  15.254  0.00  0.00    +0.000 NA
ATOM     15  C   UNL     1       6.140   5.760  16.548  0.00  0.00    +0.000 A 
ATOM     16  N   UNL     1       5.788   4.931  17.557  0.00  0.00    +0.000 NA
ATOM     17  C   UNL     1       3.644   1.984  17.979  0.00  0.00    +0.000 C 
ATOM     18  C   UNL     1       2.306   2.705  17.715  0.00  0.00    +0.000 C 
ATOM     19  N   UNL     1       1.973   3.981  18.405  0.00  0.00    +0.000 NA
ATOM     20  C   UNL     1       1.337   4.887  17.453  0.00  0.00    +0.000 C 
ENDROOT
BRANCH  15  21
ATOM     21  S   UNL     1       6.566   7.433  16.998  0.00  0.00    +0.000 S 
ATOM     22  C   UNL     1       7.890   7.151  18.209  0.00  0.00    +0.000 C 
ENDBRANCH  15  21
BRANCH   1  23
ATOM     23  C   UNL     1       0.457   8.154  21.417  0.00  0.00    +0.000 C 
BRANCH  23  24
ATOM     24  C   UNL     1       1.421   9.046  22.215  0.00  0.00    +0.000 C 
BRANCH  24  26
ATOM     25  C   UNL     1      -0.577  10.003  23.053  0.00  0.00    +0.000 C 
ATOM     26  O   UNL     1       0.756   9.613  23.351  0.00  0.00    +0.000 OA
ENDBRANCH  24  26
ENDBRANCH  23  24
ENDBRANCH   1  23
TORSDOF 4
ENDMDL
MODEL 7
REMARK VINA RESULT:      -5.1      9.023     11.587
REMARK  Name = 
REMARK  7 active torsions:
REMARK  status: ('A' for Active; 'I' for Inactive)
REMARK    1  A    between atoms: C_1  and  O_2
REMARK    2  A    between atoms: O_2  and  C_3
REMARK    3  A    between atoms: C_3  and  C_4
REMARK    4  A    between atoms: C_4  and  N_5
REMARK    5  A    between atoms: C_19  and  S_20
REMARK    6  A    between atoms: S_20  and  C_21
REMARK    7  A    between atoms: N_25  and  C_26
REMARK                            x       y       z     vdW  Elec       q    Type
REMARK                         _______ _______ _______ _____ _____    ______ ____
ROOT
ATOM      1  N   UNL     1       0.472  12.880  19.988  0.00  0.00    +0.000 N 
ATOM      2  C   UNL     1       0.439  13.322  21.389  0.00  0.00    +0.000 C 
ATOM      3  C   UNL     1      -0.661  12.763  22.336  0.00  0.00    +0.000 C 
ATOM      4  C   UNL     1      -2.171  13.142  22.065  0.00  0.00    +0.000 C 
ATOM      5  C   UNL     1      -2.611  12.563  20.683  0.00  0.00    +0.000 C 
ATOM      6  C   UNL     1      -1.642  11.833  19.807  0.00  0.00    +0.000 C 
ATOM      7  C   UNL     1      -0.645  12.749  19.201  0.00  0.00    +0.000 C 
ATOM      8  O   UNL     1      -0.762  13.196  18.065  0.00  0.00    +0.000 OA
ATOM      9  C   UNL     1      -3.112  12.368  23.109  0.00  0.00    +0.000 C 
ATOM     10  N   UNL     1      -4.418  13.066  23.334  0.00  0.00    +0.000 N 
ATOM     11  C   UNL     1      -5.353  13.136  22.280  0.00  0.00    +0.000 A 
ATOM     12  C   UNL     1      -6.339  14.106  22.228  0.00  0.00    +0.000 A 
ATOM     13  C   UNL     1      -7.130  14.180  21.096  0.00  0.00    +0.000 A 
ATOM     14  N   UNL     1      -6.998  13.375  20.037  0.00  0.00    +0.000 NA
ATOM     15  C   UNL     1      -6.075  12.420  20.174  0.00  0.00    +0.000 A 
ATOM     16  N   UNL     1      -5.316  12.238  21.279  0.00  0.00    +0.000 NA
ATOM     17  C   UNL     1      -4.127  14.290  24.079  0.00  0.00    +0.000 C 
ATOM     18  C   UNL     1      -3.210  15.206  23.244  0.00  0.00    +0.000 C 
ATOM     19  N   UNL     1      -2.242  14.637  22.266  0.00  0.00    +0.000 NA
ATOM     20  C   UNL     1      -2.247  15.456  21.057  0.00  0.00    +0.000 C 
ENDROOT
BRANCH  15  21
ATOM     21  S   UNL     1      -5.725  11.363  18.780  0.00  0.00    +0.000 S 
ATOM     22  C   UNL     1      -6.845   9.970  19.099  0.00  0.00    +0.000 C 
ENDBRANCH  15  21
BRANCH   1  23
ATOM     23  C   UNL     1       1.733  12.584  19.304  0.00  0.00    +0.000 C 
BRANCH  23  24
ATOM     24  C   UNL     1       2.686  13.790  19.322  0.00  0.00    +0.000 C 
BRANCH  24  26
ATOM     25  C   UNL     1       1.870  15.913  18.662  0.00  0.00    +0.000 C 
ATOM     26  O   UNL     1       2.402  14.669  18.227  0.00  0.00    +0.000 OA
ENDBRANCH  24  26
ENDBRANCH  23  24
ENDBRANCH   1  23
TORSDOF 4
ENDMDL
MODEL 8
REMARK VINA RESULT:      -5.1     10.335     12.890
REMARK  Name = 
REMARK  7 active torsions:
REMARK  status: ('A' for Active; 'I' for Inactive)
REMARK    1  A    between atoms: C_1  and  O_2
REMARK    2  A    between atoms: O_2  and  C_3
REMARK    3  A    between atoms: C_3  and  C_4
REMARK    4  A    between atoms: C_4  and  N_5
REMARK    5  A    between atoms: C_19  and  S_20
REMARK    6  A    between atoms: S_20  and  C_21
REMARK    7  A    between atoms: N_25  and  C_26
REMARK                            x       y       z     vdW  Elec       q    Type
REMARK                         _______ _______ _______ _____ _____    ______ ____
ROOT
ATOM      1  N   UNL     1       7.935  13.574  23.108  0.00  0.00    +0.000 N 
ATOM      2  C   UNL     1       8.156  12.443  22.197  0.00  0.00    +0.000 C 
ATOM      3  C   UNL     1       9.537  12.292  21.497  0.00  0.00    +0.000 C 
ATOM      4  C   UNL     1       9.982  13.376  20.436  0.00  0.00    +0.000 C 
ATOM      5  C   UNL     1      10.129  14.761  21.142  0.00  0.00    +0.000 C 
ATOM      6  C   UNL     1       9.806  14.927  22.594  0.00  0.00    +0.000 C 
ATOM      7  C   UNL     1       8.346  14.857  22.848  0.00  0.00    +0.000 C 
ATOM      8  O   UNL     1       7.646  15.858  22.961  0.00  0.00    +0.000 OA
ATOM      9  C   UNL     1      11.471  13.055  19.935  0.00  0.00    +0.000 C 
ATOM     10  N   UNL     1      11.756  13.615  18.576  0.00  0.00    +0.000 N 
ATOM     11  C   UNL     1      11.817  15.014  18.406  0.00  0.00    +0.000 A 
ATOM     12  C   UNL     1      11.617  15.620  17.178  0.00  0.00    +0.000 A 
ATOM     13  C   UNL     1      11.566  17.001  17.127  0.00  0.00    +0.000 A 
ATOM     14  N   UNL     1      11.690  17.795  18.196  0.00  0.00    +0.000 NA
ATOM     15  C   UNL     1      11.945  17.155  19.339  0.00  0.00    +0.000 A 
ATOM     16  N   UNL     1      12.084  15.814  19.454  0.00  0.00    +0.000 NA
ATOM     17  C   UNL     1      10.968  12.839  17.619  0.00  0.00    +0.000 C 
ATOM     18  C   UNL     1       9.465  13.002  17.922  0.00  0.00    +0.000 C 
ATOM     19  N   UNL     1       8.985  13.254  19.309  0.00  0.00    +0.000 NA
ATOM     20  C   UNL     1       7.918  14.250  19.272  0.00  0.00    +0.000 C 
ENDROOT
BRANCH  15  21
ATOM     21  S   UNL     1      12.009  18.098  20.852  0.00  0.00    +0.000 S 
ATOM     22  C   UNL     1      10.258  18.520  21.084  0.00  0.00    +0.000 C 
ENDBRANCH  15  21
BRANCH   1  23
ATOM     23  C   UNL     1       7.202  13.416  24.366  0.00  0.00    +0.000 C 
BRANCH  23  24
ATOM     24  C   UNL     1       7.986  12.568  25.379  0.00  0.00    +0.000 C 
BRANCH  24  26
ATOM     25  C   UNL     1       6.018  11.260  25.225  0.00  0.00    +0.000 C 
ATOM     26  O   UNL     1       7.114  11.645  26.043  0.00  0.00    +0.000 OA
ENDBRANCH  24  26
ENDBRANCH  23  24
ENDBRANCH   1  23
TORSDOF 4
ENDMDL
MODEL 9
REMARK VINA RESULT:      -5.0      7.755     11.781
REMARK  Name = 
REMARK  7 active torsions:
REMARK  status: ('A' for Active; 'I' for Inactive)
REMARK    1  A    between atoms: C_1  and  O_2
REMARK    2  A    between atoms: O_2  and  C_3
REMARK    3  A    between atoms: C_3  and  C_4
REMARK    4  A    between atoms: C_4  and  N_5
REMARK    5  A    between atoms: C_19  and  S_20
REMARK    6  A    between atoms: S_20  and  C_21
REMARK    7  A    between atoms: N_25  and  C_26
REMARK                            x       y       z     vdW  Elec       q    Type
REMARK                         _______ _______ _______ _____ _____    ______ ____
ROOT
ATOM      1  N   UNL     1      -0.242  12.109  20.158  0.00  0.00    +0.000 N 
ATOM      2  C   UNL     1      -0.461  12.534  21.547  0.00  0.00    +0.000 C 
ATOM      3  C   UNL     1      -1.869  12.349  22.183  0.00  0.00    +0.000 C 
ATOM      4  C   UNL     1      -3.082  13.190  21.618  0.00  0.00    +0.000 C 
ATOM      5  C   UNL     1      -3.345  12.787  20.133  0.00  0.00    +0.000 C 
ATOM      6  C   UNL     1      -2.472  11.789  19.437  0.00  0.00    +0.000 C 
ATOM      7  C   UNL     1      -1.129  12.343  19.137  0.00  0.00    +0.000 C 
ATOM      8  O   UNL     1      -0.834  12.808  18.041  0.00  0.00    +0.000 OA
ATOM      9  C   UNL     1      -4.431  12.752  22.366  0.00  0.00    +0.000 C 
ATOM     10  N   UNL     1      -5.473  13.828  22.353  0.00  0.00    +0.000 N 
ATOM     11  C   UNL     1      -6.069  14.195  21.128  0.00  0.00    +0.000 A 
ATOM     12  C   UNL     1      -6.666  15.429  20.936  0.00  0.00    +0.000 A 
ATOM     13  C   UNL     1      -7.110  15.755  19.668  0.00  0.00    +0.000 A 
ATOM     14  N   UNL     1      -6.990  14.953  18.604  0.00  0.00    +0.000 NA
ATOM     15  C   UNL     1      -6.465  13.755  18.866  0.00  0.00    +0.000 A 
ATOM     16  N   UNL     1      -6.079  13.336  20.093  0.00  0.00    +0.000 NA
ATOM     17  C   UNL     1      -5.001  14.893  23.236  0.00  0.00    +0.000 C 
ATOM     18  C   UNL     1      -3.677  15.473  22.696  0.00  0.00    +0.000 C 
ATOM     19  N   UNL     1      -2.733  14.630  21.913  0.00  0.00    +0.000 NA
ATOM     20  C   UNL     1      -2.203  15.412  20.800  0.00  0.00    +0.000 C 
ENDROOT
BRANCH  15  21
ATOM     21  S   UNL     1      -6.144  12.646  17.506  0.00  0.00    +0.000 S 
ATOM     22  C   UNL     1      -6.487  11.035  18.270  0.00  0.00    +0.000 C 
ENDBRANCH  15  21
BRANCH   1  23
ATOM     23  C   UNL     1       0.989  11.430  19.746  0.00  0.00    +0.000 C 
BRANCH  23  24
ATOM     24  C   UNL     1       0.819   9.903  19.732  0.00  0.00    +0.000 C 
BRANCH  24  26
ATOM     25  C   UNL     1      -0.181   8.755  21.546  0.00  0.00    +0.000 C 
ATOM     26  O   UNL     1       1.001   9.366  21.048  0.00  0.00    +0.000 OA
ENDBRANCH  24  26
ENDBRANCH  23  24
ENDBRANCH   1  23
TORSDOF 4
ENDMDL
