MODEL 1
REMARK VINA RESULT:      -8.2      0.000      0.000
REMARK  Name = 
REMARK  3 active torsions:
REMARK  status: ('A' for Active; 'I' for Inactive)
REMARK    1  A    between atoms: N_6  and  C_7
REMARK    2  A    between atoms: N_17  and  C_18
REMARK    3  A    between atoms: C_18  and  C_19
REMARK                            x       y       z     vdW  Elec       q    Type
REMARK                         _______ _______ _______ _____ _____    ______ ____
ROOT
ATOM      1  O   UNL     1       0.427   9.150  21.047  0.00  0.00    +0.000 OA
ATOM      2  C   UNL     1       1.009   8.978  19.981  0.00  0.00    +0.000 A 
ATOM      3  C   UNL     1       1.820   7.819  19.726  0.00  0.00    +0.000 A 
ATOM      4  C   UNL     1       2.106   6.661  20.442  0.00  0.00    +0.000 A 
ATOM      5  N   UNL     1       2.902   5.832  19.760  0.00  0.00    +0.000 NA
ATOM      6  N   UNL     1       3.147   6.472  18.571  0.00  0.00    +0.000 N 
ATOM      7  C   UNL     1       2.500   7.706  18.537  0.00  0.00    +0.000 A 
ATOM      8  N   UNL     1       2.486   8.613  17.525  0.00  0.00    +0.000 NA
ATOM      9  C   UNL     1       1.726   9.639  17.752  0.00  0.00    +0.000 A 
ATOM     10  N   UNL     1       0.982   9.865  18.901  0.00  0.00    +0.000 N 
ENDROOT
BRANCH   6  11
ATOM     11  C   UNL     1       3.948   5.841  17.571  0.00  0.00    +0.000 A 
ATOM     12  C   UNL     1       3.864   4.447  17.397  0.00  0.00    +0.000 A 
ATOM     13  C   UNL     1       4.600   3.816  16.392  0.00  0.00    +0.000 A 
ATOM     14  C   UNL     1       5.427   4.569  15.568  0.00  0.00    +0.000 A 
ATOM     15  F   UNL     1       6.124   3.967  14.596  0.00  0.00    +0.000 F 
ATOM     16  C   UNL     1       5.539   5.942  15.738  0.00  0.00    +0.000 A 
ATOM     17  C   UNL     1       4.801   6.580  16.739  0.00  0.00    +0.000 A 
ENDBRANCH   6  11
BRANCH  10  18
ATOM     18  C   UNL     1       0.203  11.084  19.012  0.00  0.00    +0.000 C 
BRANCH  18  19
ATOM     19  C   UNL     1      -1.232  10.923  18.561  0.00  0.00    +0.000 A 
ATOM     20  C   UNL     1      -2.234  11.756  19.080  0.00  0.00    +0.000 A 
ATOM     21  C   UNL     1      -3.541  11.685  18.595  0.00  0.00    +0.000 A 
ATOM     22  C   UNL     1      -3.865  10.771  17.595  0.00  0.00    +0.000 A 
ATOM     23  C   UNL     1      -2.891   9.906  17.102  0.00  0.00    +0.000 A 
ATOM     24  C   UNL     1      -1.582   9.973  17.588  0.00  0.00    +0.000 A 
ENDBRANCH  18  19
ENDBRANCH  10  18
TORSDOF 3
ENDMDL
MODEL 2
REMARK VINA RESULT:      -8.1      0.155      1.402
REMARK  Name = 
REMARK  3 active torsions:
REMARK  status: ('A' for Active; 'I' for Inactive)
REMARK    1  A    between atoms: N_6  and  C_7
REMARK    2  A    between atoms: N_17  and  C_18
REMARK    3  A    between atoms: C_18  and  C_19
REMARK                            x       y       z     vdW  Elec       q    Type
REMARK                         _______ _______ _______ _____ _____    ______ ____
ROOT
ATOM      1  O   UNL     1       0.492   9.013  21.096  0.00  0.00    +0.000 OA
ATOM      2  C   UNL     1       1.076   8.862  20.028  0.00  0.00    +0.000 A 
ATOM      3  C   UNL     1       1.863   7.695  19.739  0.00  0.00    +0.000 A 
ATOM      4  C   UNL     1       2.120   6.508  20.419  0.00  0.00    +0.000 A 
ATOM      5  N   UNL     1       2.902   5.685  19.715  0.00  0.00    +0.000 NA
ATOM      6  N   UNL     1       3.167   6.357  18.548  0.00  0.00    +0.000 N 
ATOM      7  C   UNL     1       2.546   7.605  18.551  0.00  0.00    +0.000 A 
ATOM      8  N   UNL     1       2.557   8.544  17.568  0.00  0.00    +0.000 NA
ATOM      9  C   UNL     1       1.818   9.579  17.825  0.00  0.00    +0.000 A 
ATOM     10  N   UNL     1       1.074   9.784  18.977  0.00  0.00    +0.000 N 
ENDROOT
BRANCH   6  11
ATOM     11  C   UNL     1       3.959   5.741  17.531  0.00  0.00    +0.000 A 
ATOM     12  C   UNL     1       4.795   6.539  16.729  0.00  0.00    +0.000 A 
ATOM     13  C   UNL     1       5.615   5.952  15.762  0.00  0.00    +0.000 A 
ATOM     14  C   UNL     1       5.594   4.575  15.586  0.00  0.00    +0.000 A 
ATOM     15  F   UNL     1       6.388   4.010  14.668  0.00  0.00    +0.000 F 
ATOM     16  C   UNL     1       4.760   3.773  16.353  0.00  0.00    +0.000 A 
ATOM     17  C   UNL     1       3.941   4.355  17.325  0.00  0.00    +0.000 A 
ENDBRANCH   6  11
BRANCH  10  18
ATOM     18  C   UNL     1       0.320  11.016  19.124  0.00  0.00    +0.000 C 
BRANCH  18  19
ATOM     19  C   UNL     1      -1.085  10.930  18.568  0.00  0.00    +0.000 A 
ATOM     20  C   UNL     1      -1.401   9.972  17.593  0.00  0.00    +0.000 A 
ATOM     21  C   UNL     1      -2.715   9.815  17.149  0.00  0.00    +0.000 A 
ATOM     22  C   UNL     1      -3.726  10.622  17.664  0.00  0.00    +0.000 A 
ATOM     23  C   UNL     1      -3.419  11.608  18.599  0.00  0.00    +0.000 A 
ATOM     24  C   UNL     1      -2.104  11.769  19.044  0.00  0.00    +0.000 A 
ENDBRANCH  18  19
ENDBRANCH  10  18
TORSDOF 3
ENDMDL
MODEL 3
REMARK VINA RESULT:      -8.1      4.955      8.311
REMARK  Name = 
REMARK  3 active torsions:
REMARK  status: ('A' for Active; 'I' for Inactive)
REMARK    1  A    between atoms: N_6  and  C_7
REMARK    2  A    between atoms: N_17  and  C_18
REMARK    3  A    between atoms: C_18  and  C_19
REMARK                            x       y       z     vdW  Elec       q    Type
REMARK                         _______ _______ _______ _____ _____    ______ ____
ROOT
ATOM      1  O   UNL     1       5.623   6.992  15.027  0.00  0.00    +0.000 OA
ATOM      2  C   UNL     1       5.306   6.006  15.683  0.00  0.00    +0.000 A 
ATOM      3  C   UNL     1       4.397   6.079  16.794  0.00  0.00    +0.000 A 
ATOM      4  C   UNL     1       3.636   7.100  17.355  0.00  0.00    +0.000 A 
ATOM      5  N   UNL     1       2.895   6.668  18.380  0.00  0.00    +0.000 NA
ATOM      6  N   UNL     1       3.189   5.332  18.494  0.00  0.00    +0.000 N 
ATOM      7  C   UNL     1       4.124   4.954  17.533  0.00  0.00    +0.000 A 
ATOM      8  N   UNL     1       4.642   3.716  17.316  0.00  0.00    +0.000 NA
ATOM      9  C   UNL     1       5.436   3.653  16.292  0.00  0.00    +0.000 A 
ATOM     10  N   UNL     1       5.782   4.710  15.462  0.00  0.00    +0.000 N 
ENDROOT
BRANCH   6  11
ATOM     11  C   UNL     1       2.534   4.538  19.484  0.00  0.00    +0.000 A 
ATOM     12  C   UNL     1       1.419   3.761  19.118  0.00  0.00    +0.000 A 
ATOM     13  C   UNL     1       0.794   2.938  20.058  0.00  0.00    +0.000 A 
ATOM     14  C   UNL     1       1.270   2.897  21.362  0.00  0.00    +0.000 A 
ATOM     15  F   UNL     1       0.680   2.100  22.261  0.00  0.00    +0.000 F 
ATOM     16  C   UNL     1       2.355   3.673  21.747  0.00  0.00    +0.000 A 
ATOM     17  C   UNL     1       2.988   4.494  20.809  0.00  0.00    +0.000 A 
ENDBRANCH   6  11
BRANCH  10  18
ATOM     18  C   UNL     1       6.711   4.479  14.371  0.00  0.00    +0.000 C 
BRANCH  18  19
ATOM     19  C   UNL     1       6.077   3.802  13.176  0.00  0.00    +0.000 A 
ATOM     20  C   UNL     1       6.791   2.836  12.450  0.00  0.00    +0.000 A 
ATOM     21  C   UNL     1       6.181   2.132  11.411  0.00  0.00    +0.000 A 
ATOM     22  C   UNL     1       4.855   2.393  11.076  0.00  0.00    +0.000 A 
ATOM     23  C   UNL     1       4.148   3.381  11.757  0.00  0.00    +0.000 A 
ATOM     24  C   UNL     1       4.757   4.090  12.797  0.00  0.00    +0.000 A 
ENDBRANCH  18  19
ENDBRANCH  10  18
TORSDOF 3
ENDMDL
MODEL 4
REMARK VINA RESULT:      -8.0      3.421      7.932
REMARK  Name = 
REMARK  3 active torsions:
REMARK  status: ('A' for Active; 'I' for Inactive)
REMARK    1  A    between atoms: N_6  and  C_7
REMARK    2  A    between atoms: N_17  and  C_18
REMARK    3  A    between atoms: C_18  and  C_19
REMARK                            x       y       z     vdW  Elec       q    Type
REMARK                         _______ _______ _______ _____ _____    ______ ____
ROOT
ATOM      1  O   UNL     1       2.485   5.797  20.330  0.00  0.00    +0.000 OA
ATOM      2  C   UNL     1       2.386   6.806  19.641  0.00  0.00    +0.000 A 
ATOM      3  C   UNL     1       1.661   7.968  20.077  0.00  0.00    +0.000 A 
ATOM      4  C   UNL     1       1.009   8.315  21.256  0.00  0.00    +0.000 A 
ATOM      5  N   UNL     1       0.502   9.551  21.204  0.00  0.00    +0.000 NA
ATOM      6  N   UNL     1       0.826  10.017  19.955  0.00  0.00    +0.000 N 
ATOM      7  C   UNL     1       1.529   9.049  19.239  0.00  0.00    +0.000 A 
ATOM      8  N   UNL     1       2.037   9.146  17.982  0.00  0.00    +0.000 NA
ATOM      9  C   UNL     1       2.716   8.105  17.610  0.00  0.00    +0.000 A 
ATOM     10  N   UNL     1       2.932   6.960  18.363  0.00  0.00    +0.000 N 
ENDROOT
BRANCH   6  11
ATOM     11  C   UNL     1       0.464  11.343  19.569  0.00  0.00    +0.000 A 
ATOM     12  C   UNL     1       1.186  12.435  20.087  0.00  0.00    +0.000 A 
ATOM     13  C   UNL     1       0.880  13.737  19.685  0.00  0.00    +0.000 A 
ATOM     14  C   UNL     1      -0.149  13.954  18.778  0.00  0.00    +0.000 A 
ATOM     15  F   UNL     1      -0.434  15.201  18.383  0.00  0.00    +0.000 F 
ATOM     16  C   UNL     1      -0.886  12.892  18.273  0.00  0.00    +0.000 A 
ATOM     17  C   UNL     1      -0.582  11.586  18.668  0.00  0.00    +0.000 A 
ENDBRANCH   6  11
BRANCH  10  18
ATOM     18  C   UNL     1       3.693   5.867  17.787  0.00  0.00    +0.000 C 
BRANCH  18  19
ATOM     19  C   UNL     1       5.183   5.981  18.028  0.00  0.00    +0.000 A 
ATOM     20  C   UNL     1       5.977   6.769  17.181  0.00  0.00    +0.000 A 
ATOM     21  C   UNL     1       7.331   6.964  17.453  0.00  0.00    +0.000 A 
ATOM     22  C   UNL     1       7.912   6.363  18.568  0.00  0.00    +0.000 A 
ATOM     23  C   UNL     1       7.147   5.541  19.392  0.00  0.00    +0.000 A 
ATOM     24  C   UNL     1       5.790   5.342  19.120  0.00  0.00    +0.000 A 
ENDBRANCH  18  19
ENDBRANCH  10  18
TORSDOF 3
ENDMDL
MODEL 5
REMARK VINA RESULT:      -7.9      3.652      8.224
REMARK  Name = 
REMARK  3 active torsions:
REMARK  status: ('A' for Active; 'I' for Inactive)
REMARK    1  A    between atoms: N_6  and  C_7
REMARK    2  A    between atoms: N_17  and  C_18
REMARK    3  A    between atoms: C_18  and  C_19
REMARK                            x       y       z     vdW  Elec       q    Type
REMARK                         _______ _______ _______ _____ _____    ______ ____
ROOT
ATOM      1  O   UNL     1       4.849   2.912  17.153  0.00  0.00    +0.000 OA
ATOM      2  C   UNL     1       4.793   4.133  17.253  0.00  0.00    +0.000 A 
ATOM      3  C   UNL     1       3.675   4.805  17.858  0.00  0.00    +0.000 A 
ATOM      4  C   UNL     1       2.518   4.373  18.498  0.00  0.00    +0.000 A 
ATOM      5  N   UNL     1       1.778   5.395  18.940  0.00  0.00    +0.000 NA
ATOM      6  N   UNL     1       2.469   6.521  18.570  0.00  0.00    +0.000 N 
ATOM      7  C   UNL     1       3.636   6.178  17.889  0.00  0.00    +0.000 A 
ATOM      8  N   UNL     1       4.585   7.011  17.388  0.00  0.00    +0.000 NA
ATOM      9  C   UNL     1       5.604   6.395  16.874  0.00  0.00    +0.000 A 
ATOM     10  N   UNL     1       5.770   5.020  16.792  0.00  0.00    +0.000 N 
ENDROOT
BRANCH   6  11
ATOM     11  C   UNL     1       1.973   7.813  18.922  0.00  0.00    +0.000 A 
ATOM     12  C   UNL     1       1.832   8.795  17.924  0.00  0.00    +0.000 A 
ATOM     13  C   UNL     1       1.302  10.049  18.237  0.00  0.00    +0.000 A 
ATOM     14  C   UNL     1       0.923  10.329  19.543  0.00  0.00    +0.000 A 
ATOM     15  F   UNL     1       0.403  11.526  19.842  0.00  0.00    +0.000 F 
ATOM     16  C   UNL     1       1.074   9.382  20.546  0.00  0.00    +0.000 A 
ATOM     17  C   UNL     1       1.599   8.123  20.237  0.00  0.00    +0.000 A 
ENDBRANCH   6  11
BRANCH  10  18
ATOM     18  C   UNL     1       6.960   4.487  16.155  0.00  0.00    +0.000 C 
BRANCH  18  19
ATOM     19  C   UNL     1       6.872   4.460  14.645  0.00  0.00    +0.000 A 
ATOM     20  C   UNL     1       7.704   5.287  13.874  0.00  0.00    +0.000 A 
ATOM     21  C   UNL     1       7.705   5.196  12.482  0.00  0.00    +0.000 A 
ATOM     22  C   UNL     1       6.864   4.288  11.841  0.00  0.00    +0.000 A 
ATOM     23  C   UNL     1       6.000   3.494  12.591  0.00  0.00    +0.000 A 
ATOM     24  C   UNL     1       5.995   3.585  13.986  0.00  0.00    +0.000 A 
ENDBRANCH  18  19
ENDBRANCH  10  18
TORSDOF 3
ENDMDL
MODEL 6
REMARK VINA RESULT:      -7.8      4.210      8.236
REMARK  Name = 
REMARK  3 active torsions:
REMARK  status: ('A' for Active; 'I' for Inactive)
REMARK    1  A    between atoms: N_6  and  C_7
REMARK    2  A    between atoms: N_17  and  C_18
REMARK    3  A    between atoms: C_18  and  C_19
REMARK                            x       y       z     vdW  Elec       q    Type
REMARK                         _______ _______ _______ _____ _____    ______ ____
ROOT
ATOM      1  O   UNL     1       2.798   8.236  17.595  0.00  0.00    +0.000 OA
ATOM      2  C   UNL     1       2.170   8.370  18.639  0.00  0.00    +0.000 A 
ATOM      3  C   UNL     1       1.327   9.508  18.889  0.00  0.00    +0.000 A 
ATOM      4  C   UNL     1       0.940  10.610  18.134  0.00  0.00    +0.000 A 
ATOM      5  N   UNL     1       0.091  11.400  18.797  0.00  0.00    +0.000 NA
ATOM      6  N   UNL     1      -0.072  10.800  20.021  0.00  0.00    +0.000 N 
ATOM      7  C   UNL     1       0.694   9.638  20.101  0.00  0.00    +0.000 A 
ATOM      8  N   UNL     1       0.777   8.765  21.140  0.00  0.00    +0.000 NA
ATOM      9  C   UNL     1       1.514   7.726  20.892  0.00  0.00    +0.000 A 
ATOM     10  N   UNL     1       2.195   7.472  19.710  0.00  0.00    +0.000 N 
ENDROOT
BRANCH   6  11
ATOM     11  C   UNL     1      -0.960  11.369  20.984  0.00  0.00    +0.000 A 
ATOM     12  C   UNL     1      -1.999  12.214  20.552  0.00  0.00    +0.000 A 
ATOM     13  C   UNL     1      -2.908  12.741  21.472  0.00  0.00    +0.000 A 
ATOM     14  C   UNL     1      -2.777  12.437  22.821  0.00  0.00    +0.000 A 
ATOM     15  F   UNL     1      -3.655  12.932  23.702  0.00  0.00    +0.000 F 
ATOM     16  C   UNL     1      -1.746  11.623  23.269  0.00  0.00    +0.000 A 
ATOM     17  C   UNL     1      -0.836  11.089  22.352  0.00  0.00    +0.000 A 
ENDBRANCH   6  11
BRANCH  10  18
ATOM     18  C   UNL     1       3.004   6.273  19.603  0.00  0.00    +0.000 C 
BRANCH  18  19
ATOM     19  C   UNL     1       2.186   5.004  19.497  0.00  0.00    +0.000 A 
ATOM     20  C   UNL     1       1.892   4.456  18.239  0.00  0.00    +0.000 A 
ATOM     21  C   UNL     1       1.228   3.233  18.133  0.00  0.00    +0.000 A 
ATOM     22  C   UNL     1       0.838   2.549  19.282  0.00  0.00    +0.000 A 
ATOM     23  C   UNL     1       1.083   3.103  20.537  0.00  0.00    +0.000 A 
ATOM     24  C   UNL     1       1.746   4.329  20.646  0.00  0.00    +0.000 A 
ENDBRANCH  18  19
ENDBRANCH  10  18
TORSDOF 3
ENDMDL
MODEL 7
REMARK VINA RESULT:      -7.8      4.178      8.148
REMARK  Name = 
REMARK  3 active torsions:
REMARK  status: ('A' for Active; 'I' for Inactive)
REMARK    1  A    between atoms: N_6  and  C_7
REMARK    2  A    between atoms: N_17  and  C_18
REMARK    3  A    between atoms: C_18  and  C_19
REMARK                            x       y       z     vdW  Elec       q    Type
REMARK                         _______ _______ _______ _____ _____    ______ ____
ROOT
ATOM      1  O   UNL     1       2.885   8.001  17.602  0.00  0.00    +0.000 OA
ATOM      2  C   UNL     1       2.270   8.164  18.650  0.00  0.00    +0.000 A 
ATOM      3  C   UNL     1       1.416   9.299  18.873  0.00  0.00    +0.000 A 
ATOM      4  C   UNL     1       1.004  10.369  18.085  0.00  0.00    +0.000 A 
ATOM      5  N   UNL     1       0.154  11.171  18.734  0.00  0.00    +0.000 NA
ATOM      6  N   UNL     1       0.016  10.612  19.980  0.00  0.00    +0.000 N 
ATOM      7  C   UNL     1       0.799   9.464  20.089  0.00  0.00    +0.000 A 
ATOM      8  N   UNL     1       0.909   8.629  21.156  0.00  0.00    +0.000 NA
ATOM      9  C   UNL     1       1.656   7.592  20.934  0.00  0.00    +0.000 A 
ATOM     10  N   UNL     1       2.323   7.305  19.752  0.00  0.00    +0.000 N 
ENDROOT
BRANCH   6  11
ATOM     11  C   UNL     1      -0.865  11.203  20.936  0.00  0.00    +0.000 A 
ATOM     12  C   UNL     1      -1.857  12.100  20.499  0.00  0.00    +0.000 A 
ATOM     13  C   UNL     1      -2.761  12.651  21.410  0.00  0.00    +0.000 A 
ATOM     14  C   UNL     1      -2.670  12.319  22.756  0.00  0.00    +0.000 A 
ATOM     15  F   UNL     1      -3.544  12.837  23.628  0.00  0.00    +0.000 F 
ATOM     16  C   UNL     1      -1.685  11.453  23.209  0.00  0.00    +0.000 A 
ATOM     17  C   UNL     1      -0.781  10.895  22.301  0.00  0.00    +0.000 A 
ENDBRANCH   6  11
BRANCH  10  18
ATOM     18  C   UNL     1       3.147   6.113  19.675  0.00  0.00    +0.000 C 
BRANCH  18  19
ATOM     19  C   UNL     1       2.344   4.836  19.549  0.00  0.00    +0.000 A 
ATOM     20  C   UNL     1       1.947   4.136  20.699  0.00  0.00    +0.000 A 
ATOM     21  C   UNL     1       1.120   3.016  20.599  0.00  0.00    +0.000 A 
ATOM     22  C   UNL     1       0.692   2.573  19.349  0.00  0.00    +0.000 A 
ATOM     23  C   UNL     1       1.116   3.231  18.197  0.00  0.00    +0.000 A 
ATOM     24  C   UNL     1       1.946   4.352  18.294  0.00  0.00    +0.000 A 
ENDBRANCH  18  19
ENDBRANCH  10  18
TORSDOF 3
ENDMDL
MODEL 8
REMARK VINA RESULT:      -7.8      4.191      8.192
REMARK  Name = 
REMARK  3 active torsions:
REMARK  status: ('A' for Active; 'I' for Inactive)
REMARK    1  A    between atoms: N_6  and  C_7
REMARK    2  A    between atoms: N_17  and  C_18
REMARK    3  A    between atoms: C_18  and  C_19
REMARK                            x       y       z     vdW  Elec       q    Type
REMARK                         _______ _______ _______ _____ _____    ______ ____
ROOT
ATOM      1  O   UNL     1       2.862   8.025  17.735  0.00  0.00    +0.000 OA
ATOM      2  C   UNL     1       2.197   8.217  18.747  0.00  0.00    +0.000 A 
ATOM      3  C   UNL     1       1.368   9.380  18.915  0.00  0.00    +0.000 A 
ATOM      4  C   UNL     1       1.032  10.454  18.097  0.00  0.00    +0.000 A 
ATOM      5  N   UNL     1       0.174  11.288  18.693  0.00  0.00    +0.000 NA
ATOM      6  N   UNL     1      -0.047  10.746  19.934  0.00  0.00    +0.000 N 
ATOM      7  C   UNL     1       0.692   9.575  20.095  0.00  0.00    +0.000 A 
ATOM      8  N   UNL     1       0.719   8.748  21.173  0.00  0.00    +0.000 NA
ATOM      9  C   UNL     1       1.444   7.686  20.999  0.00  0.00    +0.000 A 
ATOM     10  N   UNL     1       2.164   7.367  19.857  0.00  0.00    +0.000 N 
ENDROOT
BRANCH   6  11
ATOM     11  C   UNL     1      -0.959  11.373  20.837  0.00  0.00    +0.000 A 
ATOM     12  C   UNL     1      -0.751  11.253  22.223  0.00  0.00    +0.000 A 
ATOM     13  C   UNL     1      -1.601  11.899  23.123  0.00  0.00    +0.000 A 
ATOM     14  C   UNL     1      -2.664  12.654  22.644  0.00  0.00    +0.000 A 
ATOM     15  F   UNL     1      -3.473  13.284  23.506  0.00  0.00    +0.000 F 
ATOM     16  C   UNL     1      -2.899  12.767  21.281  0.00  0.00    +0.000 A 
ATOM     17  C   UNL     1      -2.048  12.126  20.376  0.00  0.00    +0.000 A 
ENDBRANCH   6  11
BRANCH  10  18
ATOM     18  C   UNL     1       2.953   6.150  19.834  0.00  0.00    +0.000 C 
BRANCH  18  19
ATOM     19  C   UNL     1       2.143   4.916  19.500  0.00  0.00    +0.000 A 
ATOM     20  C   UNL     1       1.988   4.512  18.165  0.00  0.00    +0.000 A 
ATOM     21  C   UNL     1       1.332   3.320  17.854  0.00  0.00    +0.000 A 
ATOM     22  C   UNL     1       0.810   2.525  18.872  0.00  0.00    +0.000 A 
ATOM     23  C   UNL     1       0.917   2.936  20.198  0.00  0.00    +0.000 A 
ATOM     24  C   UNL     1       1.572   4.130  20.513  0.00  0.00    +0.000 A 
ENDBRANCH  18  19
ENDBRANCH  10  18
TORSDOF 3
ENDMDL
MODEL 9
REMARK VINA RESULT:      -7.7      3.641      8.162
REMARK  Name = 
REMARK  3 active torsions:
REMARK  status: ('A' for Active; 'I' for Inactive)
REMARK    1  A    between atoms: N_6  and  C_7
REMARK    2  A    between atoms: N_17  and  C_18
REMARK    3  A    between atoms: C_18  and  C_19
REMARK                            x       y       z     vdW  Elec       q    Type
REMARK                         _______ _______ _______ _____ _____    ______ ____
ROOT
ATOM      1  O   UNL     1       5.205   3.162  17.412  0.00  0.00    +0.000 OA
ATOM      2  C   UNL     1       5.036   4.377  17.418  0.00  0.00    +0.000 A 
ATOM      3  C   UNL     1       3.892   4.992  18.034  0.00  0.00    +0.000 A 
ATOM      4  C   UNL     1       2.817   4.511  18.775  0.00  0.00    +0.000 A 
ATOM      5  N   UNL     1       2.006   5.494  19.178  0.00  0.00    +0.000 NA
ATOM      6  N   UNL     1       2.565   6.644  18.680  0.00  0.00    +0.000 N 
ATOM      7  C   UNL     1       3.722   6.353  17.959  0.00  0.00    +0.000 A 
ATOM      8  N   UNL     1       4.559   7.225  17.338  0.00  0.00    +0.000 NA
ATOM      9  C   UNL     1       5.604   6.664  16.814  0.00  0.00    +0.000 A 
ATOM     10  N   UNL     1       5.897   5.308  16.831  0.00  0.00    +0.000 N 
ENDROOT
BRANCH   6  11
ATOM     11  C   UNL     1       1.965   7.910  18.958  0.00  0.00    +0.000 A 
ATOM     12  C   UNL     1       1.554   8.206  20.271  0.00  0.00    +0.000 A 
ATOM     13  C   UNL     1       1.011   9.456  20.575  0.00  0.00    +0.000 A 
ATOM     14  C   UNL     1       0.867  10.407  19.573  0.00  0.00    +0.000 A 
ATOM     15  F   UNL     1       0.358  11.610  19.866  0.00  0.00    +0.000 F 
ATOM     16  C   UNL     1       1.247  10.126  18.268  0.00  0.00    +0.000 A 
ATOM     17  C   UNL     1       1.796   8.878  17.959  0.00  0.00    +0.000 A 
ENDBRANCH   6  11
BRANCH  10  18
ATOM     18  C   UNL     1       7.098   4.835  16.168  0.00  0.00    +0.000 C 
BRANCH  18  19
ATOM     19  C   UNL     1       6.924   4.639  14.677  0.00  0.00    +0.000 A 
ATOM     20  C   UNL     1       7.752   5.322  13.774  0.00  0.00    +0.000 A 
ATOM     21  C   UNL     1       7.670   5.072  12.403  0.00  0.00    +0.000 A 
ATOM     22  C   UNL     1       6.749   4.146  11.918  0.00  0.00    +0.000 A 
ATOM     23  C   UNL     1       5.889   3.494  12.799  0.00  0.00    +0.000 A 
ATOM     24  C   UNL     1       5.968   3.745  14.172  0.00  0.00    +0.000 A 
ENDBRANCH  18  19
ENDBRANCH  10  18
TORSDOF 3
ENDMDL
