MODEL 1
REMARK VINA RESULT:      -6.9      0.000      0.000
REMARK  Name = 
REMARK  6 active torsions:
REMARK  status: ('A' for Active; 'I' for Inactive)
REMARK    1  A    between atoms: N_1  and  CA_2
REMARK    2  A    between atoms: CA_2  and  C_3
REMARK    3  A    between atoms: CA_2  and  C_14
REMARK    4  A    between atoms: C_3  and  C_4
REMARK    5  A    between atoms: C_10  and  O_11
REMARK    6  A    between atoms: C_14  and  OXT_16
REMARK                            x       y       z     vdW  Elec       q    Type
REMARK                         _______ _______ _______ _____ _____    ______ ____
ROOT
ATOM      1  C   UNL     1       4.038   4.922  18.032  0.00  0.00    +0.000 A 
ATOM      2  C   UNL     1       4.370   5.854  18.997  0.00  0.00    +0.000 A 
ATOM      3  N   UNL     1       3.504   5.715  20.049  0.00  0.00    +0.000 N 
ATOM      4  C   UNL     1       2.601   4.712  19.796  0.00  0.00    +0.000 A 
ATOM      5  C   UNL     1       1.547   4.222  20.582  0.00  0.00    +0.000 A 
ATOM      6  C   UNL     1       0.767   3.188  20.049  0.00  0.00    +0.000 A 
ATOM      7  C   UNL     1       1.041   2.678  18.786  0.00  0.00    +0.000 A 
ATOM      8  C   UNL     1       2.096   3.171  18.012  0.00  0.00    +0.000 A 
ATOM      9  C   UNL     1       2.901   4.203  18.530  0.00  0.00    +0.000 A 
ATOM     10  H   UNL     1       3.515   6.274  20.894  0.00  0.00    +0.000 HD
ENDROOT
BRANCH   7  11
ATOM     11  O   UNL     1       0.288   1.672  18.250  0.00  0.00    +0.000 OA
ATOM     12  H   UNL     1      -0.042   1.113  18.972  0.00  0.00    +0.000 HD
ENDBRANCH   7  11
BRANCH   1  13
ATOM     13  C   UNL     1       4.709   4.712  16.708  0.00  0.00    +0.000 C 
BRANCH  13  14
ATOM     14  CA  UNL     1       5.716   5.814  16.332  0.00  0.00    +0.000 C 
BRANCH  14  15
ATOM     15  N   UNL     1       5.239   6.727  15.246  0.00  0.00    +0.000 NA
ATOM     16  H1  UNL     1       4.216   6.639  15.223  0.00  0.00    +0.000 HD
ATOM     17  H2  UNL     1       5.532   6.329  14.347  0.00  0.00    +0.000 HD
ENDBRANCH  14  15
BRANCH  14  18
ATOM     18  C   UNL     1       7.036   5.168  15.876  0.00  0.00    +0.000 C 
ATOM     19  O   UNL     1       7.507   5.233  14.748  0.00  0.00    +0.000 OA
BRANCH  18  20
ATOM     20  OXT UNL     1       7.640   4.482  16.881  0.00  0.00    +0.000 OA
ATOM     21  HXT UNL     1       7.038   3.738  17.131  0.00  0.00    +0.000 HD
ENDBRANCH  18  20
ENDBRANCH  14  18
ENDBRANCH  13  14
ENDBRANCH   1  13
TORSDOF 6
ENDMDL
MODEL 2
REMARK VINA RESULT:      -6.8      1.216      1.380
REMARK  Name = 
REMARK  6 active torsions:
REMARK  status: ('A' for Active; 'I' for Inactive)
REMARK    1  A    between atoms: N_1  and  CA_2
REMARK    2  A    between atoms: CA_2  and  C_3
REMARK    3  A    between atoms: CA_2  and  C_14
REMARK    4  A    between atoms: C_3  and  C_4
REMARK    5  A    between atoms: C_10  and  O_11
REMARK    6  A    between atoms: C_14  and  OXT_16
REMARK                            x       y       z     vdW  Elec       q    Type
REMARK                         _______ _______ _______ _____ _____    ______ ____
ROOT
ATOM      1  C   UNL     1       4.042   5.047  17.836  0.00  0.00    +0.000 A 
ATOM      2  C   UNL     1       4.370   6.049  18.729  0.00  0.00    +0.000 A 
ATOM      3  N   UNL     1       3.518   5.973  19.799  0.00  0.00    +0.000 N 
ATOM      4  C   UNL     1       2.627   4.941  19.627  0.00  0.00    +0.000 A 
ATOM      5  C   UNL     1       1.589   4.492  20.458  0.00  0.00    +0.000 A 
ATOM      6  C   UNL     1       0.819   3.413  20.009  0.00  0.00    +0.000 A 
ATOM      7  C   UNL     1       1.088   2.818  18.781  0.00  0.00    +0.000 A 
ATOM      8  C   UNL     1       2.127   3.271  17.962  0.00  0.00    +0.000 A 
ATOM      9  C   UNL     1       2.921   4.349  18.397  0.00  0.00    +0.000 A 
ATOM     10  H   UNL     1       3.529   6.590  20.601  0.00  0.00    +0.000 HD
ENDROOT
BRANCH   7  11
ATOM     11  O   UNL     1       0.345   1.766  18.327  0.00  0.00    +0.000 OA
ATOM     12  H   UNL     1      -0.182   2.063  17.567  0.00  0.00    +0.000 HD
ENDBRANCH   7  11
BRANCH   1  13
ATOM     13  C   UNL     1       4.701   4.754  16.522  0.00  0.00    +0.000 C 
BRANCH  13  14
ATOM     14  CA  UNL     1       6.180   4.342  16.639  0.00  0.00    +0.000 C 
BRANCH  14  15
ATOM     15  N   UNL     1       6.619   4.049  18.040  0.00  0.00    +0.000 NA
ATOM     16  H1  UNL     1       5.805   4.225  18.641  0.00  0.00    +0.000 HD
ATOM     17  H2  UNL     1       7.284   4.778  18.323  0.00  0.00    +0.000 HD
ENDBRANCH  14  15
BRANCH  14  18
ATOM     18  C   UNL     1       7.071   5.464  16.079  0.00  0.00    +0.000 C 
ATOM     19  O   UNL     1       7.442   6.453  16.696  0.00  0.00    +0.000 OA
BRANCH  18  20
ATOM     20  OXT UNL     1       7.405   5.247  14.780  0.00  0.00    +0.000 OA
ATOM     21  HXT UNL     1       7.957   4.426  14.753  0.00  0.00    +0.000 HD
ENDBRANCH  18  20
ENDBRANCH  14  18
ENDBRANCH  13  14
ENDBRANCH   1  13
TORSDOF 6
ENDMDL
MODEL 3
REMARK VINA RESULT:      -6.7      1.311      1.589
REMARK  Name = 
REMARK  6 active torsions:
REMARK  status: ('A' for Active; 'I' for Inactive)
REMARK    1  A    between atoms: N_1  and  CA_2
REMARK    2  A    between atoms: CA_2  and  C_3
REMARK    3  A    between atoms: CA_2  and  C_14
REMARK    4  A    between atoms: C_3  and  C_4
REMARK    5  A    between atoms: C_10  and  O_11
REMARK    6  A    between atoms: C_14  and  OXT_16
REMARK                            x       y       z     vdW  Elec       q    Type
REMARK                         _______ _______ _______ _____ _____    ______ ____
ROOT
ATOM      1  C   UNL     1       4.004   5.496  17.498  0.00  0.00    +0.000 A 
ATOM      2  C   UNL     1       3.741   6.759  17.994  0.00  0.00    +0.000 A 
ATOM      3  N   UNL     1       2.742   6.660  18.926  0.00  0.00    +0.000 N 
ATOM      4  C   UNL     1       2.334   5.354  19.052  0.00  0.00    +0.000 A 
ATOM      5  C   UNL     1       1.353   4.787  19.880  0.00  0.00    +0.000 A 
ATOM      6  C   UNL     1       1.137   3.408  19.779  0.00  0.00    +0.000 A 
ATOM      7  C   UNL     1       1.878   2.642  18.886  0.00  0.00    +0.000 A 
ATOM      8  C   UNL     1       2.856   3.216  18.068  0.00  0.00    +0.000 A 
ATOM      9  C   UNL     1       3.098   4.600  18.158  0.00  0.00    +0.000 A 
ATOM     10  H   UNL     1       2.347   7.434  19.446  0.00  0.00    +0.000 HD
ENDROOT
BRANCH   7  11
ATOM     11  O   UNL     1       1.678   1.296  18.773  0.00  0.00    +0.000 OA
ATOM     12  H   UNL     1       0.871   1.060  19.257  0.00  0.00    +0.000 HD
ENDBRANCH   7  11
BRANCH   1  13
ATOM     13  C   UNL     1       5.014   5.125  16.455  0.00  0.00    +0.000 C 
BRANCH  13  14
ATOM     14  CA  UNL     1       6.426   5.674  16.725  0.00  0.00    +0.000 C 
BRANCH  14  15
ATOM     15  N   UNL     1       7.287   5.764  15.503  0.00  0.00    +0.000 NA
ATOM     16  H1  UNL     1       8.024   5.058  15.616  0.00  0.00    +0.000 HD
ATOM     17  H2  UNL     1       7.800   6.651  15.542  0.00  0.00    +0.000 HD
ENDBRANCH  14  15
BRANCH  14  18
ATOM     18  C   UNL     1       7.138   4.777  17.752  0.00  0.00    +0.000 C 
ATOM     19  O   UNL     1       6.883   4.725  18.948  0.00  0.00    +0.000 OA
BRANCH  18  20
ATOM     20  OXT UNL     1       8.122   4.034  17.182  0.00  0.00    +0.000 OA
ATOM     21  HXT UNL     1       8.274   3.251  17.769  0.00  0.00    +0.000 HD
ENDBRANCH  18  20
ENDBRANCH  14  18
ENDBRANCH  13  14
ENDBRANCH   1  13
TORSDOF 6
ENDMDL
MODEL 4
REMARK VINA RESULT:      -6.7      1.715      2.050
REMARK  Name = 
REMARK  6 active torsions:
REMARK  status: ('A' for Active; 'I' for Inactive)
REMARK    1  A    between atoms: N_1  and  CA_2
REMARK    2  A    between atoms: CA_2  and  C_3
REMARK    3  A    between atoms: CA_2  and  C_14
REMARK    4  A    between atoms: C_3  and  C_4
REMARK    5  A    between atoms: C_10  and  O_11
REMARK    6  A    between atoms: C_14  and  OXT_16
REMARK                            x       y       z     vdW  Elec       q    Type
REMARK                         _______ _______ _______ _____ _____    ______ ____
ROOT
ATOM      1  C   UNL     1       4.056   5.784  17.571  0.00  0.00    +0.000 A 
ATOM      2  C   UNL     1       3.162   6.696  18.098  0.00  0.00    +0.000 A 
ATOM      3  N   UNL     1       2.235   6.016  18.842  0.00  0.00    +0.000 N 
ATOM      4  C   UNL     1       2.496   4.667  18.813  0.00  0.00    +0.000 A 
ATOM      5  C   UNL     1       1.823   3.600  19.427  0.00  0.00    +0.000 A 
ATOM      6  C   UNL     1       2.313   2.308  19.202  0.00  0.00    +0.000 A 
ATOM      7  C   UNL     1       3.428   2.108  18.397  0.00  0.00    +0.000 A 
ATOM      8  C   UNL     1       4.094   3.178  17.792  0.00  0.00    +0.000 A 
ATOM      9  C   UNL     1       3.626   4.488  18.012  0.00  0.00    +0.000 A 
ATOM     10  H   UNL     1       1.459   6.436  19.338  0.00  0.00    +0.000 HD
ENDROOT
BRANCH   7  11
ATOM     11  O   UNL     1       3.917   0.854  18.165  0.00  0.00    +0.000 OA
ATOM     12  H   UNL     1       4.791   0.933  17.750  0.00  0.00    +0.000 HD
ENDBRANCH   7  11
BRANCH   1  13
ATOM     13  C   UNL     1       5.233   6.074  16.689  0.00  0.00    +0.000 C 
BRANCH  13  14
ATOM     14  CA  UNL     1       6.558   6.261  17.450  0.00  0.00    +0.000 C 
BRANCH  14  15
ATOM     15  N   UNL     1       7.381   7.412  16.963  0.00  0.00    +0.000 NA
ATOM     16  H1  UNL     1       8.009   7.666  17.735  0.00  0.00    +0.000 HD
ATOM     17  H2  UNL     1       6.765   8.229  16.880  0.00  0.00    +0.000 HD
ENDBRANCH  14  15
BRANCH  14  18
ATOM     18  C   UNL     1       7.401   4.980  17.332  0.00  0.00    +0.000 C 
ATOM     19  O   UNL     1       7.925   4.385  18.265  0.00  0.00    +0.000 OA
BRANCH  18  20
ATOM     20  OXT UNL     1       7.523   4.568  16.043  0.00  0.00    +0.000 OA
ATOM     21  HXT UNL     1       8.392   4.905  15.709  0.00  0.00    +0.000 HD
ENDBRANCH  18  20
ENDBRANCH  14  18
ENDBRANCH  13  14
ENDBRANCH   1  13
TORSDOF 6
ENDMDL
MODEL 5
REMARK VINA RESULT:      -6.7      1.504      1.549
REMARK  Name = 
REMARK  6 active torsions:
REMARK  status: ('A' for Active; 'I' for Inactive)
REMARK    1  A    between atoms: N_1  and  CA_2
REMARK    2  A    between atoms: CA_2  and  C_3
REMARK    3  A    between atoms: CA_2  and  C_14
REMARK    4  A    between atoms: C_3  and  C_4
REMARK    5  A    between atoms: C_10  and  O_11
REMARK    6  A    between atoms: C_14  and  OXT_16
REMARK                            x       y       z     vdW  Elec       q    Type
REMARK                         _______ _______ _______ _____ _____    ______ ____
ROOT
ATOM      1  C   UNL     1       4.746   3.986  17.512  0.00  0.00    +0.000 A 
ATOM      2  C   UNL     1       5.683   4.282  18.484  0.00  0.00    +0.000 A 
ATOM      3  N   UNL     1       5.192   3.879  19.697  0.00  0.00    +0.000 N 
ATOM      4  C   UNL     1       3.943   3.326  19.547  0.00  0.00    +0.000 A 
ATOM      5  C   UNL     1       3.073   2.780  20.503  0.00  0.00    +0.000 A 
ATOM      6  C   UNL     1       1.836   2.300  20.055  0.00  0.00    +0.000 A 
ATOM      7  C   UNL     1       1.500   2.369  18.708  0.00  0.00    +0.000 A 
ATOM      8  C   UNL     1       2.375   2.911  17.763  0.00  0.00    +0.000 A 
ATOM      9  C   UNL     1       3.629   3.392  18.188  0.00  0.00    +0.000 A 
ATOM     10  H   UNL     1       5.669   3.978  20.585  0.00  0.00    +0.000 HD
ENDROOT
BRANCH   7  11
ATOM     11  O   UNL     1       0.296   1.908  18.255  0.00  0.00    +0.000 OA
ATOM     12  H   UNL     1       0.150   1.017  18.612  0.00  0.00    +0.000 HD
ENDBRANCH   7  11
BRANCH   1  13
ATOM     13  C   UNL     1       4.852   4.254  16.041  0.00  0.00    +0.000 C 
BRANCH  13  14
ATOM     14  CA  UNL     1       5.892   5.327  15.672  0.00  0.00    +0.000 C 
BRANCH  14  15
ATOM     15  N   UNL     1       5.293   6.625  15.226  0.00  0.00    +0.000 NA
ATOM     16  H1  UNL     1       6.062   7.305  15.202  0.00  0.00    +0.000 HD
ATOM     17  H2  UNL     1       4.693   6.973  15.983  0.00  0.00    +0.000 HD
ENDBRANCH  14  15
BRANCH  14  18
ATOM     18  C   UNL     1       6.795   4.799  14.544  0.00  0.00    +0.000 C 
ATOM     19  O   UNL     1       7.752   5.391  14.063  0.00  0.00    +0.000 OA
BRANCH  18  20
ATOM     20  OXT UNL     1       6.401   3.573  14.109  0.00  0.00    +0.000 OA
ATOM     21  HXT UNL     1       5.586   3.704  13.564  0.00  0.00    +0.000 HD
ENDBRANCH  18  20
ENDBRANCH  14  18
ENDBRANCH  13  14
ENDBRANCH   1  13
TORSDOF 6
ENDMDL
MODEL 6
REMARK VINA RESULT:      -6.7      2.186      2.652
REMARK  Name = 
REMARK  6 active torsions:
REMARK  status: ('A' for Active; 'I' for Inactive)
REMARK    1  A    between atoms: N_1  and  CA_2
REMARK    2  A    between atoms: CA_2  and  C_3
REMARK    3  A    between atoms: CA_2  and  C_14
REMARK    4  A    between atoms: C_3  and  C_4
REMARK    5  A    between atoms: C_10  and  O_11
REMARK    6  A    between atoms: C_14  and  OXT_16
REMARK                            x       y       z     vdW  Elec       q    Type
REMARK                         _______ _______ _______ _____ _____    ______ ____
ROOT
ATOM      1  C   UNL     1       4.076   4.751  17.310  0.00  0.00    +0.000 A 
ATOM      2  C   UNL     1       3.917   3.407  17.034  0.00  0.00    +0.000 A 
ATOM      3  N   UNL     1       3.015   2.885  17.922  0.00  0.00    +0.000 N 
ATOM      4  C   UNL     1       2.577   3.860  18.786  0.00  0.00    +0.000 A 
ATOM      5  C   UNL     1       1.658   3.787  19.844  0.00  0.00    +0.000 A 
ATOM      6  C   UNL     1       1.417   4.956  20.576  0.00  0.00    +0.000 A 
ATOM      7  C   UNL     1       2.073   6.138  20.252  0.00  0.00    +0.000 A 
ATOM      8  C   UNL     1       2.985   6.201  19.194  0.00  0.00    +0.000 A 
ATOM      9  C   UNL     1       3.236   5.040  18.437  0.00  0.00    +0.000 A 
ATOM     10  H   UNL     1       2.714   1.919  17.953  0.00  0.00    +0.000 HD
ENDROOT
BRANCH   7  11
ATOM     11  O   UNL     1       1.852   7.286  20.957  0.00  0.00    +0.000 OA
ATOM     12  H   UNL     1       1.351   7.067  21.759  0.00  0.00    +0.000 HD
ENDBRANCH   7  11
BRANCH   1  13
ATOM     13  C   UNL     1       4.970   5.722  16.599  0.00  0.00    +0.000 C 
BRANCH  13  14
ATOM     14  CA  UNL     1       6.286   6.023  17.339  0.00  0.00    +0.000 C 
BRANCH  14  15
ATOM     15  N   UNL     1       6.934   7.308  16.925  0.00  0.00    +0.000 NA
ATOM     16  H1  UNL     1       6.232   8.045  17.069  0.00  0.00    +0.000 HD
ATOM     17  H2  UNL     1       7.052   7.289  15.906  0.00  0.00    +0.000 HD
ENDBRANCH  14  15
BRANCH  14  18
ATOM     18  C   UNL     1       7.284   4.878  17.096  0.00  0.00    +0.000 C 
ATOM     19  O   UNL     1       7.749   4.558  16.011  0.00  0.00    +0.000 OA
BRANCH  18  20
ATOM     20  OXT UNL     1       7.598   4.226  18.246  0.00  0.00    +0.000 OA
ATOM     21  HXT UNL     1       8.527   4.476  18.480  0.00  0.00    +0.000 HD
ENDBRANCH  18  20
ENDBRANCH  14  18
ENDBRANCH  13  14
ENDBRANCH   1  13
TORSDOF 6
ENDMDL
MODEL 7
REMARK VINA RESULT:      -6.6      2.142      2.592
REMARK  Name = 
REMARK  6 active torsions:
REMARK  status: ('A' for Active; 'I' for Inactive)
REMARK    1  A    between atoms: N_1  and  CA_2
REMARK    2  A    between atoms: CA_2  and  C_3
REMARK    3  A    between atoms: CA_2  and  C_14
REMARK    4  A    between atoms: C_3  and  C_4
REMARK    5  A    between atoms: C_10  and  O_11
REMARK    6  A    between atoms: C_14  and  OXT_16
REMARK                            x       y       z     vdW  Elec       q    Type
REMARK                         _______ _______ _______ _____ _____    ______ ____
ROOT
ATOM      1  C   UNL     1       3.780   3.436  17.545  0.00  0.00    +0.000 A 
ATOM      2  C   UNL     1       3.537   2.079  17.454  0.00  0.00    +0.000 A 
ATOM      3  N   UNL     1       2.618   1.738  18.411  0.00  0.00    +0.000 N 
ATOM      4  C   UNL     1       2.253   2.844  19.138  0.00  0.00    +0.000 A 
ATOM      5  C   UNL     1       1.347   2.970  20.202  0.00  0.00    +0.000 A 
ATOM      6  C   UNL     1       1.188   4.240  20.772  0.00  0.00    +0.000 A 
ATOM      7  C   UNL     1       1.908   5.325  20.286  0.00  0.00    +0.000 A 
ATOM      8  C   UNL     1       2.806   5.189  19.223  0.00  0.00    +0.000 A 
ATOM      9  C   UNL     1       2.976   3.925  18.628  0.00  0.00    +0.000 A 
ATOM     10  H   UNL     1       2.261   0.804  18.573  0.00  0.00    +0.000 HD
ENDROOT
BRANCH   7  11
ATOM     11  O   UNL     1       1.767   6.569  20.832  0.00  0.00    +0.000 OA
ATOM     12  H   UNL     1       1.829   6.494  21.798  0.00  0.00    +0.000 HD
ENDBRANCH   7  11
BRANCH   1  13
ATOM     13  C   UNL     1       4.719   4.246  16.702  0.00  0.00    +0.000 C 
BRANCH  13  14
ATOM     14  CA  UNL     1       5.828   4.954  17.501  0.00  0.00    +0.000 C 
BRANCH  14  15
ATOM     15  N   UNL     1       5.715   6.447  17.503  0.00  0.00    +0.000 NA
ATOM     16  H1  UNL     1       5.241   6.700  18.379  0.00  0.00    +0.000 HD
ATOM     17  H2  UNL     1       5.036   6.714  16.782  0.00  0.00    +0.000 HD
ENDBRANCH  14  15
BRANCH  14  18
ATOM     18  C   UNL     1       7.201   4.574  16.921  0.00  0.00    +0.000 C 
ATOM     19  O   UNL     1       7.541   4.708  15.753  0.00  0.00    +0.000 OA
BRANCH  18  20
ATOM     20  OXT UNL     1       8.022   4.044  17.865  0.00  0.00    +0.000 OA
ATOM     21  HXT UNL     1       8.917   3.948  17.453  0.00  0.00    +0.000 HD
ENDBRANCH  18  20
ENDBRANCH  14  18
ENDBRANCH  13  14
ENDBRANCH   1  13
TORSDOF 6
ENDMDL
MODEL 8
REMARK VINA RESULT:      -6.6      1.182      1.293
REMARK  Name = 
REMARK  6 active torsions:
REMARK  status: ('A' for Active; 'I' for Inactive)
REMARK    1  A    between atoms: N_1  and  CA_2
REMARK    2  A    between atoms: CA_2  and  C_3
REMARK    3  A    between atoms: CA_2  and  C_14
REMARK    4  A    between atoms: C_3  and  C_4
REMARK    5  A    between atoms: C_10  and  O_11
REMARK    6  A    between atoms: C_14  and  OXT_16
REMARK                            x       y       z     vdW  Elec       q    Type
REMARK                         _______ _______ _______ _____ _____    ______ ____
ROOT
ATOM      1  C   UNL     1       3.677   5.782  18.098  0.00  0.00    +0.000 A 
ATOM      2  C   UNL     1       3.445   6.923  18.842  0.00  0.00    +0.000 A 
ATOM      3  N   UNL     1       2.533   6.625  19.820  0.00  0.00    +0.000 N 
ATOM      4  C   UNL     1       2.153   5.308  19.734  0.00  0.00    +0.000 A 
ATOM      5  C   UNL     1       1.255   4.570  20.521  0.00  0.00    +0.000 A 
ATOM      6  C   UNL     1       1.047   3.228  20.182  0.00  0.00    +0.000 A 
ATOM      7  C   UNL     1       1.715   2.662  19.101  0.00  0.00    +0.000 A 
ATOM      8  C   UNL     1       2.610   3.405  18.326  0.00  0.00    +0.000 A 
ATOM      9  C   UNL     1       2.844   4.754  18.653  0.00  0.00    +0.000 A 
ATOM     10  H   UNL     1       2.177   7.278  20.507  0.00  0.00    +0.000 HD
ENDROOT
BRANCH   7  11
ATOM     11  O   UNL     1       1.521   1.355  18.756  0.00  0.00    +0.000 OA
ATOM     12  H   UNL     1       0.735   1.024  19.219  0.00  0.00    +0.000 HD
ENDBRANCH   7  11
BRANCH   1  13
ATOM     13  C   UNL     1       4.596   5.639  16.923  0.00  0.00    +0.000 C 
BRANCH  13  14
ATOM     14  CA  UNL     1       6.089   5.771  17.273  0.00  0.00    +0.000 C 
BRANCH  14  15
ATOM     15  N   UNL     1       6.771   6.921  16.598  0.00  0.00    +0.000 NA
ATOM     16  H1  UNL     1       6.851   6.667  15.606  0.00  0.00    +0.000 HD
ATOM     17  H2  UNL     1       7.745   6.943  16.917  0.00  0.00    +0.000 HD
ENDBRANCH  14  15
BRANCH  14  18
ATOM     18  C   UNL     1       6.825   4.478  16.883  0.00  0.00    +0.000 C 
ATOM     19  O   UNL     1       8.021   4.266  17.034  0.00  0.00    +0.000 OA
BRANCH  18  20
ATOM     20  OXT UNL     1       5.987   3.566  16.321  0.00  0.00    +0.000 OA
ATOM     21  HXT UNL     1       6.434   2.685  16.377  0.00  0.00    +0.000 HD
ENDBRANCH  18  20
ENDBRANCH  14  18
ENDBRANCH  13  14
ENDBRANCH   1  13
TORSDOF 6
ENDMDL
MODEL 9
REMARK VINA RESULT:      -6.6      1.638      1.898
REMARK  Name = 
REMARK  6 active torsions:
REMARK  status: ('A' for Active; 'I' for Inactive)
REMARK    1  A    between atoms: N_1  and  CA_2
REMARK    2  A    between atoms: CA_2  and  C_3
REMARK    3  A    between atoms: CA_2  and  C_14
REMARK    4  A    between atoms: C_3  and  C_4
REMARK    5  A    between atoms: C_10  and  O_11
REMARK    6  A    between atoms: C_14  and  OXT_16
REMARK                            x       y       z     vdW  Elec       q    Type
REMARK                         _______ _______ _______ _____ _____    ______ ____
ROOT
ATOM      1  C   UNL     1       4.454   5.745  18.025  0.00  0.00    +0.000 A 
ATOM      2  C   UNL     1       3.450   6.694  17.993  0.00  0.00    +0.000 A 
ATOM      3  N   UNL     1       2.243   6.050  18.063  0.00  0.00    +0.000 N 
ATOM      4  C   UNL     1       2.430   4.691  18.134  0.00  0.00    +0.000 A 
ATOM      5  C   UNL     1       1.492   3.651  18.224  0.00  0.00    +0.000 A 
ATOM      6  C   UNL     1       1.980   2.339  18.264  0.00  0.00    +0.000 A 
ATOM      7  C   UNL     1       3.347   2.095  18.216  0.00  0.00    +0.000 A 
ATOM      8  C   UNL     1       4.274   3.138  18.130  0.00  0.00    +0.000 A 
ATOM      9  C   UNL     1       3.808   4.467  18.099  0.00  0.00    +0.000 A 
ATOM     10  H   UNL     1       1.337   6.502  18.053  0.00  0.00    +0.000 HD
ENDROOT
BRANCH   7  11
ATOM     11  O   UNL     1       3.840   0.821  18.251  0.00  0.00    +0.000 OA
ATOM     12  H   UNL     1       3.387   0.332  18.956  0.00  0.00    +0.000 HD
ENDBRANCH   7  11
BRANCH   1  13
ATOM     13  C   UNL     1       5.932   5.989  17.967  0.00  0.00    +0.000 C 
BRANCH  13  14
ATOM     14  CA  UNL     1       6.514   5.985  16.542  0.00  0.00    +0.000 C 
BRANCH  14  15
ATOM     15  N   UNL     1       5.538   6.406  15.487  0.00  0.00    +0.000 NA
ATOM     16  H1  UNL     1       6.054   6.405  14.599  0.00  0.00    +0.000 HD
ATOM     17  H2  UNL     1       5.321   7.398  15.635  0.00  0.00    +0.000 HD
ENDBRANCH  14  15
BRANCH  14  18
ATOM     18  C   UNL     1       7.019   4.573  16.197  0.00  0.00    +0.000 C 
ATOM     19  O   UNL     1       6.602   3.872  15.285  0.00  0.00    +0.000 OA
BRANCH  18  20
ATOM     20  OXT UNL     1       7.997   4.162  17.046  0.00  0.00    +0.000 OA
ATOM     21  HXT UNL     1       7.815   3.215  17.265  0.00  0.00    +0.000 HD
ENDBRANCH  18  20
ENDBRANCH  14  18
ENDBRANCH  13  14
ENDBRANCH   1  13
TORSDOF 6
ENDMDL
