MODEL 1
REMARK VINA RESULT:      -7.1      0.000      0.000
REMARK  Name = 
REMARK  4 active torsions:
REMARK  status: ('A' for Active; 'I' for Inactive)
REMARK    1  A    between atoms: C_2  and  C_3
REMARK    2  A    between atoms: C_3  and  N_4
REMARK    3  A    between atoms: C_13  and  O_14
REMARK    4  A    between atoms: O_14  and  C_15
REMARK                            x       y       z     vdW  Elec       q    Type
REMARK                         _______ _______ _______ _____ _____    ______ ____
ROOT
ATOM      1  N   UNL     1       5.627   5.460  16.389  0.00  0.00    +0.000 NA
ATOM      2  C   UNL     1       4.926   6.748  16.469  0.00  0.00    +0.000 C 
ATOM      3  C   UNL     1       3.822   6.626  17.500  0.00  0.00    +0.000 C 
ATOM      4  C   UNL     1       4.214   5.444  18.377  0.00  0.00    +0.000 C 
ATOM      5  C   UNL     1       3.037   4.737  19.033  0.00  0.00    +0.000 A 
ATOM      6  C   UNL     1       2.827   3.356  18.824  0.00  0.00    +0.000 A 
ATOM      7  C   UNL     1       1.798   2.693  19.511  0.00  0.00    +0.000 A 
ATOM      8  C   UNL     1       0.949   3.395  20.359  0.00  0.00    +0.000 A 
ATOM      9  C   UNL     1       1.117   4.767  20.534  0.00  0.00    +0.000 A 
ATOM     10  C   UNL     1       2.156   5.444  19.883  0.00  0.00    +0.000 A 
ATOM     11  C   UNL     1       3.712   2.558  17.901  0.00  0.00    +0.000 C 
ATOM     12  C   UNL     1       4.324   3.429  16.814  0.00  0.00    +0.000 C 
ATOM     13  C   UNL     1       5.096   4.584  17.455  0.00  0.00    +0.000 C 
ENDROOT
BRANCH  10  14
ATOM     14  O   UNL     1       2.401   6.785  20.025  0.00  0.00    +0.000 OA
ATOM     15  C   UNL     1       1.490   7.550  20.804  0.00  0.00    +0.000 C 
ENDBRANCH  10  14
BRANCH   1  16
ATOM     16  C   UNL     1       7.081   5.614  16.498  0.00  0.00    +0.000 C 
BRANCH  16  18
ATOM     17  C   UNL     1       7.957   6.562  18.662  0.00  0.00    +0.000 C 
ATOM     18  C   UNL     1       7.469   6.737  17.425  0.00  0.00    +0.000 C 
ENDBRANCH  16  18
ENDBRANCH   1  16
TORSDOF 3
ENDMDL
MODEL 2
REMARK VINA RESULT:      -6.9      2.047      3.319
REMARK  Name = 
REMARK  4 active torsions:
REMARK  status: ('A' for Active; 'I' for Inactive)
REMARK    1  A    between atoms: C_2  and  C_3
REMARK    2  A    between atoms: C_3  and  N_4
REMARK    3  A    between atoms: C_13  and  O_14
REMARK    4  A    between atoms: O_14  and  C_15
REMARK                            x       y       z     vdW  Elec       q    Type
REMARK                         _______ _______ _______ _____ _____    ______ ____
ROOT
ATOM      1  N   UNL     1       5.307   6.069  16.861  0.00  0.00    +0.000 NA
ATOM      2  C   UNL     1       6.402   5.466  17.632  0.00  0.00    +0.000 C 
ATOM      3  C   UNL     1       5.799   4.574  18.698  0.00  0.00    +0.000 C 
ATOM      4  C   UNL     1       4.389   4.259  18.214  0.00  0.00    +0.000 C 
ATOM      5  C   UNL     1       3.402   3.947  19.329  0.00  0.00    +0.000 A 
ATOM      6  C   UNL     1       2.217   4.704  19.465  0.00  0.00    +0.000 A 
ATOM      7  C   UNL     1       1.267   4.346  20.435  0.00  0.00    +0.000 A 
ATOM      8  C   UNL     1       1.505   3.284  21.298  0.00  0.00    +0.000 A 
ATOM      9  C   UNL     1       2.693   2.562  21.204  0.00  0.00    +0.000 A 
ATOM     10  C   UNL     1       3.642   2.881  20.225  0.00  0.00    +0.000 A 
ATOM     11  C   UNL     1       1.924   5.874  18.563  0.00  0.00    +0.000 C 
ATOM     12  C   UNL     1       3.202   6.511  18.033  0.00  0.00    +0.000 C 
ATOM     13  C   UNL     1       4.040   5.455  17.310  0.00  0.00    +0.000 C 
ENDROOT
BRANCH  10  14
ATOM     14  O   UNL     1       4.820   2.201  20.053  0.00  0.00    +0.000 OA
ATOM     15  C   UNL     1       5.197   1.259  21.048  0.00  0.00    +0.000 C 
ENDBRANCH  10  14
BRANCH   1  16
ATOM     16  C   UNL     1       5.495   5.909  15.416  0.00  0.00    +0.000 C 
BRANCH  16  18
ATOM     17  C   UNL     1       6.098   3.921  13.990  0.00  0.00    +0.000 C 
ATOM     18  C   UNL     1       6.301   4.682  15.076  0.00  0.00    +0.000 C 
ENDBRANCH  16  18
ENDBRANCH   1  16
TORSDOF 3
ENDMDL
MODEL 3
REMARK VINA RESULT:      -6.8      1.909      3.643
REMARK  Name = 
REMARK  4 active torsions:
REMARK  status: ('A' for Active; 'I' for Inactive)
REMARK    1  A    between atoms: C_2  and  C_3
REMARK    2  A    between atoms: C_3  and  N_4
REMARK    3  A    between atoms: C_13  and  O_14
REMARK    4  A    between atoms: O_14  and  C_15
REMARK                            x       y       z     vdW  Elec       q    Type
REMARK                         _______ _______ _______ _____ _____    ______ ____
ROOT
ATOM      1  N   UNL     1       6.746   5.591  15.909  0.00  0.00    +0.000 NA
ATOM      2  C   UNL     1       7.356   4.563  16.762  0.00  0.00    +0.000 C 
ATOM      3  C   UNL     1       6.367   4.197  17.849  0.00  0.00    +0.000 C 
ATOM      4  C   UNL     1       5.005   4.629  17.321  0.00  0.00    +0.000 C 
ATOM      5  C   UNL     1       3.992   4.961  18.407  0.00  0.00    +0.000 A 
ATOM      6  C   UNL     1       3.377   6.232  18.446  0.00  0.00    +0.000 A 
ATOM      7  C   UNL     1       2.373   6.494  19.391  0.00  0.00    +0.000 A 
ATOM      8  C   UNL     1       2.012   5.530  20.324  0.00  0.00    +0.000 A 
ATOM      9  C   UNL     1       2.647   4.289  20.325  0.00  0.00    +0.000 A 
ATOM     10  C   UNL     1       3.630   3.994  19.372  0.00  0.00    +0.000 A 
ATOM     11  C   UNL     1       3.749   7.314  17.465  0.00  0.00    +0.000 C 
ATOM     12  C   UNL     1       5.174   7.150  16.958  0.00  0.00    +0.000 C 
ATOM     13  C   UNL     1       5.341   5.763  16.336  0.00  0.00    +0.000 C 
ENDROOT
BRANCH  10  14
ATOM     14  O   UNL     1       4.279   2.790  19.294  0.00  0.00    +0.000 OA
ATOM     15  C   UNL     1       3.558   1.676  18.784  0.00  0.00    +0.000 C 
ENDBRANCH  10  14
BRANCH   1  16
ATOM     16  C   UNL     1       6.835   5.252  14.485  0.00  0.00    +0.000 C 
BRANCH  16  18
ATOM     17  C   UNL     1       5.927   3.512  12.904  0.00  0.00    +0.000 C 
ATOM     18  C   UNL     1       6.062   4.004  14.145  0.00  0.00    +0.000 C 
ENDBRANCH  16  18
ENDBRANCH   1  16
TORSDOF 3
ENDMDL
MODEL 4
REMARK VINA RESULT:      -6.5      0.998      1.615
REMARK  Name = 
REMARK  4 active torsions:
REMARK  status: ('A' for Active; 'I' for Inactive)
REMARK    1  A    between atoms: C_2  and  C_3
REMARK    2  A    between atoms: C_3  and  N_4
REMARK    3  A    between atoms: C_13  and  O_14
REMARK    4  A    between atoms: O_14  and  C_15
REMARK                            x       y       z     vdW  Elec       q    Type
REMARK                         _______ _______ _______ _____ _____    ______ ____
ROOT
ATOM      1  N   UNL     1       5.286   5.223  16.051  0.00  0.00    +0.000 NA
ATOM      2  C   UNL     1       4.747   6.576  16.243  0.00  0.00    +0.000 C 
ATOM      3  C   UNL     1       3.782   6.542  17.410  0.00  0.00    +0.000 C 
ATOM      4  C   UNL     1       4.154   5.300  18.209  0.00  0.00    +0.000 C 
ATOM      5  C   UNL     1       3.003   4.704  19.007  0.00  0.00    +0.000 A 
ATOM      6  C   UNL     1       2.618   3.360  18.807  0.00  0.00    +0.000 A 
ATOM      7  C   UNL     1       1.622   2.791  19.616  0.00  0.00    +0.000 A 
ATOM      8  C   UNL     1       0.974   3.553  20.580  0.00  0.00    +0.000 A 
ATOM      9  C   UNL     1       1.313   4.894  20.752  0.00  0.00    +0.000 A 
ATOM     10  C   UNL     1       2.325   5.475  19.977  0.00  0.00    +0.000 A 
ATOM     11  C   UNL     1       3.280   2.499  17.763  0.00  0.00    +0.000 C 
ATOM     12  C   UNL     1       3.835   3.332  16.616  0.00  0.00    +0.000 C 
ATOM     13  C   UNL     1       4.807   4.378  17.165  0.00  0.00    +0.000 C 
ENDROOT
BRANCH  10  14
ATOM     14  O   UNL     1       2.732   6.778  20.105  0.00  0.00    +0.000 OA
ATOM     15  C   UNL     1       1.745   7.759  20.392  0.00  0.00    +0.000 C 
ENDBRANCH  10  14
BRANCH   1  16
ATOM     16  C   UNL     1       6.750   5.218  15.966  0.00  0.00    +0.000 C 
BRANCH  16  18
ATOM     17  C   UNL     1       6.488   4.070  13.738  0.00  0.00    +0.000 C 
ATOM     18  C   UNL     1       7.244   4.731  14.629  0.00  0.00    +0.000 C 
ENDBRANCH  16  18
ENDBRANCH   1  16
TORSDOF 3
ENDMDL
MODEL 5
REMARK VINA RESULT:      -6.3      2.275      5.366
REMARK  Name = 
REMARK  4 active torsions:
REMARK  status: ('A' for Active; 'I' for Inactive)
REMARK    1  A    between atoms: C_2  and  C_3
REMARK    2  A    between atoms: C_3  and  N_4
REMARK    3  A    between atoms: C_13  and  O_14
REMARK    4  A    between atoms: O_14  and  C_15
REMARK                            x       y       z     vdW  Elec       q    Type
REMARK                         _______ _______ _______ _____ _____    ______ ____
ROOT
ATOM      1  N   UNL     1       2.516   2.634  20.051  0.00  0.00    +0.000 NA
ATOM      2  C   UNL     1       3.755   2.321  20.775  0.00  0.00    +0.000 C 
ATOM      3  C   UNL     1       4.922   2.863  19.976  0.00  0.00    +0.000 C 
ATOM      4  C   UNL     1       4.330   3.930  19.065  0.00  0.00    +0.000 C 
ATOM      5  C   UNL     1       5.112   4.155  17.778  0.00  0.00    +0.000 A 
ATOM      6  C   UNL     1       4.479   4.012  16.524  0.00  0.00    +0.000 A 
ATOM      7  C   UNL     1       5.180   4.316  15.347  0.00  0.00    +0.000 A 
ATOM      8  C   UNL     1       6.512   4.710  15.401  0.00  0.00    +0.000 A 
ATOM      9  C   UNL     1       7.161   4.806  16.631  0.00  0.00    +0.000 A 
ATOM     10  C   UNL     1       6.472   4.537  17.820  0.00  0.00    +0.000 A 
ATOM     11  C   UNL     1       3.041   3.572  16.415  0.00  0.00    +0.000 C 
ATOM     12  C   UNL     1       2.621   2.721  17.605  0.00  0.00    +0.000 C 
ATOM     13  C   UNL     1       2.863   3.496  18.902  0.00  0.00    +0.000 C 
ENDROOT
BRANCH  10  14
ATOM     14  O   UNL     1       7.033   4.635  19.067  0.00  0.00    +0.000 OA
ATOM     15  C   UNL     1       7.820   5.783  19.355  0.00  0.00    +0.000 C 
ENDBRANCH  10  14
BRANCH   1  16
ATOM     16  C   UNL     1       1.517   3.271  20.914  0.00  0.00    +0.000 C 
BRANCH  16  18
ATOM     17  C   UNL     1       1.550   5.789  20.837  0.00  0.00    +0.000 C 
ATOM     18  C   UNL     1       1.081   4.614  20.390  0.00  0.00    +0.000 C 
ENDBRANCH  16  18
ENDBRANCH   1  16
TORSDOF 3
ENDMDL
MODEL 6
REMARK VINA RESULT:      -6.1      1.176      1.552
REMARK  Name = 
REMARK  4 active torsions:
REMARK  status: ('A' for Active; 'I' for Inactive)
REMARK    1  A    between atoms: C_2  and  C_3
REMARK    2  A    between atoms: C_3  and  N_4
REMARK    3  A    between atoms: C_13  and  O_14
REMARK    4  A    between atoms: O_14  and  C_15
REMARK                            x       y       z     vdW  Elec       q    Type
REMARK                         _______ _______ _______ _____ _____    ______ ____
ROOT
ATOM      1  N   UNL     1       6.269   6.566  16.752  0.00  0.00    +0.000 NA
ATOM      2  C   UNL     1       5.252   7.602  16.970  0.00  0.00    +0.000 C 
ATOM      3  C   UNL     1       4.010   6.941  17.532  0.00  0.00    +0.000 C 
ATOM      4  C   UNL     1       4.486   5.619  18.120  0.00  0.00    +0.000 C 
ATOM      5  C   UNL     1       3.420   4.533  18.156  0.00  0.00    +0.000 A 
ATOM      6  C   UNL     1       3.641   3.294  17.515  0.00  0.00    +0.000 A 
ATOM      7  C   UNL     1       2.695   2.265  17.637  0.00  0.00    +0.000 A 
ATOM      8  C   UNL     1       1.515   2.470  18.342  0.00  0.00    +0.000 A 
ATOM      9  C   UNL     1       1.265   3.705  18.937  0.00  0.00    +0.000 A 
ATOM     10  C   UNL     1       2.209   4.737  18.855  0.00  0.00    +0.000 A 
ATOM     11  C   UNL     1       4.898   3.031  16.726  0.00  0.00    +0.000 C 
ATOM     12  C   UNL     1       5.493   4.317  16.169  0.00  0.00    +0.000 C 
ATOM     13  C   UNL     1       5.756   5.298  17.313  0.00  0.00    +0.000 C 
ENDROOT
BRANCH  10  14
ATOM     14  O   UNL     1       2.046   5.968  19.435  0.00  0.00    +0.000 OA
ATOM     15  C   UNL     1       1.692   6.015  20.810  0.00  0.00    +0.000 C 
ENDBRANCH  10  14
BRANCH   1  16
ATOM     16  C   UNL     1       7.561   6.928  17.343  0.00  0.00    +0.000 C 
BRANCH  16  18
ATOM     17  C   UNL     1       8.533   8.981  18.434  0.00  0.00    +0.000 C 
ATOM     18  C   UNL     1       7.701   8.414  17.547  0.00  0.00    +0.000 C 
ENDBRANCH  16  18
ENDBRANCH   1  16
TORSDOF 3
ENDMDL
MODEL 7
REMARK VINA RESULT:      -5.9      1.705      3.385
REMARK  Name = 
REMARK  4 active torsions:
REMARK  status: ('A' for Active; 'I' for Inactive)
REMARK    1  A    between atoms: C_2  and  C_3
REMARK    2  A    between atoms: C_3  and  N_4
REMARK    3  A    between atoms: C_13  and  O_14
REMARK    4  A    between atoms: O_14  and  C_15
REMARK                            x       y       z     vdW  Elec       q    Type
REMARK                         _______ _______ _______ _____ _____    ______ ____
ROOT
ATOM      1  N   UNL     1       5.362   4.727  17.020  0.00  0.00    +0.000 NA
ATOM      2  C   UNL     1       5.637   4.052  18.294  0.00  0.00    +0.000 C 
ATOM      3  C   UNL     1       4.642   4.551  19.322  0.00  0.00    +0.000 C 
ATOM      4  C   UNL     1       3.479   5.117  18.518  0.00  0.00    +0.000 C 
ATOM      5  C   UNL     1       2.695   6.205  19.238  0.00  0.00    +0.000 A 
ATOM      6  C   UNL     1       2.545   7.482  18.652  0.00  0.00    +0.000 A 
ATOM      7  C   UNL     1       1.740   8.447  19.276  0.00  0.00    +0.000 A 
ATOM      8  C   UNL     1       1.126   8.175  20.493  0.00  0.00    +0.000 A 
ATOM      9  C   UNL     1       1.308   6.936  21.103  0.00  0.00    +0.000 A 
ATOM     10  C   UNL     1       2.082   5.946  20.485  0.00  0.00    +0.000 A 
ATOM     11  C   UNL     1       3.205   7.828  17.342  0.00  0.00    +0.000 C 
ATOM     12  C   UNL     1       4.463   7.004  17.110  0.00  0.00    +0.000 C 
ATOM     13  C   UNL     1       4.121   5.514  17.178  0.00  0.00    +0.000 C 
ENDROOT
BRANCH  10  14
ATOM     14  O   UNL     1       2.285   4.696  21.009  0.00  0.00    +0.000 OA
ATOM     15  C   UNL     1       1.237   3.744  20.884  0.00  0.00    +0.000 C 
ENDBRANCH  10  14
BRANCH   1  16
ATOM     16  C   UNL     1       5.255   3.780  15.905  0.00  0.00    +0.000 C 
BRANCH  16  18
ATOM     17  C   UNL     1       7.194   4.940  14.789  0.00  0.00    +0.000 C 
ATOM     18  C   UNL     1       6.075   4.204  14.714  0.00  0.00    +0.000 C 
ENDBRANCH  16  18
ENDBRANCH   1  16
TORSDOF 3
ENDMDL
MODEL 8
REMARK VINA RESULT:      -5.8      2.036      3.098
REMARK  Name = 
REMARK  4 active torsions:
REMARK  status: ('A' for Active; 'I' for Inactive)
REMARK    1  A    between atoms: C_2  and  C_3
REMARK    2  A    between atoms: C_3  and  N_4
REMARK    3  A    between atoms: C_13  and  O_14
REMARK    4  A    between atoms: O_14  and  C_15
REMARK                            x       y       z     vdW  Elec       q    Type
REMARK                         _______ _______ _______ _____ _____    ______ ____
ROOT
ATOM      1  N   UNL     1       5.739   6.542  18.100  0.00  0.00    +0.000 NA
ATOM      2  C   UNL     1       6.428   5.703  19.088  0.00  0.00    +0.000 C 
ATOM      3  C   UNL     1       5.554   4.500  19.383  0.00  0.00    +0.000 C 
ATOM      4  C   UNL     1       4.612   4.381  18.193  0.00  0.00    +0.000 C 
ATOM      5  C   UNL     1       3.285   3.708  18.513  0.00  0.00    +0.000 A 
ATOM      6  C   UNL     1       2.067   4.378  18.262  0.00  0.00    +0.000 A 
ATOM      7  C   UNL     1       0.848   3.713  18.468  0.00  0.00    +0.000 A 
ATOM      8  C   UNL     1       0.827   2.416  18.966  0.00  0.00    +0.000 A 
ATOM      9  C   UNL     1       2.022   1.764  19.263  0.00  0.00    +0.000 A 
ATOM     10  C   UNL     1       3.251   2.396  19.036  0.00  0.00    +0.000 A 
ATOM     11  C   UNL     1       2.040   5.791  17.738  0.00  0.00    +0.000 C 
ATOM     12  C   UNL     1       3.289   6.564  18.137  0.00  0.00    +0.000 C 
ATOM     13  C   UNL     1       4.532   5.818  17.647  0.00  0.00    +0.000 C 
ENDROOT
BRANCH  10  14
ATOM     14  O   UNL     1       4.467   1.812  19.278  0.00  0.00    +0.000 OA
ATOM     15  C   UNL     1       4.791   1.478  20.621  0.00  0.00    +0.000 C 
ENDBRANCH  10  14
BRANCH   1  16
ATOM     16  C   UNL     1       6.607   6.892  16.971  0.00  0.00    +0.000 C 
BRANCH  16  18
ATOM     17  C   UNL     1       7.925   8.870  17.808  0.00  0.00    +0.000 C 
ATOM     18  C   UNL     1       7.867   7.589  17.414  0.00  0.00    +0.000 C 
ENDBRANCH  16  18
ENDBRANCH   1  16
TORSDOF 3
ENDMDL
MODEL 9
REMARK VINA RESULT:      -5.8      1.074      1.321
REMARK  Name = 
REMARK  4 active torsions:
REMARK  status: ('A' for Active; 'I' for Inactive)
REMARK    1  A    between atoms: C_2  and  C_3
REMARK    2  A    between atoms: C_3  and  N_4
REMARK    3  A    between atoms: C_13  and  O_14
REMARK    4  A    between atoms: O_14  and  C_15
REMARK                            x       y       z     vdW  Elec       q    Type
REMARK                         _______ _______ _______ _____ _____    ______ ____
ROOT
ATOM      1  N   UNL     1       5.601   6.523  16.785  0.00  0.00    +0.000 NA
ATOM      2  C   UNL     1       4.563   7.507  17.116  0.00  0.00    +0.000 C 
ATOM      3  C   UNL     1       3.404   6.775  17.763  0.00  0.00    +0.000 C 
ATOM      4  C   UNL     1       3.986   5.463  18.272  0.00  0.00    +0.000 C 
ATOM      5  C   UNL     1       2.975   4.329  18.369  0.00  0.00    +0.000 A 
ATOM      6  C   UNL     1       3.195   3.117  17.677  0.00  0.00    +0.000 A 
ATOM      7  C   UNL     1       2.308   2.043  17.850  0.00  0.00    +0.000 A 
ATOM      8  C   UNL     1       1.186   2.177  18.659  0.00  0.00    +0.000 A 
ATOM      9  C   UNL     1       0.934   3.385  19.306  0.00  0.00    +0.000 A 
ATOM     10  C   UNL     1       1.821   4.460  19.173  0.00  0.00    +0.000 A 
ATOM     11  C   UNL     1       4.389   2.931  16.777  0.00  0.00    +0.000 C 
ATOM     12  C   UNL     1       4.877   4.256  16.207  0.00  0.00    +0.000 C 
ATOM     13  C   UNL     1       5.195   5.220  17.352  0.00  0.00    +0.000 C 
ENDROOT
BRANCH  10  14
ATOM     14  O   UNL     1       1.655   5.669  19.798  0.00  0.00    +0.000 OA
ATOM     15  C   UNL     1       1.796   5.712  21.212  0.00  0.00    +0.000 C 
ENDBRANCH  10  14
BRANCH   1  16
ATOM     16  C   UNL     1       6.923   6.930  17.274  0.00  0.00    +0.000 C 
BRANCH  16  18
ATOM     17  C   UNL     1       7.894   5.885  19.351  0.00  0.00    +0.000 C 
ATOM     18  C   UNL     1       7.612   5.831  18.041  0.00  0.00    +0.000 C 
ENDBRANCH  16  18
ENDBRANCH   1  16
TORSDOF 3
ENDMDL
