MODEL 1
REMARK VINA RESULT:      -8.5      0.000      0.000
REMARK  Name = 
REMARK  7 active torsions:
REMARK  status: ('A' for Active; 'I' for Inactive)
REMARK    1  A    between atoms: C_1  and  C_2
REMARK    2  A    between atoms: C_6  and  C_7
REMARK    3  A    between atoms: C_10  and  C_11
REMARK    4  A    between atoms: C_15  and  C_16
REMARK    5  A    between atoms: C_19  and  C_20
REMARK    6  A    between atoms: C_20  and  C_21
REMARK    7  A    between atoms: C_20  and  C_22
REMARK                            x       y       z     vdW  Elec       q    Type
REMARK                         _______ _______ _______ _____ _____    ______ ____
ROOT
ATOM      1  C   UNL     1       2.401   2.520  19.969  0.00  0.00    +0.000 C 
ATOM      2  C   UNL     1       3.746   3.137  19.662  0.00  0.00    +0.000 C 
ATOM      3  O   UNL     1       4.775   2.464  19.642  0.00  0.00    +0.000 OA
ATOM      4  N   UNL     1       3.706   4.484  19.388  0.00  0.00    +0.000 N 
ATOM      5  N   UNL     1       2.594   5.235  19.601  0.00  0.00    +0.000 NA
ATOM      6  C   UNL     1       2.978   6.444  19.350  0.00  0.00    +0.000 C 
ATOM      7  O   UNL     1       4.277   6.635  18.997  0.00  0.00    +0.000 OA
ATOM      8  C   UNL     1       4.826   5.307  18.988  0.00  0.00    +0.000 C 
ENDROOT
BRANCH   6   9
ATOM      9  C   UNL     1       2.116   7.630  19.398  0.00  0.00    +0.000 A 
ATOM     10  C   UNL     1       1.950   8.370  18.218  0.00  0.00    +0.000 A 
ATOM     11  C   UNL     1       1.196   9.540  18.221  0.00  0.00    +0.000 A 
ATOM     12  C   UNL     1       0.596   9.984  19.410  0.00  0.00    +0.000 A 
ATOM     13  C   UNL     1      -0.186  11.264  19.430  0.00  0.00    +0.000 C 
ATOM     14  C   UNL     1       0.750   9.232  20.579  0.00  0.00    +0.000 A 
ATOM     15  C   UNL     1       1.508   8.057  20.578  0.00  0.00    +0.000 A 
ENDBRANCH   6   9
BRANCH   8  16
ATOM     16  C   UNL     1       5.374   4.965  17.615  0.00  0.00    +0.000 A 
ATOM     17  C   UNL     1       4.512   4.896  16.509  0.00  0.00    +0.000 A 
ATOM     18  C   UNL     1       4.996   4.578  15.234  0.00  0.00    +0.000 A 
ATOM     19  C   UNL     1       6.357   4.323  15.026  0.00  0.00    +0.000 A 
ATOM     20  C   UNL     1       7.223   4.419  16.126  0.00  0.00    +0.000 A 
ATOM     21  C   UNL     1       6.740   4.742  17.397  0.00  0.00    +0.000 A 
BRANCH  19  22
ATOM     22  C   UNL     1       6.873   3.958  13.643  0.00  0.00    +0.000 C 
ATOM     23  C   UNL     1       5.745   3.482  12.723  0.00  0.00    +0.000 C 
ATOM     24  C   UNL     1       7.622   5.123  12.986  0.00  0.00    +0.000 C 
ENDBRANCH  19  22
ENDBRANCH   8  16
TORSDOF 3
ENDMDL
MODEL 2
REMARK VINA RESULT:      -8.5      0.593      1.149
REMARK  Name = 
REMARK  7 active torsions:
REMARK  status: ('A' for Active; 'I' for Inactive)
REMARK    1  A    between atoms: C_1  and  C_2
REMARK    2  A    between atoms: C_6  and  C_7
REMARK    3  A    between atoms: C_10  and  C_11
REMARK    4  A    between atoms: C_15  and  C_16
REMARK    5  A    between atoms: C_19  and  C_20
REMARK    6  A    between atoms: C_20  and  C_21
REMARK    7  A    between atoms: C_20  and  C_22
REMARK                            x       y       z     vdW  Elec       q    Type
REMARK                         _______ _______ _______ _____ _____    ______ ____
ROOT
ATOM      1  C   UNL     1       1.671   2.393  18.896  0.00  0.00    +0.000 C 
ATOM      2  C   UNL     1       3.120   2.816  18.821  0.00  0.00    +0.000 C 
ATOM      3  O   UNL     1       4.031   1.991  18.785  0.00  0.00    +0.000 OA
ATOM      4  N   UNL     1       3.315   4.176  18.771  0.00  0.00    +0.000 N 
ATOM      5  N   UNL     1       2.311   5.062  19.002  0.00  0.00    +0.000 NA
ATOM      6  C   UNL     1       2.899   6.214  18.992  0.00  0.00    +0.000 C 
ATOM      7  O   UNL     1       4.244   6.235  18.797  0.00  0.00    +0.000 OA
ATOM      8  C   UNL     1       4.586   4.851  18.619  0.00  0.00    +0.000 C 
ENDROOT
BRANCH   6   9
ATOM      9  C   UNL     1       2.225   7.506  19.155  0.00  0.00    +0.000 A 
ATOM     10  C   UNL     1       1.690   7.814  20.415  0.00  0.00    +0.000 A 
ATOM     11  C   UNL     1       0.984   8.996  20.610  0.00  0.00    +0.000 A 
ATOM     12  C   UNL     1       0.803   9.890  19.543  0.00  0.00    +0.000 A 
ATOM     13  C   UNL     1       0.010  11.148  19.736  0.00  0.00    +0.000 C 
ATOM     14  C   UNL     1       1.355   9.587  18.294  0.00  0.00    +0.000 A 
ATOM     15  C   UNL     1       2.065   8.398  18.096  0.00  0.00    +0.000 A 
ENDBRANCH   6   9
BRANCH   8  16
ATOM     16  C   UNL     1       5.234   4.630  17.265  0.00  0.00    +0.000 A 
ATOM     17  C   UNL     1       4.437   4.450  16.123  0.00  0.00    +0.000 A 
ATOM     18  C   UNL     1       5.016   4.240  14.865  0.00  0.00    +0.000 A 
ATOM     19  C   UNL     1       6.407   4.209  14.710  0.00  0.00    +0.000 A 
ATOM     20  C   UNL     1       7.203   4.416  15.847  0.00  0.00    +0.000 A 
ATOM     21  C   UNL     1       6.626   4.632  17.102  0.00  0.00    +0.000 A 
BRANCH  19  22
ATOM     22  C   UNL     1       7.027   3.961  13.344  0.00  0.00    +0.000 C 
ATOM     23  C   UNL     1       5.997   3.442  12.338  0.00  0.00    +0.000 C 
ATOM     24  C   UNL     1       7.710   5.216  12.790  0.00  0.00    +0.000 C 
ENDBRANCH  19  22
ENDBRANCH   8  16
TORSDOF 3
ENDMDL
MODEL 3
REMARK VINA RESULT:      -8.5      0.451      1.449
REMARK  Name = 
REMARK  7 active torsions:
REMARK  status: ('A' for Active; 'I' for Inactive)
REMARK    1  A    between atoms: C_1  and  C_2
REMARK    2  A    between atoms: C_6  and  C_7
REMARK    3  A    between atoms: C_10  and  C_11
REMARK    4  A    between atoms: C_15  and  C_16
REMARK    5  A    between atoms: C_19  and  C_20
REMARK    6  A    between atoms: C_20  and  C_21
REMARK    7  A    between atoms: C_20  and  C_22
REMARK                            x       y       z     vdW  Elec       q    Type
REMARK                         _______ _______ _______ _____ _____    ______ ____
ROOT
ATOM      1  C   UNL     1       1.971   2.351  19.899  0.00  0.00    +0.000 C 
ATOM      2  C   UNL     1       3.364   2.887  19.661  0.00  0.00    +0.000 C 
ATOM      3  O   UNL     1       4.341   2.141  19.607  0.00  0.00    +0.000 OA
ATOM      4  N   UNL     1       3.430   4.249  19.488  0.00  0.00    +0.000 N 
ATOM      5  N   UNL     1       2.372   5.064  19.739  0.00  0.00    +0.000 NA
ATOM      6  C   UNL     1       2.849   6.256  19.586  0.00  0.00    +0.000 C 
ATOM      7  O   UNL     1       4.166   6.374  19.269  0.00  0.00    +0.000 OA
ATOM      8  C   UNL     1       4.616   5.013  19.170  0.00  0.00    +0.000 C 
ENDROOT
BRANCH   6   9
ATOM      9  C   UNL     1       2.076   7.496  19.709  0.00  0.00    +0.000 A 
ATOM     10  C   UNL     1       1.411   7.739  20.919  0.00  0.00    +0.000 A 
ATOM     11  C   UNL     1       0.610   8.867  21.069  0.00  0.00    +0.000 A 
ATOM     12  C   UNL     1       0.465   9.770  20.005  0.00  0.00    +0.000 A 
ATOM     13  C   UNL     1      -0.427  10.968  20.145  0.00  0.00    +0.000 C 
ATOM     14  C   UNL     1       1.145   9.533  18.806  0.00  0.00    +0.000 A 
ATOM     15  C   UNL     1       1.950   8.399  18.654  0.00  0.00    +0.000 A 
ENDBRANCH   6   9
BRANCH   8  16
ATOM     16  C   UNL     1       5.167   4.732  17.784  0.00  0.00    +0.000 A 
ATOM     17  C   UNL     1       6.548   4.818  17.543  0.00  0.00    +0.000 A 
ATOM     18  C   UNL     1       7.076   4.566  16.271  0.00  0.00    +0.000 A 
ATOM     19  C   UNL     1       6.241   4.216  15.203  0.00  0.00    +0.000 A 
ATOM     20  C   UNL     1       4.865   4.103  15.450  0.00  0.00    +0.000 A 
ATOM     21  C   UNL     1       4.338   4.349  16.722  0.00  0.00    +0.000 A 
BRANCH  19  22
ATOM     22  C   UNL     1       6.820   3.964  13.819  0.00  0.00    +0.000 C 
ATOM     23  C   UNL     1       5.729   3.631  12.798  0.00  0.00    +0.000 C 
ATOM     24  C   UNL     1       7.654   5.150  13.323  0.00  0.00    +0.000 C 
ENDBRANCH  19  22
ENDBRANCH   8  16
TORSDOF 3
ENDMDL
MODEL 4
REMARK VINA RESULT:      -7.9      1.051      1.647
REMARK  Name = 
REMARK  7 active torsions:
REMARK  status: ('A' for Active; 'I' for Inactive)
REMARK    1  A    between atoms: C_1  and  C_2
REMARK    2  A    between atoms: C_6  and  C_7
REMARK    3  A    between atoms: C_10  and  C_11
REMARK    4  A    between atoms: C_15  and  C_16
REMARK    5  A    between atoms: C_19  and  C_20
REMARK    6  A    between atoms: C_20  and  C_21
REMARK    7  A    between atoms: C_20  and  C_22
REMARK                            x       y       z     vdW  Elec       q    Type
REMARK                         _______ _______ _______ _____ _____    ______ ____
ROOT
ATOM      1  C   UNL     1       1.170   2.505  18.633  0.00  0.00    +0.000 C 
ATOM      2  C   UNL     1       2.637   2.866  18.573  0.00  0.00    +0.000 C 
ATOM      3  O   UNL     1       3.503   2.015  18.379  0.00  0.00    +0.000 OA
ATOM      4  N   UNL     1       2.901   4.206  18.728  0.00  0.00    +0.000 N 
ATOM      5  N   UNL     1       1.951   5.092  19.128  0.00  0.00    +0.000 NA
ATOM      6  C   UNL     1       2.597   6.202  19.275  0.00  0.00    +0.000 C 
ATOM      7  O   UNL     1       3.936   6.190  19.039  0.00  0.00    +0.000 OA
ATOM      8  C   UNL     1       4.200   4.836  18.638  0.00  0.00    +0.000 C 
ENDROOT
BRANCH   6   9
ATOM      9  C   UNL     1       1.996   7.483  19.660  0.00  0.00    +0.000 A 
ATOM     10  C   UNL     1       1.527   7.620  20.975  0.00  0.00    +0.000 A 
ATOM     11  C   UNL     1       0.889   8.790  21.377  0.00  0.00    +0.000 A 
ATOM     12  C   UNL     1       0.712   9.841  20.464  0.00  0.00    +0.000 A 
ATOM     13  C   UNL     1      -0.009  11.089  20.878  0.00  0.00    +0.000 C 
ATOM     14  C   UNL     1       1.198   9.706  19.159  0.00  0.00    +0.000 A 
ATOM     15  C   UNL     1       1.839   8.531  18.754  0.00  0.00    +0.000 A 
ENDBRANCH   6   9
BRANCH   8  16
ATOM     16  C   UNL     1       4.799   4.799  17.244  0.00  0.00    +0.000 A 
ATOM     17  C   UNL     1       4.799   5.954  16.445  0.00  0.00    +0.000 A 
ATOM     18  C   UNL     1       5.343   5.940  15.154  0.00  0.00    +0.000 A 
ATOM     19  C   UNL     1       5.907   4.772  14.626  0.00  0.00    +0.000 A 
ATOM     20  C   UNL     1       5.932   3.626  15.434  0.00  0.00    +0.000 A 
ATOM     21  C   UNL     1       5.395   3.642  16.725  0.00  0.00    +0.000 A 
BRANCH  19  22
ATOM     22  C   UNL     1       6.478   4.759  13.217  0.00  0.00    +0.000 C 
ATOM     23  C   UNL     1       7.958   5.150  13.199  0.00  0.00    +0.000 C 
ATOM     24  C   UNL     1       6.290   3.399  12.536  0.00  0.00    +0.000 C 
ENDBRANCH  19  22
ENDBRANCH   8  16
TORSDOF 3
ENDMDL
MODEL 5
REMARK VINA RESULT:      -7.8      0.936      1.214
REMARK  Name = 
REMARK  7 active torsions:
REMARK  status: ('A' for Active; 'I' for Inactive)
REMARK    1  A    between atoms: C_1  and  C_2
REMARK    2  A    between atoms: C_6  and  C_7
REMARK    3  A    between atoms: C_10  and  C_11
REMARK    4  A    between atoms: C_15  and  C_16
REMARK    5  A    between atoms: C_19  and  C_20
REMARK    6  A    between atoms: C_20  and  C_21
REMARK    7  A    between atoms: C_20  and  C_22
REMARK                            x       y       z     vdW  Elec       q    Type
REMARK                         _______ _______ _______ _____ _____    ______ ____
ROOT
ATOM      1  C   UNL     1       1.468   2.397  19.008  0.00  0.00    +0.000 C 
ATOM      2  C   UNL     1       2.898   2.866  18.874  0.00  0.00    +0.000 C 
ATOM      3  O   UNL     1       3.822   2.075  18.692  0.00  0.00    +0.000 OA
ATOM      4  N   UNL     1       3.060   4.229  18.946  0.00  0.00    +0.000 N 
ATOM      5  N   UNL     1       2.057   5.060  19.333  0.00  0.00    +0.000 NA
ATOM      6  C   UNL     1       2.617   6.224  19.396  0.00  0.00    +0.000 C 
ATOM      7  O   UNL     1       3.944   6.302  19.110  0.00  0.00    +0.000 OA
ATOM      8  C   UNL     1       4.301   4.952  18.772  0.00  0.00    +0.000 C 
ENDROOT
BRANCH   6   9
ATOM      9  C   UNL     1       1.930   7.474  19.734  0.00  0.00    +0.000 A 
ATOM     10  C   UNL     1       1.846   8.466  18.746  0.00  0.00    +0.000 A 
ATOM     11  C   UNL     1       1.262   9.696  19.032  0.00  0.00    +0.000 A 
ATOM     12  C   UNL     1       0.753   9.950  20.315  0.00  0.00    +0.000 A 
ATOM     13  C   UNL     1       0.157  11.287  20.641  0.00  0.00    +0.000 C 
ATOM     14  C   UNL     1       0.823   8.950  21.291  0.00  0.00    +0.000 A 
ATOM     15  C   UNL     1       1.409   7.713  21.005  0.00  0.00    +0.000 A 
ENDBRANCH   6   9
BRANCH   8  16
ATOM     16  C   UNL     1       4.853   4.882  17.360  0.00  0.00    +0.000 A 
ATOM     17  C   UNL     1       4.831   6.020  16.538  0.00  0.00    +0.000 A 
ATOM     18  C   UNL     1       5.332   5.976  15.230  0.00  0.00    +0.000 A 
ATOM     19  C   UNL     1       5.874   4.795  14.708  0.00  0.00    +0.000 A 
ATOM     20  C   UNL     1       5.922   3.666  15.540  0.00  0.00    +0.000 A 
ATOM     21  C   UNL     1       5.427   3.712  16.847  0.00  0.00    +0.000 A 
BRANCH  19  22
ATOM     22  C   UNL     1       6.398   4.749  13.282  0.00  0.00    +0.000 C 
ATOM     23  C   UNL     1       7.882   5.118  13.208  0.00  0.00    +0.000 C 
ATOM     24  C   UNL     1       6.169   3.381  12.631  0.00  0.00    +0.000 C 
ENDBRANCH  19  22
ENDBRANCH   8  16
TORSDOF 3
ENDMDL
MODEL 6
REMARK VINA RESULT:      -7.7      0.968      1.147
REMARK  Name = 
REMARK  7 active torsions:
REMARK  status: ('A' for Active; 'I' for Inactive)
REMARK    1  A    between atoms: C_1  and  C_2
REMARK    2  A    between atoms: C_6  and  C_7
REMARK    3  A    between atoms: C_10  and  C_11
REMARK    4  A    between atoms: C_15  and  C_16
REMARK    5  A    between atoms: C_19  and  C_20
REMARK    6  A    between atoms: C_20  and  C_21
REMARK    7  A    between atoms: C_20  and  C_22
REMARK                            x       y       z     vdW  Elec       q    Type
REMARK                         _______ _______ _______ _____ _____    ______ ____
ROOT
ATOM      1  C   UNL     1       1.222   2.702  18.742  0.00  0.00    +0.000 C 
ATOM      2  C   UNL     1       2.689   3.052  18.662  0.00  0.00    +0.000 C 
ATOM      3  O   UNL     1       3.559   2.183  18.622  0.00  0.00    +0.000 OA
ATOM      4  N   UNL     1       2.952   4.401  18.613  0.00  0.00    +0.000 N 
ATOM      5  N   UNL     1       1.994   5.336  18.848  0.00  0.00    +0.000 NA
ATOM      6  C   UNL     1       2.639   6.457  18.837  0.00  0.00    +0.000 C 
ATOM      7  O   UNL     1       3.982   6.412  18.637  0.00  0.00    +0.000 OA
ATOM      8  C   UNL     1       4.254   5.012  18.457  0.00  0.00    +0.000 C 
ENDROOT
BRANCH   6   9
ATOM      9  C   UNL     1       2.030   7.781  19.004  0.00  0.00    +0.000 A 
ATOM     10  C   UNL     1       2.033   8.650  17.903  0.00  0.00    +0.000 A 
ATOM     11  C   UNL     1       1.528   9.941  18.023  0.00  0.00    +0.000 A 
ATOM     12  C   UNL     1       1.013  10.380  19.253  0.00  0.00    +0.000 A 
ATOM     13  C   UNL     1       0.502  11.783  19.401  0.00  0.00    +0.000 C 
ATOM     14  C   UNL     1       0.995   9.503  20.342  0.00  0.00    +0.000 A 
ATOM     15  C   UNL     1       1.503   8.205  20.223  0.00  0.00    +0.000 A 
ENDBRANCH   6   9
BRANCH   8  16
ATOM     16  C   UNL     1       4.885   4.761  17.099  0.00  0.00    +0.000 A 
ATOM     17  C   UNL     1       5.373   3.485  16.775  0.00  0.00    +0.000 A 
ATOM     18  C   UNL     1       5.962   3.232  15.529  0.00  0.00    +0.000 A 
ATOM     19  C   UNL     1       6.077   4.246  14.571  0.00  0.00    +0.000 A 
ATOM     20  C   UNL     1       5.565   5.514  14.885  0.00  0.00    +0.000 A 
ATOM     21  C   UNL     1       4.971   5.764  16.126  0.00  0.00    +0.000 A 
BRANCH  19  22
ATOM     22  C   UNL     1       6.736   3.969  13.229  0.00  0.00    +0.000 C 
ATOM     23  C   UNL     1       5.724   3.487  12.186  0.00  0.00    +0.000 C 
ATOM     24  C   UNL     1       7.487   5.195  12.696  0.00  0.00    +0.000 C 
ENDBRANCH  19  22
ENDBRANCH   8  16
TORSDOF 3
ENDMDL
MODEL 7
REMARK VINA RESULT:      -7.6      1.057      1.437
REMARK  Name = 
REMARK  7 active torsions:
REMARK  status: ('A' for Active; 'I' for Inactive)
REMARK    1  A    between atoms: C_1  and  C_2
REMARK    2  A    between atoms: C_6  and  C_7
REMARK    3  A    between atoms: C_10  and  C_11
REMARK    4  A    between atoms: C_15  and  C_16
REMARK    5  A    between atoms: C_19  and  C_20
REMARK    6  A    between atoms: C_20  and  C_21
REMARK    7  A    between atoms: C_20  and  C_22
REMARK                            x       y       z     vdW  Elec       q    Type
REMARK                         _______ _______ _______ _____ _____    ______ ____
ROOT
ATOM      1  C   UNL     1       1.174   2.517  18.664  0.00  0.00    +0.000 C 
ATOM      2  C   UNL     1       2.633   2.908  18.604  0.00  0.00    +0.000 C 
ATOM      3  O   UNL     1       3.516   2.077  18.400  0.00  0.00    +0.000 OA
ATOM      4  N   UNL     1       2.869   4.253  18.768  0.00  0.00    +0.000 N 
ATOM      5  N   UNL     1       1.902   5.115  19.178  0.00  0.00    +0.000 NA
ATOM      6  C   UNL     1       2.526   6.237  19.333  0.00  0.00    +0.000 C 
ATOM      7  O   UNL     1       3.864   6.255  19.093  0.00  0.00    +0.000 OA
ATOM      8  C   UNL     1       4.155   4.911  18.680  0.00  0.00    +0.000 C 
ENDROOT
BRANCH   6   9
ATOM      9  C   UNL     1       1.899   7.502  19.730  0.00  0.00    +0.000 A 
ATOM     10  C   UNL     1       1.773   8.507  18.759  0.00  0.00    +0.000 A 
ATOM     11  C   UNL     1       1.246   9.750  19.096  0.00  0.00    +0.000 A 
ATOM     12  C   UNL     1       0.836  10.003  20.414  0.00  0.00    +0.000 A 
ATOM     13  C   UNL     1       0.302  11.353  20.794  0.00  0.00    +0.000 C 
ATOM     14  C   UNL     1       0.947   8.992  21.374  0.00  0.00    +0.000 A 
ATOM     15  C   UNL     1       1.477   7.742  21.037  0.00  0.00    +0.000 A 
ENDBRANCH   6   9
BRANCH   8  16
ATOM     16  C   UNL     1       4.750   4.897  17.284  0.00  0.00    +0.000 A 
ATOM     17  C   UNL     1       5.277   3.709  16.754  0.00  0.00    +0.000 A 
ATOM     18  C   UNL     1       5.835   3.675  15.469  0.00  0.00    +0.000 A 
ATOM     19  C   UNL     1       5.877   4.828  14.675  0.00  0.00    +0.000 A 
ATOM     20  C   UNL     1       5.325   6.009  15.194  0.00  0.00    +0.000 A 
ATOM     21  C   UNL     1       4.763   6.040  16.474  0.00  0.00    +0.000 A 
BRANCH  19  22
ATOM     22  C   UNL     1       6.501   4.789  13.289  0.00  0.00    +0.000 C 
ATOM     23  C   UNL     1       7.983   5.172  13.322  0.00  0.00    +0.000 C 
ATOM     24  C   UNL     1       6.333   3.418  12.624  0.00  0.00    +0.000 C 
ENDBRANCH  19  22
ENDBRANCH   8  16
TORSDOF 3
ENDMDL
MODEL 8
REMARK VINA RESULT:      -7.5      3.585      6.056
REMARK  Name = 
REMARK  7 active torsions:
REMARK  status: ('A' for Active; 'I' for Inactive)
REMARK    1  A    between atoms: C_1  and  C_2
REMARK    2  A    between atoms: C_6  and  C_7
REMARK    3  A    between atoms: C_10  and  C_11
REMARK    4  A    between atoms: C_15  and  C_16
REMARK    5  A    between atoms: C_19  and  C_20
REMARK    6  A    between atoms: C_20  and  C_21
REMARK    7  A    between atoms: C_20  and  C_22
REMARK                            x       y       z     vdW  Elec       q    Type
REMARK                         _______ _______ _______ _____ _____    ______ ____
ROOT
ATOM      1  C   UNL     1       5.506   4.834  14.416  0.00  0.00    +0.000 C 
ATOM      2  C   UNL     1       6.662   5.029  15.370  0.00  0.00    +0.000 C 
ATOM      3  O   UNL     1       7.786   5.328  14.969  0.00  0.00    +0.000 OA
ATOM      4  N   UNL     1       6.339   4.870  16.697  0.00  0.00    +0.000 N 
ATOM      5  N   UNL     1       5.145   4.358  17.097  0.00  0.00    +0.000 NA
ATOM      6  C   UNL     1       5.263   4.249  18.380  0.00  0.00    +0.000 C 
ATOM      7  O   UNL     1       6.447   4.616  18.939  0.00  0.00    +0.000 OA
ATOM      8  C   UNL     1       7.226   5.073  17.822  0.00  0.00    +0.000 C 
ENDROOT
BRANCH   6   9
ATOM      9  C   UNL     1       4.212   3.777  19.287  0.00  0.00    +0.000 A 
ATOM     10  C   UNL     1       3.129   4.632  19.538  0.00  0.00    +0.000 A 
ATOM     11  C   UNL     1       2.135   4.263  20.440  0.00  0.00    +0.000 A 
ATOM     12  C   UNL     1       2.214   3.029  21.104  0.00  0.00    +0.000 A 
ATOM     13  C   UNL     1       1.167   2.641  22.106  0.00  0.00    +0.000 C 
ATOM     14  C   UNL     1       3.287   2.173  20.835  0.00  0.00    +0.000 A 
ATOM     15  C   UNL     1       4.286   2.542  19.929  0.00  0.00    +0.000 A 
ENDBRANCH   6   9
BRANCH   8  16
ATOM     16  C   UNL     1       7.642   6.520  18.015  0.00  0.00    +0.000 A 
ATOM     17  C   UNL     1       8.506   6.870  19.065  0.00  0.00    +0.000 A 
ATOM     18  C   UNL     1       8.899   8.200  19.264  0.00  0.00    +0.000 A 
ATOM     19  C   UNL     1       8.444   9.218  18.416  0.00  0.00    +0.000 A 
ATOM     20  C   UNL     1       7.603   8.863  17.351  0.00  0.00    +0.000 A 
ATOM     21  C   UNL     1       7.215   7.535  17.149  0.00  0.00    +0.000 A 
BRANCH  19  22
ATOM     22  C   UNL     1       8.859  10.661  18.650  0.00  0.00    +0.000 C 
ATOM     23  C   UNL     1       9.225  10.918  20.114  0.00  0.00    +0.000 C 
ATOM     24  C   UNL     1      10.022  11.076  17.742  0.00  0.00    +0.000 C 
ENDBRANCH  19  22
ENDBRANCH   8  16
TORSDOF 3
ENDMDL
MODEL 9
REMARK VINA RESULT:      -7.4      4.497      7.634
REMARK  Name = 
REMARK  7 active torsions:
REMARK  status: ('A' for Active; 'I' for Inactive)
REMARK    1  A    between atoms: C_1  and  C_2
REMARK    2  A    between atoms: C_6  and  C_7
REMARK    3  A    between atoms: C_10  and  C_11
REMARK    4  A    between atoms: C_15  and  C_16
REMARK    5  A    between atoms: C_19  and  C_20
REMARK    6  A    between atoms: C_20  and  C_21
REMARK    7  A    between atoms: C_20  and  C_22
REMARK                            x       y       z     vdW  Elec       q    Type
REMARK                         _______ _______ _______ _____ _____    ______ ____
ROOT
ATOM      1  C   UNL     1       2.671  13.882  19.879  0.00  0.00    +0.000 C 
ATOM      2  C   UNL     1       2.139  12.769  19.006  0.00  0.00    +0.000 C 
ATOM      3  O   UNL     1       2.773  12.348  18.040  0.00  0.00    +0.000 OA
ATOM      4  N   UNL     1       0.922  12.267  19.402  0.00  0.00    +0.000 N 
ATOM      5  N   UNL     1       0.161  12.872  20.351  0.00  0.00    +0.000 NA
ATOM      6  C   UNL     1      -0.938  12.191  20.355  0.00  0.00    +0.000 C 
ATOM      7  O   UNL     1      -1.047  11.160  19.475  0.00  0.00    +0.000 OA
ATOM      8  C   UNL     1       0.221  11.153  18.799  0.00  0.00    +0.000 C 
ENDROOT
BRANCH   6   9
ATOM      9  C   UNL     1      -2.075  12.430  21.250  0.00  0.00    +0.000 A 
ATOM     10  C   UNL     1      -1.920  12.114  22.608  0.00  0.00    +0.000 A 
ATOM     11  C   UNL     1      -2.986  12.260  23.491  0.00  0.00    +0.000 A 
ATOM     12  C   UNL     1      -4.225  12.724  23.024  0.00  0.00    +0.000 A 
ATOM     13  C   UNL     1      -5.389  12.847  23.961  0.00  0.00    +0.000 C 
ATOM     14  C   UNL     1      -4.368  13.054  21.672  0.00  0.00    +0.000 A 
ATOM     15  C   UNL     1      -3.298  12.909  20.784  0.00  0.00    +0.000 A 
ENDBRANCH   6   9
BRANCH   8  16
ATOM     16  C   UNL     1       0.921   9.820  18.989  0.00  0.00    +0.000 A 
ATOM     17  C   UNL     1       0.935   9.205  20.251  0.00  0.00    +0.000 A 
ATOM     18  C   UNL     1       1.579   7.976  20.448  0.00  0.00    +0.000 A 
ATOM     19  C   UNL     1       2.222   7.324  19.388  0.00  0.00    +0.000 A 
ATOM     20  C   UNL     1       2.184   7.926  18.122  0.00  0.00    +0.000 A 
ATOM     21  C   UNL     1       1.536   9.149  17.924  0.00  0.00    +0.000 A 
BRANCH  19  22
ATOM     22  C   UNL     1       2.935   6.001  19.615  0.00  0.00    +0.000 C 
ATOM     23  C   UNL     1       2.162   5.095  20.577  0.00  0.00    +0.000 C 
ATOM     24  C   UNL     1       3.197   5.259  18.299  0.00  0.00    +0.000 C 
ENDBRANCH  19  22
ENDBRANCH   8  16
TORSDOF 3
ENDMDL
