MODEL 1
REMARK VINA RESULT:      -6.6      0.000      0.000
REMARK  Name = 
REMARK  5 active torsions:
REMARK  status: ('A' for Active; 'I' for Inactive)
REMARK    1  A    between atoms: C_1  and  C_2
REMARK    2  A    between atoms: C_2  and  S_3
REMARK    3  A    between atoms: S_3  and  N_6
REMARK    4  A    between atoms: N_17  and  C_18
REMARK    5  A    between atoms: C_28  and  C_29
REMARK                            x       y       z     vdW  Elec       q    Type
REMARK                         _______ _______ _______ _____ _____    ______ ____
ROOT
ATOM      1  N   UNL     1      10.051  13.379  19.179  0.00  0.00    +0.000 NA
ATOM      2  C   UNL     1      10.739  14.208  18.073  0.00  0.00    +0.000 C 
ATOM      3  C   UNL     1      11.161  15.569  18.397  0.00  0.00    +0.000 A 
ATOM      4  C   UNL     1      12.333  16.164  18.894  0.00  0.00    +0.000 A 
ATOM      5  N   UNL     1      12.124  17.446  19.250  0.00  0.00    +0.000 NA
ATOM      6  N   UNL     1      10.791  17.611  19.006  0.00  0.00    +0.000 N 
ATOM      7  C   UNL     1       9.831  18.376  19.648  0.00  0.00    +0.000 A 
ATOM      8  C   UNL     1       8.529  18.105  19.426  0.00  0.00    +0.000 A 
ATOM      9  C   UNL     1       8.202  16.988  18.419  0.00  0.00    +0.000 A 
ATOM     10  N   UNL     1       9.126  16.590  17.588  0.00  0.00    +0.000 NA
ATOM     11  C   UNL     1      10.362  16.644  18.123  0.00  0.00    +0.000 A 
ATOM     12  N   UNL     1       7.033  16.225  18.400  0.00  0.00    +0.000 N 
ATOM     13  C   UNL     1       7.125  14.800  17.949  0.00  0.00    +0.000 C 
ATOM     14  C   UNL     1       6.018  16.486  19.391  0.00  0.00    +0.000 C 
ATOM     15  C   UNL     1       5.350  15.254  19.922  0.00  0.00    +0.000 A 
ATOM     16  C   UNL     1       4.146  14.896  19.287  0.00  0.00    +0.000 A 
ATOM     17  C   UNL     1       3.118  14.406  20.051  0.00  0.00    +0.000 A 
ATOM     18  F   UNL     1       1.939  14.133  19.477  0.00  0.00    +0.000 F 
ATOM     19  C   UNL     1       3.289  14.322  21.424  0.00  0.00    +0.000 A 
ATOM     20  C   UNL     1       4.598  14.410  21.974  0.00  0.00    +0.000 A 
ATOM     21  C   UNL     1       5.705  14.713  21.159  0.00  0.00    +0.000 A 
ATOM     22  O   UNL     1       6.978  14.164  21.445  0.00  0.00    +0.000 OA
ATOM     23  C   UNL     1       8.256  14.822  21.059  0.00  0.00    +0.000 C 
ATOM     24  C   UNL     1       8.477  15.810  22.237  0.00  0.00    +0.000 C 
ATOM     25  C   UNL     1       9.698  13.995  20.675  0.00  0.00    +0.000 C 
ENDROOT
BRANCH   1  26
ATOM     26  S   UNL     1      10.950  11.806  19.189  0.00  0.00    +0.000 S 
ATOM     27  O   UNL     1      11.866  11.821  20.288  0.00  0.00    +0.000 OA
ATOM     28  O   UNL     1      11.402  11.526  17.830  0.00  0.00    +0.000 OA
BRANCH  26  30
ATOM     29  C   UNL     1       8.900   9.984  18.444  0.00  0.00    +0.000 C 
ATOM     30  C   UNL     1       9.563  10.683  19.626  0.00  0.00    +0.000 C 
ENDBRANCH  26  30
ENDBRANCH   1  26
TORSDOF 2
ENDMDL
MODEL 2
REMARK VINA RESULT:      -6.6      1.199      1.473
REMARK  Name = 
REMARK  5 active torsions:
REMARK  status: ('A' for Active; 'I' for Inactive)
REMARK    1  A    between atoms: C_1  and  C_2
REMARK    2  A    between atoms: C_2  and  S_3
REMARK    3  A    between atoms: S_3  and  N_6
REMARK    4  A    between atoms: N_17  and  C_18
REMARK    5  A    between atoms: C_28  and  C_29
REMARK                            x       y       z     vdW  Elec       q    Type
REMARK                         _______ _______ _______ _____ _____    ______ ____
ROOT
ATOM      1  N   UNL     1       9.119  12.952  19.086  0.00  0.00    +0.000 NA
ATOM      2  C   UNL     1       9.891  13.618  17.926  0.00  0.00    +0.000 C 
ATOM      3  C   UNL     1      10.573  14.883  18.192  0.00  0.00    +0.000 A 
ATOM      4  C   UNL     1      11.857  15.259  18.616  0.00  0.00    +0.000 A 
ATOM      5  N   UNL     1      11.907  16.565  18.946  0.00  0.00    +0.000 NA
ATOM      6  N   UNL     1      10.616  16.970  18.760  0.00  0.00    +0.000 N 
ATOM      7  C   UNL     1       9.848  17.911  19.424  0.00  0.00    +0.000 A 
ATOM      8  C   UNL     1       8.508  17.882  19.270  0.00  0.00    +0.000 A 
ATOM      9  C   UNL     1       7.930  16.826  18.312  0.00  0.00    +0.000 A 
ATOM     10  N   UNL     1       8.722  16.248  17.450  0.00  0.00    +0.000 NA
ATOM     11  C   UNL     1       9.972  16.082  17.925  0.00  0.00    +0.000 A 
ATOM     12  N   UNL     1       6.641  16.292  18.369  0.00  0.00    +0.000 N 
ATOM     13  C   UNL     1       6.446  14.867  17.954  0.00  0.00    +0.000 C 
ATOM     14  C   UNL     1       5.744  16.756  19.399  0.00  0.00    +0.000 C 
ATOM     15  C   UNL     1       4.888  15.679  19.994  0.00  0.00    +0.000 A 
ATOM     16  C   UNL     1       3.608  15.538  19.427  0.00  0.00    +0.000 A 
ATOM     17  C   UNL     1       2.548  15.262  20.252  0.00  0.00    +0.000 A 
ATOM     18  F   UNL     1       1.311  15.201  19.741  0.00  0.00    +0.000 F 
ATOM     19  C   UNL     1       2.770  15.173  21.616  0.00  0.00    +0.000 A 
ATOM     20  C   UNL     1       4.099  15.028  22.102  0.00  0.00    +0.000 A 
ATOM     21  C   UNL     1       5.200  15.105  21.228  0.00  0.00    +0.000 A 
ATOM     22  O   UNL     1       6.363  14.336  21.470  0.00  0.00    +0.000 OA
ATOM     23  C   UNL     1       7.719  14.737  21.006  0.00  0.00    +0.000 C 
ATOM     24  C   UNL     1       8.178  15.690  22.144  0.00  0.00    +0.000 C 
ATOM     25  C   UNL     1       8.962  13.650  20.579  0.00  0.00    +0.000 C 
ENDROOT
BRANCH   1  26
ATOM     26  S   UNL     1       9.713  11.240  19.097  0.00  0.00    +0.000 S 
ATOM     27  O   UNL     1       9.171  10.570  17.955  0.00  0.00    +0.000 OA
ATOM     28  O   UNL     1       9.540  10.702  20.443  0.00  0.00    +0.000 OA
BRANCH  26  30
ATOM     29  C   UNL     1      12.327  11.878  20.011  0.00  0.00    +0.000 C 
ATOM     30  C   UNL     1      11.495  11.549  18.777  0.00  0.00    +0.000 C 
ENDBRANCH  26  30
ENDBRANCH   1  26
TORSDOF 2
ENDMDL
MODEL 3
REMARK VINA RESULT:      -6.5      0.908      1.010
REMARK  Name = 
REMARK  5 active torsions:
REMARK  status: ('A' for Active; 'I' for Inactive)
REMARK    1  A    between atoms: C_1  and  C_2
REMARK    2  A    between atoms: C_2  and  S_3
REMARK    3  A    between atoms: S_3  and  N_6
REMARK    4  A    between atoms: N_17  and  C_18
REMARK    5  A    between atoms: C_28  and  C_29
REMARK                            x       y       z     vdW  Elec       q    Type
REMARK                         _______ _______ _______ _____ _____    ______ ____
ROOT
ATOM      1  N   UNL     1       9.483  13.133  19.585  0.00  0.00    +0.000 NA
ATOM      2  C   UNL     1      10.458  13.778  18.576  0.00  0.00    +0.000 C 
ATOM      3  C   UNL     1      11.029  15.081  18.909  0.00  0.00    +0.000 A 
ATOM      4  C   UNL     1      12.185  15.529  19.568  0.00  0.00    +0.000 A 
ATOM      5  N   UNL     1      12.124  16.849  19.832  0.00  0.00    +0.000 NA
ATOM      6  N   UNL     1      10.888  17.191  19.364  0.00  0.00    +0.000 N 
ATOM      7  C   UNL     1       9.969  18.129  19.806  0.00  0.00    +0.000 A 
ATOM      8  C   UNL     1       8.692  18.037  19.381  0.00  0.00    +0.000 A 
ATOM      9  C   UNL     1       8.359  16.915  18.381  0.00  0.00    +0.000 A 
ATOM     10  N   UNL     1       9.330  16.333  17.732  0.00  0.00    +0.000 NA
ATOM     11  C   UNL     1      10.459  16.240  18.462  0.00  0.00    +0.000 A 
ATOM     12  N   UNL     1       7.104  16.331  18.200  0.00  0.00    +0.000 N 
ATOM     13  C   UNL     1       7.044  14.882  17.829  0.00  0.00    +0.000 C 
ATOM     14  C   UNL     1       5.998  16.803  18.997  0.00  0.00    +0.000 C 
ATOM     15  C   UNL     1       5.072  15.719  19.460  0.00  0.00    +0.000 A 
ATOM     16  C   UNL     1       3.942  15.500  18.649  0.00  0.00    +0.000 A 
ATOM     17  C   UNL     1       2.744  15.217  19.252  0.00  0.00    +0.000 A 
ATOM     18  F   UNL     1       1.642  15.082  18.502  0.00  0.00    +0.000 F 
ATOM     19  C   UNL     1       2.681  15.198  20.636  0.00  0.00    +0.000 A 
ATOM     20  C   UNL     1       3.884  15.131  21.391  0.00  0.00    +0.000 A 
ATOM     21  C   UNL     1       5.139  15.214  20.760  0.00  0.00    +0.000 A 
ATOM     22  O   UNL     1       6.250  14.506  21.276  0.00  0.00    +0.000 OA
ATOM     23  C   UNL     1       7.660  14.943  21.080  0.00  0.00    +0.000 C 
ATOM     24  C   UNL     1       7.842  15.963  22.237  0.00  0.00    +0.000 C 
ATOM     25  C   UNL     1       8.998  13.890  20.975  0.00  0.00    +0.000 C 
ENDROOT
BRANCH   1  26
ATOM     26  S   UNL     1      10.115  11.450  19.808  0.00  0.00    +0.000 S 
ATOM     27  O   UNL     1       9.333  10.809  20.821  0.00  0.00    +0.000 OA
ATOM     28  O   UNL     1      11.570  11.512  19.902  0.00  0.00    +0.000 OA
BRANCH  26  30
ATOM     29  C   UNL     1       8.583   9.631  18.252  0.00  0.00    +0.000 C 
ATOM     30  C   UNL     1       9.627  10.740  18.186  0.00  0.00    +0.000 C 
ENDBRANCH  26  30
ENDBRANCH   1  26
TORSDOF 2
ENDMDL
MODEL 4
REMARK VINA RESULT:      -6.5     11.221     14.337
REMARK  Name = 
REMARK  5 active torsions:
REMARK  status: ('A' for Active; 'I' for Inactive)
REMARK    1  A    between atoms: C_1  and  C_2
REMARK    2  A    between atoms: C_2  and  S_3
REMARK    3  A    between atoms: S_3  and  N_6
REMARK    4  A    between atoms: N_17  and  C_18
REMARK    5  A    between atoms: C_28  and  C_29
REMARK                            x       y       z     vdW  Elec       q    Type
REMARK                         _______ _______ _______ _____ _____    ______ ____
ROOT
ATOM      1  N   UNL     1      -3.097  13.381  20.775  0.00  0.00    +0.000 NA
ATOM      2  C   UNL     1      -3.030  13.892  22.231  0.00  0.00    +0.000 C 
ATOM      3  C   UNL     1      -4.032  13.403  23.177  0.00  0.00    +0.000 A 
ATOM      4  C   UNL     1      -4.121  12.326  24.074  0.00  0.00    +0.000 A 
ATOM      5  N   UNL     1      -5.374  12.177  24.544  0.00  0.00    +0.000 NA
ATOM      6  N   UNL     1      -6.061  13.153  23.882  0.00  0.00    +0.000 N 
ATOM      7  C   UNL     1      -7.366  13.201  23.418  0.00  0.00    +0.000 A 
ATOM      8  C   UNL     1      -7.697  14.136  22.504  0.00  0.00    +0.000 A 
ATOM      9  C   UNL     1      -6.599  15.128  22.080  0.00  0.00    +0.000 A 
ATOM     10  N   UNL     1      -5.537  15.260  22.827  0.00  0.00    +0.000 NA
ATOM     11  C   UNL     1      -5.177  14.107  23.424  0.00  0.00    +0.000 A 
ATOM     12  N   UNL     1      -6.545  15.812  20.864  0.00  0.00    +0.000 N 
ATOM     13  C   UNL     1      -5.200  16.105  20.274  0.00  0.00    +0.000 C 
ATOM     14  C   UNL     1      -7.600  15.601  19.902  0.00  0.00    +0.000 C 
ATOM     15  C   UNL     1      -7.126  15.540  18.481  0.00  0.00    +0.000 A 
ATOM     16  C   UNL     1      -7.193  16.751  17.767  0.00  0.00    +0.000 A 
ATOM     17  C   UNL     1      -7.571  16.721  16.450  0.00  0.00    +0.000 A 
ATOM     18  F   UNL     1      -7.714  17.870  15.776  0.00  0.00    +0.000 F 
ATOM     19  C   UNL     1      -7.913  15.504  15.882  0.00  0.00    +0.000 A 
ATOM     20  C   UNL     1      -7.551  14.297  16.541  0.00  0.00    +0.000 A 
ATOM     21  C   UNL     1      -6.967  14.319  17.821  0.00  0.00    +0.000 A 
ATOM     22  O   UNL     1      -6.019  13.338  18.195  0.00  0.00    +0.000 OA
ATOM     23  C   UNL     1      -5.790  12.918  19.604  0.00  0.00    +0.000 C 
ATOM     24  C   UNL     1      -6.896  11.846  19.803  0.00  0.00    +0.000 C 
ATOM     25  C   UNL     1      -4.296  12.379  20.228  0.00  0.00    +0.000 C 
ENDROOT
BRANCH   1  26
ATOM     26  S   UNL     1      -1.410  12.827  20.415  0.00  0.00    +0.000 S 
ATOM     27  O   UNL     1      -1.101  11.735  21.286  0.00  0.00    +0.000 OA
ATOM     28  O   UNL     1      -0.546  14.001  20.338  0.00  0.00    +0.000 OA
BRANCH  26  30
ATOM     29  C   UNL     1      -1.318  10.674  18.562  0.00  0.00    +0.000 C 
ATOM     30  C   UNL     1      -1.683  12.145  18.731  0.00  0.00    +0.000 C 
ENDBRANCH  26  30
ENDBRANCH   1  26
TORSDOF 2
ENDMDL
MODEL 5
REMARK VINA RESULT:      -6.4     10.220     14.132
REMARK  Name = 
REMARK  5 active torsions:
REMARK  status: ('A' for Active; 'I' for Inactive)
REMARK    1  A    between atoms: C_1  and  C_2
REMARK    2  A    between atoms: C_2  and  S_3
REMARK    3  A    between atoms: S_3  and  N_6
REMARK    4  A    between atoms: N_17  and  C_18
REMARK    5  A    between atoms: C_28  and  C_29
REMARK                            x       y       z     vdW  Elec       q    Type
REMARK                         _______ _______ _______ _____ _____    ______ ____
ROOT
ATOM      1  N   UNL     1      -2.819  13.299  20.972  0.00  0.00    +0.000 NA
ATOM      2  C   UNL     1      -2.787  13.842  22.417  0.00  0.00    +0.000 C 
ATOM      3  C   UNL     1      -3.791  13.349  23.358  0.00  0.00    +0.000 A 
ATOM      4  C   UNL     1      -3.869  12.289  24.277  0.00  0.00    +0.000 A 
ATOM      5  N   UNL     1      -5.126  12.120  24.731  0.00  0.00    +0.000 NA
ATOM      6  N   UNL     1      -5.825  13.065  24.038  0.00  0.00    +0.000 N 
ATOM      7  C   UNL     1      -7.123  13.071  23.554  0.00  0.00    +0.000 A 
ATOM      8  C   UNL     1      -7.462  13.978  22.614  0.00  0.00    +0.000 A 
ATOM      9  C   UNL     1      -6.382  14.988  22.186  0.00  0.00    +0.000 A 
ATOM     10  N   UNL     1      -5.335  15.161  22.946  0.00  0.00    +0.000 NA
ATOM     11  C   UNL     1      -4.957  14.030  23.573  0.00  0.00    +0.000 A 
ATOM     12  N   UNL     1      -6.325  15.647  20.956  0.00  0.00    +0.000 N 
ATOM     13  C   UNL     1      -4.979  15.960  20.381  0.00  0.00    +0.000 C 
ATOM     14  C   UNL     1      -7.359  15.390  19.983  0.00  0.00    +0.000 C 
ATOM     15  C   UNL     1      -6.863  15.310  18.571  0.00  0.00    +0.000 A 
ATOM     16  C   UNL     1      -6.947  16.505  17.831  0.00  0.00    +0.000 A 
ATOM     17  C   UNL     1      -7.303  16.437  16.509  0.00  0.00    +0.000 A 
ATOM     18  F   UNL     1      -7.464  17.568  15.808  0.00  0.00    +0.000 F 
ATOM     19  C   UNL     1      -7.608  15.201  15.963  0.00  0.00    +0.000 A 
ATOM     20  C   UNL     1      -7.228  14.017  16.653  0.00  0.00    +0.000 A 
ATOM     21  C   UNL     1      -6.664  14.081  17.941  0.00  0.00    +0.000 A 
ATOM     22  O   UNL     1      -5.698  13.130  18.350  0.00  0.00    +0.000 OA
ATOM     23  C   UNL     1      -5.482  12.746  19.771  0.00  0.00    +0.000 C 
ATOM     24  C   UNL     1      -6.565  11.653  19.976  0.00  0.00    +0.000 C 
ATOM     25  C   UNL     1      -3.985  12.257  20.429  0.00  0.00    +0.000 C 
ENDROOT
BRANCH   1  26
ATOM     26  S   UNL     1      -1.114  12.778  20.649  0.00  0.00    +0.000 S 
ATOM     27  O   UNL     1      -1.131  11.398  20.272  0.00  0.00    +0.000 OA
ATOM     28  O   UNL     1      -0.272  13.254  21.743  0.00  0.00    +0.000 OA
BRANCH  26  30
ATOM     29  C   UNL     1      -0.383  15.220  19.392  0.00  0.00    +0.000 C 
ATOM     30  C   UNL     1      -0.789  13.772  19.139  0.00  0.00    +0.000 C 
ENDBRANCH  26  30
ENDBRANCH   1  26
TORSDOF 2
ENDMDL
MODEL 6
REMARK VINA RESULT:      -6.4      2.249      2.981
REMARK  Name = 
REMARK  5 active torsions:
REMARK  status: ('A' for Active; 'I' for Inactive)
REMARK    1  A    between atoms: C_1  and  C_2
REMARK    2  A    between atoms: C_2  and  S_3
REMARK    3  A    between atoms: S_3  and  N_6
REMARK    4  A    between atoms: N_17  and  C_18
REMARK    5  A    between atoms: C_28  and  C_29
REMARK                            x       y       z     vdW  Elec       q    Type
REMARK                         _______ _______ _______ _____ _____    ______ ____
ROOT
ATOM      1  N   UNL     1      10.110  13.420  19.367  0.00  0.00    +0.000 NA
ATOM      2  C   UNL     1       9.619  13.942  17.999  0.00  0.00    +0.000 C 
ATOM      3  C   UNL     1       9.977  15.306  17.616  0.00  0.00    +0.000 A 
ATOM      4  C   UNL     1      11.037  15.904  16.915  0.00  0.00    +0.000 A 
ATOM      5  N   UNL     1      11.023  17.245  17.047  0.00  0.00    +0.000 NA
ATOM      6  N   UNL     1       9.963  17.453  17.881  0.00  0.00    +0.000 N 
ATOM      7  C   UNL     1       9.743  18.405  18.862  0.00  0.00    +0.000 A 
ATOM      8  C   UNL     1       8.768  18.190  19.770  0.00  0.00    +0.000 A 
ATOM      9  C   UNL     1       7.927  16.911  19.612  0.00  0.00    +0.000 A 
ATOM     10  N   UNL     1       7.938  16.279  18.471  0.00  0.00    +0.000 NA
ATOM     11  C   UNL     1       9.131  16.353  17.849  0.00  0.00    +0.000 A 
ATOM     12  N   UNL     1       7.250  16.250  20.639  0.00  0.00    +0.000 N 
ATOM     13  C   UNL     1       7.133  14.759  20.565  0.00  0.00    +0.000 C 
ATOM     14  C   UNL     1       7.317  16.791  21.975  0.00  0.00    +0.000 C 
ATOM     15  C   UNL     1       7.433  15.751  23.049  0.00  0.00    +0.000 A 
ATOM     16  C   UNL     1       6.220  15.357  23.644  0.00  0.00    +0.000 A 
ATOM     17  C   UNL     1       6.195  15.118  24.994  0.00  0.00    +0.000 A 
ATOM     18  F   UNL     1       5.034  14.817  25.591  0.00  0.00    +0.000 F 
ATOM     19  C   UNL     1       7.354  15.315  25.728  0.00  0.00    +0.000 A 
ATOM     20  C   UNL     1       8.601  15.421  25.053  0.00  0.00    +0.000 A 
ATOM     21  C   UNL     1       8.661  15.461  23.647  0.00  0.00    +0.000 A 
ATOM     22  O   UNL     1       9.760  14.894  22.959  0.00  0.00    +0.000 OA
ATOM     23  C   UNL     1      10.212  15.358  21.619  0.00  0.00    +0.000 C 
ATOM     24  C   UNL     1      11.131  16.555  21.988  0.00  0.00    +0.000 C 
ATOM     25  C   UNL     1      10.945  14.364  20.442  0.00  0.00    +0.000 C 
ENDROOT
BRANCH   1  26
ATOM     26  S   UNL     1      10.879  11.823  18.990  0.00  0.00    +0.000 S 
ATOM     27  O   UNL     1      12.018  11.662  19.842  0.00  0.00    +0.000 OA
ATOM     28  O   UNL     1      10.994  11.698  17.541  0.00  0.00    +0.000 OA
BRANCH  26  30
ATOM     29  C   UNL     1       8.827   9.911  18.530  0.00  0.00    +0.000 C 
ATOM     30  C   UNL     1       9.553  10.711  19.606  0.00  0.00    +0.000 C 
ENDBRANCH  26  30
ENDBRANCH   1  26
TORSDOF 2
ENDMDL
MODEL 7
REMARK VINA RESULT:      -6.3     11.757     14.858
REMARK  Name = 
REMARK  5 active torsions:
REMARK  status: ('A' for Active; 'I' for Inactive)
REMARK    1  A    between atoms: C_1  and  C_2
REMARK    2  A    between atoms: C_2  and  S_3
REMARK    3  A    between atoms: S_3  and  N_6
REMARK    4  A    between atoms: N_17  and  C_18
REMARK    5  A    between atoms: C_28  and  C_29
REMARK                            x       y       z     vdW  Elec       q    Type
REMARK                         _______ _______ _______ _____ _____    ______ ____
ROOT
ATOM      1  N   UNL     1      -5.034  16.128  20.234  0.00  0.00    +0.000 NA
ATOM      2  C   UNL     1      -6.530  16.358  20.536  0.00  0.00    +0.000 C 
ATOM      3  C   UNL     1      -7.129  15.615  21.643  0.00  0.00    +0.000 A 
ATOM      4  C   UNL     1      -7.318  15.841  23.016  0.00  0.00    +0.000 A 
ATOM      5  N   UNL     1      -7.712  14.721  23.653  0.00  0.00    +0.000 NA
ATOM      6  N   UNL     1      -7.715  13.793  22.652  0.00  0.00    +0.000 N 
ATOM      7  C   UNL     1      -7.430  12.438  22.659  0.00  0.00    +0.000 A 
ATOM      8  C   UNL     1      -7.177  11.821  21.487  0.00  0.00    +0.000 A 
ATOM      9  C   UNL     1      -7.280  12.668  20.206  0.00  0.00    +0.000 A 
ATOM     10  N   UNL     1      -7.916  13.807  20.247  0.00  0.00    +0.000 NA
ATOM     11  C   UNL     1      -7.783  14.433  21.432  0.00  0.00    +0.000 A 
ATOM     12  N   UNL     1      -6.616  12.414  19.005  0.00  0.00    +0.000 N 
ATOM     13  C   UNL     1      -6.192  13.581  18.169  0.00  0.00    +0.000 C 
ATOM     14  C   UNL     1      -5.756  11.258  18.919  0.00  0.00    +0.000 C 
ATOM     15  C   UNL     1      -4.495  11.491  18.143  0.00  0.00    +0.000 A 
ATOM     16  C   UNL     1      -4.543  11.123  16.785  0.00  0.00    +0.000 A 
ATOM     17  C   UNL     1      -3.438  10.540  16.221  0.00  0.00    +0.000 A 
ATOM     18  F   UNL     1      -3.490  10.113  14.952  0.00  0.00    +0.000 F 
ATOM     19  C   UNL     1      -2.331  10.296  17.019  0.00  0.00    +0.000 A 
ATOM     20  C   UNL     1      -2.222  10.943  18.281  0.00  0.00    +0.000 A 
ATOM     21  C   UNL     1      -3.278  11.722  18.788  0.00  0.00    +0.000 A 
ATOM     22  O   UNL     1      -3.012  12.858  19.589  0.00  0.00    +0.000 OA
ATOM     23  C   UNL     1      -3.964  13.380  20.607  0.00  0.00    +0.000 C 
ATOM     24  C   UNL     1      -3.629  12.498  21.841  0.00  0.00    +0.000 C 
ATOM     25  C   UNL     1      -4.112  15.021  21.049  0.00  0.00    +0.000 C 
ENDROOT
BRANCH   1  26
ATOM     26  S   UNL     1      -4.331  17.795  20.145  0.00  0.00    +0.000 S 
ATOM     27  O   UNL     1      -4.684  18.495  21.342  0.00  0.00    +0.000 OA
ATOM     28  O   UNL     1      -4.628  18.351  18.828  0.00  0.00    +0.000 OA
BRANCH  26  30
ATOM     29  C   UNL     1      -1.742  17.638  18.984  0.00  0.00    +0.000 C 
ATOM     30  C   UNL     1      -2.548  17.364  20.248  0.00  0.00    +0.000 C 
ENDBRANCH  26  30
ENDBRANCH   1  26
TORSDOF 2
ENDMDL
MODEL 8
REMARK VINA RESULT:      -6.2     10.525     13.115
REMARK  Name = 
REMARK  5 active torsions:
REMARK  status: ('A' for Active; 'I' for Inactive)
REMARK    1  A    between atoms: C_1  and  C_2
REMARK    2  A    between atoms: C_2  and  S_3
REMARK    3  A    between atoms: S_3  and  N_6
REMARK    4  A    between atoms: N_17  and  C_18
REMARK    5  A    between atoms: C_28  and  C_29
REMARK                            x       y       z     vdW  Elec       q    Type
REMARK                         _______ _______ _______ _____ _____    ______ ____
ROOT
ATOM      1  N   UNL     1      -5.165  12.607  21.714  0.00  0.00    +0.000 NA
ATOM      2  C   UNL     1      -5.342  13.423  23.012  0.00  0.00    +0.000 C 
ATOM      3  C   UNL     1      -4.727  14.748  23.079  0.00  0.00    +0.000 A 
ATOM      4  C   UNL     1      -5.135  16.058  22.778  0.00  0.00    +0.000 A 
ATOM      5  N   UNL     1      -4.094  16.913  22.785  0.00  0.00    +0.000 NA
ATOM      6  N   UNL     1      -3.035  16.094  23.051  0.00  0.00    +0.000 N 
ATOM      7  C   UNL     1      -1.715  16.141  22.634  0.00  0.00    +0.000 A 
ATOM      8  C   UNL     1      -0.954  15.034  22.760  0.00  0.00    +0.000 A 
ATOM      9  C   UNL     1      -1.603  13.803  23.417  0.00  0.00    +0.000 A 
ATOM     10  N   UNL     1      -2.694  13.955  24.116  0.00  0.00    +0.000 NA
ATOM     11  C   UNL     1      -3.489  14.928  23.630  0.00  0.00    +0.000 A 
ATOM     12  N   UNL     1      -1.222  12.475  23.213  0.00  0.00    +0.000 N 
ATOM     13  C   UNL     1      -2.283  11.419  23.255  0.00  0.00    +0.000 C 
ATOM     14  C   UNL     1      -0.122  12.198  22.321  0.00  0.00    +0.000 C 
ATOM     15  C   UNL     1      -0.321  10.984  21.465  0.00  0.00    +0.000 A 
ATOM     16  C   UNL     1       0.239   9.793  21.964  0.00  0.00    +0.000 A 
ATOM     17  C   UNL     1       0.827   8.921  21.083  0.00  0.00    +0.000 A 
ATOM     18  F   UNL     1       1.432   7.819  21.548  0.00  0.00    +0.000 F 
ATOM     19  C   UNL     1       0.885   9.265  19.742  0.00  0.00    +0.000 A 
ATOM     20  C   UNL     1       0.060  10.315  19.252  0.00  0.00    +0.000 A 
ATOM     21  C   UNL     1      -0.716  11.094  20.130  0.00  0.00    +0.000 A 
ATOM     22  O   UNL     1      -1.969  11.608  19.718  0.00  0.00    +0.000 OA
ATOM     23  C   UNL     1      -2.570  12.846  20.284  0.00  0.00    +0.000 C 
ATOM     24  C   UNL     1      -1.895  13.951  19.425  0.00  0.00    +0.000 C 
ATOM     25  C   UNL     1      -4.244  13.130  20.441  0.00  0.00    +0.000 C 
ENDROOT
BRANCH   1  26
ATOM     26  S   UNL     1      -6.843  12.079  21.281  0.00  0.00    +0.000 S 
ATOM     27  O   UNL     1      -7.694  12.328  22.404  0.00  0.00    +0.000 OA
ATOM     28  O   UNL     1      -6.767  10.757  20.668  0.00  0.00    +0.000 OA
BRANCH  26  30
ATOM     29  C   UNL     1      -7.530  12.778  18.614  0.00  0.00    +0.000 C 
ATOM     30  C   UNL     1      -7.221  13.338  19.998  0.00  0.00    +0.000 C 
ENDBRANCH  26  30
ENDBRANCH   1  26
TORSDOF 2
ENDMDL
MODEL 9
REMARK VINA RESULT:      -6.2      9.529     12.135
REMARK  Name = 
REMARK  5 active torsions:
REMARK  status: ('A' for Active; 'I' for Inactive)
REMARK    1  A    between atoms: C_1  and  C_2
REMARK    2  A    between atoms: C_2  and  S_3
REMARK    3  A    between atoms: S_3  and  N_6
REMARK    4  A    between atoms: N_17  and  C_18
REMARK    5  A    between atoms: C_28  and  C_29
REMARK                            x       y       z     vdW  Elec       q    Type
REMARK                         _______ _______ _______ _____ _____    ______ ____
ROOT
ATOM      1  N   UNL     1      -3.973  12.251  20.463  0.00  0.00    +0.000 NA
ATOM      2  C   UNL     1      -4.099  13.065  21.768  0.00  0.00    +0.000 C 
ATOM      3  C   UNL     1      -3.376  14.332  21.859  0.00  0.00    +0.000 A 
ATOM      4  C   UNL     1      -3.667  15.675  21.568  0.00  0.00    +0.000 A 
ATOM      5  N   UNL     1      -2.558  16.439  21.600  0.00  0.00    +0.000 NA
ATOM      6  N   UNL     1      -1.575  15.530  21.870  0.00  0.00    +0.000 N 
ATOM      7  C   UNL     1      -0.250  15.469  21.470  0.00  0.00    +0.000 A 
ATOM      8  C   UNL     1       0.412  14.301  21.593  0.00  0.00    +0.000 A 
ATOM      9  C   UNL     1      -0.347  13.122  22.226  0.00  0.00    +0.000 A 
ATOM     10  N   UNL     1      -1.431  13.359  22.913  0.00  0.00    +0.000 NA
ATOM     11  C   UNL     1      -2.135  14.401  22.428  0.00  0.00    +0.000 A 
ATOM     12  N   UNL     1      -0.078  11.769  22.012  0.00  0.00    +0.000 N 
ATOM     13  C   UNL     1      -1.224  10.806  22.028  0.00  0.00    +0.000 C 
ATOM     14  C   UNL     1       1.008  11.409  21.131  0.00  0.00    +0.000 C 
ATOM     15  C   UNL     1       0.719  10.226  20.258  0.00  0.00    +0.000 A 
ATOM     16  C   UNL     1       1.169   8.986  20.750  0.00  0.00    +0.000 A 
ATOM     17  C   UNL     1       1.693   8.077  19.867  0.00  0.00    +0.000 A 
ATOM     18  F   UNL     1       2.196   6.923  20.326  0.00  0.00    +0.000 F 
ATOM     19  C   UNL     1       1.799   8.430  18.531  0.00  0.00    +0.000 A 
ATOM     20  C   UNL     1       1.073   9.551  18.043  0.00  0.00    +0.000 A 
ATOM     21  C   UNL     1       0.353  10.384  18.920  0.00  0.00    +0.000 A 
ATOM     22  O   UNL     1      -0.845  11.007  18.497  0.00  0.00    +0.000 OA
ATOM     23  C   UNL     1      -1.347  12.285  19.070  0.00  0.00    +0.000 C 
ATOM     24  C   UNL     1      -0.570  13.338  18.234  0.00  0.00    +0.000 C 
ATOM     25  C   UNL     1      -2.994  12.708  19.208  0.00  0.00    +0.000 C 
ENDROOT
BRANCH   1  26
ATOM     26  S   UNL     1      -5.684  11.872  20.002  0.00  0.00    +0.000 S 
ATOM     27  O   UNL     1      -6.399  11.516  21.189  0.00  0.00    +0.000 OA
ATOM     28  O   UNL     1      -5.664  10.992  18.838  0.00  0.00    +0.000 OA
BRANCH  26  30
ATOM     29  C   UNL     1      -7.402  14.117  20.291  0.00  0.00    +0.000 C 
ATOM     30  C   UNL     1      -6.228  13.553  19.499  0.00  0.00    +0.000 C 
ENDBRANCH  26  30
ENDBRANCH   1  26
TORSDOF 2
ENDMDL
