MODEL 1
REMARK VINA RESULT:      -7.0      0.000      0.000
REMARK  Name = 
REMARK  2 active torsions:
REMARK  status: ('A' for Active; 'I' for Inactive)
REMARK    1  A    between atoms: C_1  and  N_2
REMARK    2  A    between atoms: C_19  and  C_21
REMARK                            x       y       z     vdW  Elec       q    Type
REMARK                         _______ _______ _______ _____ _____    ______ ____
ROOT
ATOM      1  C   UNL     1       0.850  14.992  21.868  0.00  0.00    +0.000 C 
ATOM      2  N   UNL     1       0.591  13.566  21.859  0.00  0.00    +0.000 NA
ATOM      3  C   UNL     1       1.305  12.897  20.737  0.00  0.00    +0.000 C 
ATOM      4  C   UNL     1       0.440  12.302  19.636  0.00  0.00    +0.000 A 
ATOM      5  C   UNL     1       0.183  13.016  18.451  0.00  0.00    +0.000 A 
ATOM      6  C   UNL     1      -0.818  12.576  17.572  0.00  0.00    +0.000 A 
ATOM      7  C   UNL     1      -1.490  11.371  17.802  0.00  0.00    +0.000 A 
ATOM      8  C   UNL     1      -1.205  10.610  18.936  0.00  0.00    +0.000 A 
ATOM      9  C   UNL     1      -0.302  11.122  19.877  0.00  0.00    +0.000 A 
ATOM     10  N   UNL     1      -0.432  10.680  21.213  0.00  0.00    +0.000 N 
ATOM     11  C   UNL     1      -0.479   9.385  21.659  0.00  0.00    +0.000 A 
ATOM     12  C   UNL     1      -0.511   9.480  23.028  0.00  0.00    +0.000 A 
ATOM     13  N   UNL     1      -0.612  10.787  23.427  0.00  0.00    +0.000 NA
ATOM     14  C   UNL     1      -0.626  11.510  22.316  0.00  0.00    +0.000 A 
ATOM     15  C   UNL     1      -0.785  13.061  22.183  0.00  0.00    +0.000 C 
ATOM     16  C   UNL     1      -1.818  13.412  21.093  0.00  0.00    +0.000 C 
ATOM     17  C   UNL     1      -2.306  14.834  21.195  0.00  0.00    +0.000 C 
ATOM     18  N   UNL     1      -3.326  14.734  22.180  0.00  0.00    +0.000 N 
ATOM     19  C   UNL     1      -4.539  14.269  21.633  0.00  0.00    +0.000 C 
ATOM     20  O   UNL     1      -4.697  14.166  20.405  0.00  0.00    +0.000 OA
ATOM     21  C   UNL     1      -2.770  14.472  23.512  0.00  0.00    +0.000 C 
ATOM     22  C   UNL     1      -1.435  13.605  23.549  0.00  0.00    +0.000 C 
ENDROOT
BRANCH  19  23
ATOM     23  C   UNL     1      -5.695  13.844  22.439  0.00  0.00    +0.000 A 
ATOM     24  C   UNL     1      -6.627  14.833  22.751  0.00  0.00    +0.000 A 
ATOM     25  C   UNL     1      -7.535  14.581  23.776  0.00  0.00    +0.000 A 
ATOM     26  C   UNL     1      -7.471  13.376  24.444  0.00  0.00    +0.000 A 
ATOM     27  C   UNL     1      -6.532  12.434  24.040  0.00  0.00    +0.000 A 
ATOM     28  N   UNL     1      -5.647  12.632  23.034  0.00  0.00    +0.000 NA
ENDBRANCH  19  23
TORSDOF 1
ENDMDL
MODEL 2
REMARK VINA RESULT:      -6.8      7.744     10.521
REMARK  Name = 
REMARK  2 active torsions:
REMARK  status: ('A' for Active; 'I' for Inactive)
REMARK    1  A    between atoms: C_1  and  N_2
REMARK    2  A    between atoms: C_19  and  C_21
REMARK                            x       y       z     vdW  Elec       q    Type
REMARK                         _______ _______ _______ _____ _____    ______ ____
ROOT
ATOM      1  C   UNL     1      10.812  16.394  19.540  0.00  0.00    +0.000 C 
ATOM      2  N   UNL     1      10.343  15.425  20.511  0.00  0.00    +0.000 NA
ATOM      3  C   UNL     1      11.283  14.276  20.622  0.00  0.00    +0.000 C 
ATOM      4  C   UNL     1      10.770  12.926  20.142  0.00  0.00    +0.000 A 
ATOM      5  C   UNL     1      11.060  12.458  18.848  0.00  0.00    +0.000 A 
ATOM      6  C   UNL     1      10.370  11.351  18.332  0.00  0.00    +0.000 A 
ATOM      7  C   UNL     1       9.472  10.635  19.130  0.00  0.00    +0.000 A 
ATOM      8  C   UNL     1       9.217  11.039  20.441  0.00  0.00    +0.000 A 
ATOM      9  C   UNL     1       9.808  12.222  20.905  0.00  0.00    +0.000 A 
ATOM     10  N   UNL     1       9.152  12.914  21.948  0.00  0.00    +0.000 N 
ATOM     11  C   UNL     1       8.742  12.405  23.152  0.00  0.00    +0.000 A 
ATOM     12  C   UNL     1       8.252  13.482  23.848  0.00  0.00    +0.000 A 
ATOM     13  N   UNL     1       8.233  14.605  23.062  0.00  0.00    +0.000 NA
ATOM     14  C   UNL     1       8.725  14.239  21.887  0.00  0.00    +0.000 A 
ATOM     15  C   UNL     1       8.878  15.112  20.597  0.00  0.00    +0.000 C 
ATOM     16  C   UNL     1       8.360  14.351  19.359  0.00  0.00    +0.000 C 
ATOM     17  C   UNL     1       8.107  15.262  18.185  0.00  0.00    +0.000 C 
ATOM     18  N   UNL     1       6.806  15.763  18.466  0.00  0.00    +0.000 N 
ATOM     19  C   UNL     1       5.800  14.853  18.084  0.00  0.00    +0.000 C 
ATOM     20  O   UNL     1       6.064  13.843  17.409  0.00  0.00    +0.000 OA
ATOM     21  C   UNL     1       6.814  16.681  19.610  0.00  0.00    +0.000 C 
ATOM     22  C   UNL     1       7.892  16.374  20.741  0.00  0.00    +0.000 C 
ENDROOT
BRANCH  19  23
ATOM     23  C   UNL     1       4.383  14.988  18.460  0.00  0.00    +0.000 A 
ATOM     24  C   UNL     1       3.598  15.786  17.628  0.00  0.00    +0.000 A 
ATOM     25  C   UNL     1       2.368  16.226  18.110  0.00  0.00    +0.000 A 
ATOM     26  C   UNL     1       1.982  15.867  19.384  0.00  0.00    +0.000 A 
ATOM     27  C   UNL     1       2.814  15.037  20.128  0.00  0.00    +0.000 A 
ATOM     28  N   UNL     1       4.005  14.570  19.688  0.00  0.00    +0.000 NA
ENDBRANCH  19  23
TORSDOF 1
ENDMDL
MODEL 3
REMARK VINA RESULT:      -6.6      2.576      6.907
REMARK  Name = 
REMARK  2 active torsions:
REMARK  status: ('A' for Active; 'I' for Inactive)
REMARK    1  A    between atoms: C_1  and  N_2
REMARK    2  A    between atoms: C_19  and  C_21
REMARK                            x       y       z     vdW  Elec       q    Type
REMARK                         _______ _______ _______ _____ _____    ______ ____
ROOT
ATOM      1  C   UNL     1      -5.855  14.855  18.515  0.00  0.00    +0.000 C 
ATOM      2  N   UNL     1      -6.429  13.666  19.114  0.00  0.00    +0.000 NA
ATOM      3  C   UNL     1      -7.676  13.988  19.861  0.00  0.00    +0.000 C 
ATOM      4  C   UNL     1      -7.629  13.816  21.372  0.00  0.00    +0.000 A 
ATOM      5  C   UNL     1      -7.374  14.909  22.219  0.00  0.00    +0.000 A 
ATOM      6  C   UNL     1      -7.073  14.692  23.572  0.00  0.00    +0.000 A 
ATOM      7  C   UNL     1      -7.133  13.406  24.119  0.00  0.00    +0.000 A 
ATOM      8  C   UNL     1      -7.449  12.312  23.313  0.00  0.00    +0.000 A 
ATOM      9  C   UNL     1      -7.616  12.519  21.937  0.00  0.00    +0.000 A 
ATOM     10  N   UNL     1      -7.375  11.423  21.079  0.00  0.00    +0.000 N 
ATOM     11  C   UNL     1      -7.915  10.166  21.164  0.00  0.00    +0.000 A 
ATOM     12  C   UNL     1      -7.449   9.501  20.057  0.00  0.00    +0.000 A 
ATOM     13  N   UNL     1      -6.545  10.267  19.369  0.00  0.00    +0.000 NA
ATOM     14  C   UNL     1      -6.457  11.413  20.030  0.00  0.00    +0.000 A 
ATOM     15  C   UNL     1      -5.525  12.631  19.718  0.00  0.00    +0.000 C 
ATOM     16  C   UNL     1      -4.829  13.128  21.002  0.00  0.00    +0.000 C 
ATOM     17  C   UNL     1      -3.641  14.009  20.711  0.00  0.00    +0.000 C 
ATOM     18  N   UNL     1      -2.610  13.058  20.476  0.00  0.00    +0.000 N 
ATOM     19  C   UNL     1      -2.061  12.574  21.680  0.00  0.00    +0.000 C 
ATOM     20  O   UNL     1      -2.341  13.092  22.774  0.00  0.00    +0.000 OA
ATOM     21  C   UNL     1      -2.813  12.339  19.214  0.00  0.00    +0.000 C 
ATOM     22  C   UNL     1      -4.328  12.105  18.783  0.00  0.00    +0.000 C 
ENDROOT
BRANCH  19  23
ATOM     23  C   UNL     1      -1.150  11.419  21.762  0.00  0.00    +0.000 A 
ATOM     24  C   UNL     1      -1.294  10.599  22.880  0.00  0.00    +0.000 A 
ATOM     25  C   UNL     1      -0.260   9.717  23.185  0.00  0.00    +0.000 A 
ATOM     26  C   UNL     1       0.860   9.697  22.383  0.00  0.00    +0.000 A 
ATOM     27  C   UNL     1       0.901  10.526  21.267  0.00  0.00    +0.000 A 
ATOM     28  N   UNL     1      -0.092  11.380  20.923  0.00  0.00    +0.000 NA
ENDBRANCH  19  23
TORSDOF 1
ENDMDL
MODEL 4
REMARK VINA RESULT:      -6.4      3.205      7.138
REMARK  Name = 
REMARK  2 active torsions:
REMARK  status: ('A' for Active; 'I' for Inactive)
REMARK    1  A    between atoms: C_1  and  N_2
REMARK    2  A    between atoms: C_19  and  C_21
REMARK                            x       y       z     vdW  Elec       q    Type
REMARK                         _______ _______ _______ _____ _____    ______ ____
ROOT
ATOM      1  C   UNL     1      -6.095  13.053  16.916  0.00  0.00    +0.000 C 
ATOM      2  N   UNL     1      -6.615  12.176  17.947  0.00  0.00    +0.000 NA
ATOM      3  C   UNL     1      -7.768  12.800  18.653  0.00  0.00    +0.000 C 
ATOM      4  C   UNL     1      -7.557  13.161  20.116  0.00  0.00    +0.000 A 
ATOM      5  C   UNL     1      -7.197  14.466  20.497  0.00  0.00    +0.000 A 
ATOM      6  C   UNL     1      -6.751  14.717  21.803  0.00  0.00    +0.000 A 
ATOM      7  C   UNL     1      -6.767  13.706  22.769  0.00  0.00    +0.000 A 
ATOM      8  C   UNL     1      -7.185  12.418  22.433  0.00  0.00    +0.000 A 
ATOM      9  C   UNL     1      -7.499  12.142  21.096  0.00  0.00    +0.000 A 
ATOM     10  N   UNL     1      -7.368  10.805  20.657  0.00  0.00    +0.000 N 
ATOM     11  C   UNL     1      -7.912   9.685  21.230  0.00  0.00    +0.000 A 
ATOM     12  C   UNL     1      -7.580   8.655  20.386  0.00  0.00    +0.000 A 
ATOM     13  N   UNL     1      -6.747   9.088  19.388  0.00  0.00    +0.000 NA
ATOM     14  C   UNL     1      -6.572  10.385  19.593  0.00  0.00    +0.000 A 
ATOM     15  C   UNL     1      -5.664  11.371  18.784  0.00  0.00    +0.000 C 
ATOM     16  C   UNL     1      -4.824  12.246  19.736  0.00  0.00    +0.000 C 
ATOM     17  C   UNL     1      -3.664  12.910  19.039  0.00  0.00    +0.000 C 
ATOM     18  N   UNL     1      -2.677  11.886  19.052  0.00  0.00    +0.000 N 
ATOM     19  C   UNL     1      -2.005  11.822  20.289  0.00  0.00    +0.000 C 
ATOM     20  O   UNL     1      -2.157  12.701  21.154  0.00  0.00    +0.000 OA
ATOM     21  C   UNL     1      -3.028  10.784  18.149  0.00  0.00    +0.000 C 
ATOM     22  C   UNL     1      -4.584  10.493  17.979  0.00  0.00    +0.000 C 
ENDROOT
BRANCH  19  23
ATOM     23  C   UNL     1      -1.106  10.723  20.680  0.00  0.00    +0.000 A 
ATOM     24  C   UNL     1      -0.885  10.565  22.048  0.00  0.00    +0.000 A 
ATOM     25  C   UNL     1       0.199   9.790  22.453  0.00  0.00    +0.000 A 
ATOM     26  C   UNL     1       1.010   9.223  21.494  0.00  0.00    +0.000 A 
ATOM     27  C   UNL     1       0.691   9.405  20.152  0.00  0.00    +0.000 A 
ATOM     28  N   UNL     1      -0.365  10.131  19.718  0.00  0.00    +0.000 NA
ENDBRANCH  19  23
TORSDOF 1
ENDMDL
MODEL 5
REMARK VINA RESULT:      -6.3      7.373     10.028
REMARK  Name = 
REMARK  2 active torsions:
REMARK  status: ('A' for Active; 'I' for Inactive)
REMARK    1  A    between atoms: C_1  and  N_2
REMARK    2  A    between atoms: C_19  and  C_21
REMARK                            x       y       z     vdW  Elec       q    Type
REMARK                         _______ _______ _______ _____ _____    ______ ____
ROOT
ATOM      1  C   UNL     1       9.945  16.925  20.738  0.00  0.00    +0.000 C 
ATOM      2  N   UNL     1       9.672  15.570  21.171  0.00  0.00    +0.000 NA
ATOM      3  C   UNL     1      10.801  14.659  20.833  0.00  0.00    +0.000 C 
ATOM      4  C   UNL     1      10.522  13.584  19.793  0.00  0.00    +0.000 A 
ATOM      5  C   UNL     1      10.864  13.776  18.442  0.00  0.00    +0.000 A 
ATOM      6  C   UNL     1      10.367  12.903  17.463  0.00  0.00    +0.000 A 
ATOM      7  C   UNL     1       9.625  11.774  17.825  0.00  0.00    +0.000 A 
ATOM      8  C   UNL     1       9.330  11.524  19.165  0.00  0.00    +0.000 A 
ATOM      9  C   UNL     1       9.713  12.471  20.124  0.00  0.00    +0.000 A 
ATOM     10  N   UNL     1       8.968  12.525  21.323  0.00  0.00    +0.000 N 
ATOM     11  C   UNL     1       8.677  11.485  22.168  0.00  0.00    +0.000 A 
ATOM     12  C   UNL     1       8.020  12.059  23.228  0.00  0.00    +0.000 A 
ATOM     13  N   UNL     1       7.790  13.391  22.999  0.00  0.00    +0.000 NA
ATOM     14  C   UNL     1       8.314  13.655  21.811  0.00  0.00    +0.000 A 
ATOM     15  C   UNL     1       8.286  15.011  21.030  0.00  0.00    +0.000 C 
ATOM     16  C   UNL     1       7.884  14.785  19.558  0.00  0.00    +0.000 C 
ATOM     17  C   UNL     1       7.452  16.057  18.875  0.00  0.00    +0.000 C 
ATOM     18  N   UNL     1       6.090  16.163  19.268  0.00  0.00    +0.000 N 
ATOM     19  C   UNL     1       5.252  15.354  18.475  0.00  0.00    +0.000 C 
ATOM     20  O   UNL     1       5.674  14.794  17.450  0.00  0.00    +0.000 OA
ATOM     21  C   UNL     1       5.960  16.485  20.693  0.00  0.00    +0.000 C 
ATOM     22  C   UNL     1       7.098  15.904  21.643  0.00  0.00    +0.000 C 
ENDROOT
BRANCH  19  23
ATOM     23  C   UNL     1       3.840  15.075  18.790  0.00  0.00    +0.000 A 
ATOM     24  C   UNL     1       3.421  13.756  18.627  0.00  0.00    +0.000 A 
ATOM     25  C   UNL     1       2.053  13.503  18.572  0.00  0.00    +0.000 A 
ATOM     26  C   UNL     1       1.173  14.560  18.670  0.00  0.00    +0.000 A 
ATOM     27  C   UNL     1       1.682  15.839  18.868  0.00  0.00    +0.000 A 
ATOM     28  N   UNL     1       3.002  16.123  18.949  0.00  0.00    +0.000 NA
ENDBRANCH  19  23
TORSDOF 1
ENDMDL
MODEL 6
REMARK VINA RESULT:      -6.3     10.162     12.832
REMARK  Name = 
REMARK  2 active torsions:
REMARK  status: ('A' for Active; 'I' for Inactive)
REMARK    1  A    between atoms: C_1  and  N_2
REMARK    2  A    between atoms: C_19  and  C_21
REMARK                            x       y       z     vdW  Elec       q    Type
REMARK                         _______ _______ _______ _____ _____    ______ ____
ROOT
ATOM      1  C   UNL     1       6.045  14.332  18.110  0.00  0.00    +0.000 C 
ATOM      2  N   UNL     1       7.442  14.502  17.764  0.00  0.00    +0.000 NA
ATOM      3  C   UNL     1       7.962  13.316  17.029  0.00  0.00    +0.000 C 
ATOM      4  C   UNL     1       9.015  12.481  17.741  0.00  0.00    +0.000 A 
ATOM      5  C   UNL     1       8.661  11.320  18.453  0.00  0.00    +0.000 A 
ATOM      6  C   UNL     1       9.589  10.717  19.315  0.00  0.00    +0.000 A 
ATOM      7  C   UNL     1      10.903  11.188  19.391  0.00  0.00    +0.000 A 
ATOM      8  C   UNL     1      11.299  12.298  18.643  0.00  0.00    +0.000 A 
ATOM      9  C   UNL     1      10.332  12.977  17.889  0.00  0.00    +0.000 A 
ATOM     10  N   UNL     1      10.563  14.342  17.611  0.00  0.00    +0.000 N 
ATOM     11  C   UNL     1      11.685  14.899  17.055  0.00  0.00    +0.000 A 
ATOM     12  C   UNL     1      11.385  16.231  16.902  0.00  0.00    +0.000 A 
ATOM     13  N   UNL     1      10.170  16.527  17.462  0.00  0.00    +0.000 NA
ATOM     14  C   UNL     1       9.701  15.386  17.946  0.00  0.00    +0.000 A 
ATOM     15  C   UNL     1       8.374  15.154  18.743  0.00  0.00    +0.000 C 
ATOM     16  C   UNL     1       8.630  14.283  19.990  0.00  0.00    +0.000 C 
ATOM     17  C   UNL     1       7.506  14.362  20.991  0.00  0.00    +0.000 C 
ATOM     18  N   UNL     1       7.825  15.547  21.710  0.00  0.00    +0.000 N 
ATOM     19  C   UNL     1       8.801  15.313  22.698  0.00  0.00    +0.000 C 
ATOM     20  O   UNL     1       9.158  14.161  22.996  0.00  0.00    +0.000 OA
ATOM     21  C   UNL     1       7.630  16.748  20.889  0.00  0.00    +0.000 C 
ATOM     22  C   UNL     1       7.902  16.575  19.330  0.00  0.00    +0.000 C 
ENDROOT
BRANCH  19  23
ATOM     23  C   UNL     1       9.497  16.382  23.435  0.00  0.00    +0.000 A 
ATOM     24  C   UNL     1      10.881  16.441  23.274  0.00  0.00    +0.000 A 
ATOM     25  C   UNL     1      11.618  17.185  24.192  0.00  0.00    +0.000 A 
ATOM     26  C   UNL     1      10.958  17.821  25.221  0.00  0.00    +0.000 A 
ATOM     27  C   UNL     1       9.571  17.736  25.282  0.00  0.00    +0.000 A 
ATOM     28  N   UNL     1       8.817  17.042  24.397  0.00  0.00    +0.000 NA
ENDBRANCH  19  23
TORSDOF 1
ENDMDL
MODEL 7
REMARK VINA RESULT:      -6.2      7.157      9.802
REMARK  Name = 
REMARK  2 active torsions:
REMARK  status: ('A' for Active; 'I' for Inactive)
REMARK    1  A    between atoms: C_1  and  N_2
REMARK    2  A    between atoms: C_19  and  C_21
REMARK                            x       y       z     vdW  Elec       q    Type
REMARK                         _______ _______ _______ _____ _____    ______ ____
ROOT
ATOM      1  C   UNL     1       9.610  16.873  21.121  0.00  0.00    +0.000 C 
ATOM      2  N   UNL     1       9.293  15.541  21.595  0.00  0.00    +0.000 NA
ATOM      3  C   UNL     1      10.461  14.628  21.455  0.00  0.00    +0.000 C 
ATOM      4  C   UNL     1      10.322  13.492  20.453  0.00  0.00    +0.000 A 
ATOM      5  C   UNL     1      10.831  13.611  19.147  0.00  0.00    +0.000 A 
ATOM      6  C   UNL     1      10.468  12.677  18.165  0.00  0.00    +0.000 A 
ATOM      7  C   UNL     1       9.693  11.560  18.495  0.00  0.00    +0.000 A 
ATOM      8  C   UNL     1       9.232  11.383  19.800  0.00  0.00    +0.000 A 
ATOM      9  C   UNL     1       9.485  12.389  20.743  0.00  0.00    +0.000 A 
ATOM     10  N   UNL     1       8.594  12.500  21.833  0.00  0.00    +0.000 N 
ATOM     11  C   UNL     1       8.205  11.507  22.694  0.00  0.00    +0.000 A 
ATOM     12  C   UNL     1       7.416  12.131  23.627  0.00  0.00    +0.000 A 
ATOM     13  N   UNL     1       7.208  13.444  23.295  0.00  0.00    +0.000 NA
ATOM     14  C   UNL     1       7.877  13.648  22.169  0.00  0.00    +0.000 A 
ATOM     15  C   UNL     1       7.939  14.956  21.313  0.00  0.00    +0.000 C 
ATOM     16  C   UNL     1       7.729  14.641  19.817  0.00  0.00    +0.000 C 
ATOM     17  C   UNL     1       7.378  15.867  19.013  0.00  0.00    +0.000 C 
ATOM     18  N   UNL     1       5.976  15.977  19.224  0.00  0.00    +0.000 N 
ATOM     19  C   UNL     1       5.251  15.113  18.380  0.00  0.00    +0.000 C 
ATOM     20  O   UNL     1       5.803  14.501  17.451  0.00  0.00    +0.000 OA
ATOM     21  C   UNL     1       5.665  16.378  20.600  0.00  0.00    +0.000 C 
ATOM     22  C   UNL     1       6.677  15.866  21.719  0.00  0.00    +0.000 C 
ENDROOT
BRANCH  19  23
ATOM     23  C   UNL     1       3.812  14.833  18.530  0.00  0.00    +0.000 A 
ATOM     24  C   UNL     1       2.943  15.852  18.142  0.00  0.00    +0.000 A 
ATOM     25  C   UNL     1       1.621  15.788  18.575  0.00  0.00    +0.000 A 
ATOM     26  C   UNL     1       1.229  14.734  19.372  0.00  0.00    +0.000 A 
ATOM     27  C   UNL     1       2.156  13.744  19.679  0.00  0.00    +0.000 A 
ATOM     28  N   UNL     1       3.443  13.759  19.260  0.00  0.00    +0.000 NA
ENDBRANCH  19  23
TORSDOF 1
ENDMDL
MODEL 8
REMARK VINA RESULT:      -6.1      2.514      4.104
REMARK  Name = 
REMARK  2 active torsions:
REMARK  status: ('A' for Active; 'I' for Inactive)
REMARK    1  A    between atoms: C_1  and  N_2
REMARK    2  A    between atoms: C_19  and  C_21
REMARK                            x       y       z     vdW  Elec       q    Type
REMARK                         _______ _______ _______ _____ _____    ______ ____
ROOT
ATOM      1  C   UNL     1      -1.883  15.756  24.632  0.00  0.00    +0.000 C 
ATOM      2  N   UNL     1      -1.056  15.274  23.544  0.00  0.00    +0.000 NA
ATOM      3  C   UNL     1      -0.211  16.365  22.986  0.00  0.00    +0.000 C 
ATOM      4  C   UNL     1      -0.519  16.806  21.562  0.00  0.00    +0.000 A 
ATOM      5  C   UNL     1      -1.337  17.922  21.310  0.00  0.00    +0.000 A 
ATOM      6  C   UNL     1      -1.824  18.155  20.015  0.00  0.00    +0.000 A 
ATOM      7  C   UNL     1      -1.414  17.353  18.944  0.00  0.00    +0.000 A 
ATOM      8  C   UNL     1      -0.549  16.280  19.157  0.00  0.00    +0.000 A 
ATOM      9  C   UNL     1      -0.175  15.972  20.472  0.00  0.00    +0.000 A 
ATOM     10  N   UNL     1       0.198  14.638  20.749  0.00  0.00    +0.000 N 
ATOM     11  C   UNL     1       1.132  13.882  20.088  0.00  0.00    +0.000 A 
ATOM     12  C   UNL     1       1.197  12.703  20.788  0.00  0.00    +0.000 A 
ATOM     13  N   UNL     1       0.247  12.665  21.775  0.00  0.00    +0.000 NA
ATOM     14  C   UNL     1      -0.399  13.820  21.707  0.00  0.00    +0.000 A 
ATOM     15  C   UNL     1      -1.622  14.287  22.564  0.00  0.00    +0.000 C 
ATOM     16  C   UNL     1      -2.715  14.903  21.666  0.00  0.00    +0.000 C 
ATOM     17  C   UNL     1      -4.050  14.995  22.360  0.00  0.00    +0.000 C 
ATOM     18  N   UNL     1      -4.579  13.689  22.170  0.00  0.00    +0.000 N 
ATOM     19  C   UNL     1      -5.159  13.540  20.894  0.00  0.00    +0.000 C 
ATOM     20  O   UNL     1      -5.335  14.515  20.145  0.00  0.00    +0.000 OA
ATOM     21  C   UNL     1      -3.855  12.690  22.963  0.00  0.00    +0.000 C 
ATOM     22  C   UNL     1      -2.306  12.976  23.195  0.00  0.00    +0.000 C 
ENDROOT
BRANCH  19  23
ATOM     23  C   UNL     1      -5.574  12.245  20.326  0.00  0.00    +0.000 A 
ATOM     24  C   UNL     1      -5.091  11.948  19.053  0.00  0.00    +0.000 A 
ATOM     25  C   UNL     1      -5.712  10.928  18.336  0.00  0.00    +0.000 A 
ATOM     26  C   UNL     1      -6.777  10.264  18.906  0.00  0.00    +0.000 A 
ATOM     27  C   UNL     1      -7.166  10.604  20.197  0.00  0.00    +0.000 A 
ATOM     28  N   UNL     1      -6.575  11.573  20.934  0.00  0.00    +0.000 NA
ENDBRANCH  19  23
TORSDOF 1
ENDMDL
MODEL 9
REMARK VINA RESULT:      -6.1      2.907      6.829
REMARK  Name = 
REMARK  2 active torsions:
REMARK  status: ('A' for Active; 'I' for Inactive)
REMARK    1  A    between atoms: C_1  and  N_2
REMARK    2  A    between atoms: C_19  and  C_21
REMARK                            x       y       z     vdW  Elec       q    Type
REMARK                         _______ _______ _______ _____ _____    ______ ____
ROOT
ATOM      1  C   UNL     1      -6.837  13.301  23.382  0.00  0.00    +0.000 C 
ATOM      2  N   UNL     1      -6.879  13.885  22.056  0.00  0.00    +0.000 NA
ATOM      3  C   UNL     1      -7.912  13.225  21.210  0.00  0.00    +0.000 C 
ATOM      4  C   UNL     1      -7.407  12.418  20.023  0.00  0.00    +0.000 A 
ATOM      5  C   UNL     1      -7.237  11.024  20.113  0.00  0.00    +0.000 A 
ATOM      6  C   UNL     1      -6.528  10.339  19.115  0.00  0.00    +0.000 A 
ATOM      7  C   UNL     1      -6.084  11.008  17.969  0.00  0.00    +0.000 A 
ATOM      8  C   UNL     1      -6.300  12.378  17.824  0.00  0.00    +0.000 A 
ATOM      9  C   UNL     1      -6.888  13.080  18.885  0.00  0.00    +0.000 A 
ATOM     10  N   UNL     1      -6.603  14.460  18.992  0.00  0.00    +0.000 N 
ATOM     11  C   UNL     1      -6.737  15.414  18.018  0.00  0.00    +0.000 A 
ATOM     12  C   UNL     1      -6.431  16.601  18.635  0.00  0.00    +0.000 A 
ATOM     13  N   UNL     1      -5.994  16.389  19.916  0.00  0.00    +0.000 NA
ATOM     14  C   UNL     1      -6.042  15.078  20.108  0.00  0.00    +0.000 A 
ATOM     15  C   UNL     1      -5.599  14.278  21.378  0.00  0.00    +0.000 C 
ATOM     16  C   UNL     1      -4.739  13.060  20.982  0.00  0.00    +0.000 C 
ATOM     17  C   UNL     1      -3.962  12.498  22.146  0.00  0.00    +0.000 C 
ATOM     18  N   UNL     1      -2.817  13.341  22.180  0.00  0.00    +0.000 N 
ATOM     19  C   UNL     1      -1.849  12.947  21.235  0.00  0.00    +0.000 C 
ATOM     20  O   UNL     1      -1.948  11.875  20.616  0.00  0.00    +0.000 OA
ATOM     21  C   UNL     1      -3.156  14.698  22.624  0.00  0.00    +0.000 C 
ATOM     22  C   UNL     1      -4.608  15.217  22.227  0.00  0.00    +0.000 C 
ENDROOT
BRANCH  19  23
ATOM     23  C   UNL     1      -0.673  13.758  20.876  0.00  0.00    +0.000 A 
ATOM     24  C   UNL     1      -0.675  14.314  19.598  0.00  0.00    +0.000 A 
ATOM     25  C   UNL     1       0.531  14.786  19.085  0.00  0.00    +0.000 A 
ATOM     26  C   UNL     1       1.672  14.677  19.851  0.00  0.00    +0.000 A 
ATOM     27  C   UNL     1       1.572  14.140  21.130  0.00  0.00    +0.000 A 
ATOM     28  N   UNL     1       0.416  13.691  21.673  0.00  0.00    +0.000 NA
ENDBRANCH  19  23
TORSDOF 1
ENDMDL
