MODEL 1
REMARK VINA RESULT:      -8.3      0.000      0.000
REMARK  Name = 
REMARK  9 active torsions:
REMARK  status: ('A' for Active; 'I' for Inactive)
REMARK    1  A    between atoms: C_1  and  O_2
REMARK    2  A    between atoms: O_2  and  C_3
REMARK    3  A    between atoms: C_3  and  C_5
REMARK    4  A    between atoms: C_5  and  C_6
REMARK    5  A    between atoms: C_8  and  C_9
REMARK    6  A    between atoms: C_14  and  C_15
REMARK    7  A    between atoms: C_19  and  O_20
REMARK    8  A    between atoms: O_20  and  C_21
REMARK    9  A    between atoms: C_26  and  C_27
REMARK                            x       y       z     vdW  Elec       q    Type
REMARK                         _______ _______ _______ _____ _____    ______ ____
ROOT
ATOM      1  C   UNL     1       5.081   6.620  16.172  0.00  0.00    +0.000 C 
ATOM      2  N   UNL     1       4.027   7.407  16.820  0.00  0.00    +0.000 NA
ATOM      3  C   UNL     1       3.450   7.055  17.917  0.00  0.00    +0.000 C 
ATOM      4  C   UNL     1       3.700   5.766  18.641  0.00  0.00    +0.000 A 
ATOM      5  C   UNL     1       2.569   5.072  19.105  0.00  0.00    +0.000 A 
ATOM      6  C   UNL     1       2.685   3.836  19.739  0.00  0.00    +0.000 A 
ATOM      7  C   UNL     1       3.943   3.265  19.888  0.00  0.00    +0.000 A 
ATOM      8  C   UNL     1       5.080   3.942  19.441  0.00  0.00    +0.000 A 
ATOM      9  C   UNL     1       4.969   5.200  18.836  0.00  0.00    +0.000 A 
ATOM     10  N   UNL     1       6.135   5.813  18.329  0.00  0.00    +0.000 N 
ATOM     11  C   UNL     1       7.422   5.828  18.845  0.00  0.00    +0.000 A 
ATOM     12  C   UNL     1       7.859   5.340  20.176  0.00  0.00    +0.000 C 
ATOM     13  N   UNL     1       8.215   6.452  17.996  0.00  0.00    +0.000 NA
ATOM     14  N   UNL     1       7.471   6.847  16.917  0.00  0.00    +0.000 NA
ATOM     15  C   UNL     1       6.230   6.459  17.114  0.00  0.00    +0.000 A 
ENDROOT
BRANCH   3  16
ATOM     16  C   UNL     1       2.418   7.989  18.468  0.00  0.00    +0.000 A 
ATOM     17  C   UNL     1       1.762   8.868  17.602  0.00  0.00    +0.000 A 
ATOM     18  C   UNL     1       0.744   9.689  18.091  0.00  0.00    +0.000 A 
ATOM     19  C   UNL     1       0.390   9.649  19.445  0.00  0.00    +0.000 A 
ATOM     20 CL   UNL     1      -0.899  10.682  19.953  0.00  0.00    +0.000 Cl
ATOM     21  C   UNL     1       1.060   8.801  20.334  0.00  0.00    +0.000 A 
ATOM     22  C   UNL     1       0.756   8.710  21.804  0.00  0.00    +0.000 C 
ATOM     23  C   UNL     1       2.086   7.979  19.830  0.00  0.00    +0.000 A 
ENDBRANCH   3  16
BRANCH   6  24
ATOM     24  O   UNL     1       1.499   3.288  20.135  0.00  0.00    +0.000 OA
ATOM     25  C   UNL     1       1.470   2.709  21.434  0.00  0.00    +0.000 C 
ENDBRANCH   6  24
BRANCH   1  26
ATOM     26  C   UNL     1       4.564   5.305  15.588  0.00  0.00    +0.000 C 
BRANCH  26  27
ATOM     27  C   UNL     1       5.687   4.364  15.242  0.00  0.00    +0.000 C 
ATOM     28  O   UNL     1       6.013   3.400  15.934  0.00  0.00    +0.000 OA
BRANCH  27  30
ATOM     29  C   UNL     1       6.306   3.837  13.048  0.00  0.00    +0.000 C 
ATOM     30  O   UNL     1       6.325   4.782  14.120  0.00  0.00    +0.000 OA
ENDBRANCH  27  30
ENDBRANCH  26  27
ENDBRANCH   1  26
TORSDOF 5
ENDMDL
MODEL 2
REMARK VINA RESULT:      -7.8      0.646      1.314
REMARK  Name = 
REMARK  9 active torsions:
REMARK  status: ('A' for Active; 'I' for Inactive)
REMARK    1  A    between atoms: C_1  and  O_2
REMARK    2  A    between atoms: O_2  and  C_3
REMARK    3  A    between atoms: C_3  and  C_5
REMARK    4  A    between atoms: C_5  and  C_6
REMARK    5  A    between atoms: C_8  and  C_9
REMARK    6  A    between atoms: C_14  and  C_15
REMARK    7  A    between atoms: C_19  and  O_20
REMARK    8  A    between atoms: O_20  and  C_21
REMARK    9  A    between atoms: C_26  and  C_27
REMARK                            x       y       z     vdW  Elec       q    Type
REMARK                         _______ _______ _______ _____ _____    ______ ____
ROOT
ATOM      1  C   UNL     1       4.977   6.856  16.470  0.00  0.00    +0.000 C 
ATOM      2  N   UNL     1       3.906   7.476  17.255  0.00  0.00    +0.000 NA
ATOM      3  C   UNL     1       3.411   6.950  18.323  0.00  0.00    +0.000 C 
ATOM      4  C   UNL     1       3.786   5.605  18.868  0.00  0.00    +0.000 A 
ATOM      5  C   UNL     1       2.731   4.776  19.288  0.00  0.00    +0.000 A 
ATOM      6  C   UNL     1       2.965   3.485  19.756  0.00  0.00    +0.000 A 
ATOM      7  C   UNL     1       4.265   2.996  19.779  0.00  0.00    +0.000 A 
ATOM      8  C   UNL     1       5.328   3.806  19.373  0.00  0.00    +0.000 A 
ATOM      9  C   UNL     1       5.100   5.116  18.937  0.00  0.00    +0.000 A 
ATOM     10  N   UNL     1       6.193   5.872  18.462  0.00  0.00    +0.000 N 
ATOM     11  C   UNL     1       7.500   5.921  18.921  0.00  0.00    +0.000 A 
ATOM     12  C   UNL     1       8.038   5.308  20.161  0.00  0.00    +0.000 C 
ATOM     13  N   UNL     1       8.204   6.702  18.125  0.00  0.00    +0.000 NA
ATOM     14  N   UNL     1       7.380   7.169  17.136  0.00  0.00    +0.000 NA
ATOM     15  C   UNL     1       6.181   6.667  17.335  0.00  0.00    +0.000 A 
ENDROOT
BRANCH   3  16
ATOM     16  C   UNL     1       2.346   7.730  19.030  0.00  0.00    +0.000 A 
ATOM     17  C   UNL     1       2.044   7.422  20.358  0.00  0.00    +0.000 A 
ATOM     18  C   UNL     1       1.108   8.192  21.051  0.00  0.00    +0.000 A 
ATOM     19  C   UNL     1       0.459   9.258  20.417  0.00  0.00    +0.000 A 
ATOM     20 CL   UNL     1      -0.664  10.171  21.361  0.00  0.00    +0.000 Cl
ATOM     21  C   UNL     1       0.722   9.559  19.076  0.00  0.00    +0.000 A 
ATOM     22  C   UNL     1       0.057  10.672  18.315  0.00  0.00    +0.000 C 
ATOM     23  C   UNL     1       1.666   8.775  18.387  0.00  0.00    +0.000 A 
ENDBRANCH   3  16
BRANCH   6  24
ATOM     24  O   UNL     1       1.842   2.805  20.130  0.00  0.00    +0.000 OA
ATOM     25  C   UNL     1       1.560   2.762  21.524  0.00  0.00    +0.000 C 
ENDBRANCH   6  24
BRANCH   1  26
ATOM     26  C   UNL     1       4.523   5.587  15.748  0.00  0.00    +0.000 C 
BRANCH  26  27
ATOM     27  C   UNL     1       5.688   4.796  15.216  0.00  0.00    +0.000 C 
ATOM     28  O   UNL     1       5.991   3.671  15.610  0.00  0.00    +0.000 OA
BRANCH  27  30
ATOM     29  C   UNL     1       7.353   4.785  13.572  0.00  0.00    +0.000 C 
ATOM     30  O   UNL     1       6.388   5.531  14.316  0.00  0.00    +0.000 OA
ENDBRANCH  27  30
ENDBRANCH  26  27
ENDBRANCH   1  26
TORSDOF 5
ENDMDL
MODEL 3
REMARK VINA RESULT:      -7.7      0.681      1.028
REMARK  Name = 
REMARK  9 active torsions:
REMARK  status: ('A' for Active; 'I' for Inactive)
REMARK    1  A    between atoms: C_1  and  O_2
REMARK    2  A    between atoms: O_2  and  C_3
REMARK    3  A    between atoms: C_3  and  C_5
REMARK    4  A    between atoms: C_5  and  C_6
REMARK    5  A    between atoms: C_8  and  C_9
REMARK    6  A    between atoms: C_14  and  C_15
REMARK    7  A    between atoms: C_19  and  O_20
REMARK    8  A    between atoms: O_20  and  C_21
REMARK    9  A    between atoms: C_26  and  C_27
REMARK                            x       y       z     vdW  Elec       q    Type
REMARK                         _______ _______ _______ _____ _____    ______ ____
ROOT
ATOM      1  C   UNL     1       5.308   6.869  16.234  0.00  0.00    +0.000 C 
ATOM      2  N   UNL     1       4.201   7.590  16.868  0.00  0.00    +0.000 NA
ATOM      3  C   UNL     1       3.573   7.159  17.907  0.00  0.00    +0.000 C 
ATOM      4  C   UNL     1       3.815   5.834  18.565  0.00  0.00    +0.000 A 
ATOM      5  C   UNL     1       2.679   5.087  18.922  0.00  0.00    +0.000 A 
ATOM      6  C   UNL     1       2.791   3.818  19.485  0.00  0.00    +0.000 A 
ATOM      7  C   UNL     1       4.053   3.267  19.670  0.00  0.00    +0.000 A 
ATOM      8  C   UNL     1       5.195   3.995  19.330  0.00  0.00    +0.000 A 
ATOM      9  C   UNL     1       5.086   5.285  18.797  0.00  0.00    +0.000 A 
ATOM     10  N   UNL     1       6.262   5.953  18.394  0.00  0.00    +0.000 N 
ATOM     11  C   UNL     1       7.518   5.965  18.982  0.00  0.00    +0.000 A 
ATOM     12  C   UNL     1       7.893   5.405  20.303  0.00  0.00    +0.000 C 
ATOM     13  N   UNL     1       8.340   6.657  18.219  0.00  0.00    +0.000 NA
ATOM     14  N   UNL     1       7.647   7.102  17.125  0.00  0.00    +0.000 NA
ATOM     15  C   UNL     1       6.407   6.675  17.228  0.00  0.00    +0.000 A 
ENDROOT
BRANCH   3  16
ATOM     16  C   UNL     1       2.489   8.034  18.454  0.00  0.00    +0.000 A 
ATOM     17  C   UNL     1       1.813   8.902  17.593  0.00  0.00    +0.000 A 
ATOM     18  C   UNL     1       0.750   9.667  18.076  0.00  0.00    +0.000 A 
ATOM     19  C   UNL     1       0.368   9.582  19.420  0.00  0.00    +0.000 A 
ATOM     20 CL   UNL     1      -0.976  10.545  19.921  0.00  0.00    +0.000 Cl
ATOM     21  C   UNL     1       1.057   8.744  20.306  0.00  0.00    +0.000 A 
ATOM     22  C   UNL     1       0.725   8.608  21.766  0.00  0.00    +0.000 C 
ATOM     23  C   UNL     1       2.128   7.980  19.808  0.00  0.00    +0.000 A 
ENDBRANCH   3  16
BRANCH   6  24
ATOM     24  O   UNL     1       1.600   3.220  19.779  0.00  0.00    +0.000 OA
ATOM     25  C   UNL     1       0.988   2.474  18.733  0.00  0.00    +0.000 C 
ENDBRANCH   6  24
BRANCH   1  26
ATOM     26  C   UNL     1       4.857   5.581  15.544  0.00  0.00    +0.000 C 
BRANCH  26  27
ATOM     27  C   UNL     1       6.018   4.819  14.963  0.00  0.00    +0.000 C 
ATOM     28  O   UNL     1       6.798   5.283  14.132  0.00  0.00    +0.000 OA
BRANCH  27  30
ATOM     29  C   UNL     1       4.801   3.135  16.040  0.00  0.00    +0.000 C 
ATOM     30  O   UNL     1       6.024   3.543  15.423  0.00  0.00    +0.000 OA
ENDBRANCH  27  30
ENDBRANCH  26  27
ENDBRANCH   1  26
TORSDOF 5
ENDMDL
MODEL 4
REMARK VINA RESULT:      -7.2      5.133      9.082
REMARK  Name = 
REMARK  9 active torsions:
REMARK  status: ('A' for Active; 'I' for Inactive)
REMARK    1  A    between atoms: C_1  and  O_2
REMARK    2  A    between atoms: O_2  and  C_3
REMARK    3  A    between atoms: C_3  and  C_5
REMARK    4  A    between atoms: C_5  and  C_6
REMARK    5  A    between atoms: C_8  and  C_9
REMARK    6  A    between atoms: C_14  and  C_15
REMARK    7  A    between atoms: C_19  and  O_20
REMARK    8  A    between atoms: O_20  and  C_21
REMARK    9  A    between atoms: C_26  and  C_27
REMARK                            x       y       z     vdW  Elec       q    Type
REMARK                         _______ _______ _______ _____ _____    ______ ____
ROOT
ATOM      1  C   UNL     1       0.294  11.292  21.903  0.00  0.00    +0.000 C 
ATOM      2  N   UNL     1       0.938  10.160  21.232  0.00  0.00    +0.000 NA
ATOM      3  C   UNL     1       0.789   9.897  19.978  0.00  0.00    +0.000 C 
ATOM      4  C   UNL     1      -0.119  10.646  19.049  0.00  0.00    +0.000 A 
ATOM      5  C   UNL     1      -0.912   9.874  18.182  0.00  0.00    +0.000 A 
ATOM      6  C   UNL     1      -1.832  10.466  17.319  0.00  0.00    +0.000 A 
ATOM      7  C   UNL     1      -1.989  11.847  17.338  0.00  0.00    +0.000 A 
ATOM      8  C   UNL     1      -1.205  12.632  18.186  0.00  0.00    +0.000 A 
ATOM      9  C   UNL     1      -0.255  12.043  19.028  0.00  0.00    +0.000 A 
ATOM     10  N   UNL     1       0.459  12.866  19.925  0.00  0.00    +0.000 N 
ATOM     11  C   UNL     1       0.957  14.147  19.743  0.00  0.00    +0.000 A 
ATOM     12  C   UNL     1       1.013  14.915  18.475  0.00  0.00    +0.000 C 
ATOM     13  N   UNL     1       1.485  14.565  20.877  0.00  0.00    +0.000 NA
ATOM     14  N   UNL     1       1.338  13.578  21.814  0.00  0.00    +0.000 NA
ATOM     15  C   UNL     1       0.719  12.565  21.245  0.00  0.00    +0.000 A 
ENDROOT
BRANCH   3  16
ATOM     16  C   UNL     1       1.545   8.724  19.439  0.00  0.00    +0.000 A 
ATOM     17  C   UNL     1       2.203   8.842  18.212  0.00  0.00    +0.000 A 
ATOM     18  C   UNL     1       2.974   7.780  17.735  0.00  0.00    +0.000 A 
ATOM     19  C   UNL     1       3.078   6.594  18.471  0.00  0.00    +0.000 A 
ATOM     20 CL   UNL     1       4.076   5.344  17.816  0.00  0.00    +0.000 Cl
ATOM     21  C   UNL     1       2.397   6.444  19.685  0.00  0.00    +0.000 A 
ATOM     22  C   UNL     1       2.439   5.199  20.527  0.00  0.00    +0.000 C 
ATOM     23  C   UNL     1       1.621   7.520  20.154  0.00  0.00    +0.000 A 
ENDBRANCH   3  16
BRANCH   6  24
ATOM     24  O   UNL     1      -2.525   9.587  16.538  0.00  0.00    +0.000 OA
ATOM     25  C   UNL     1      -2.931  10.058  15.259  0.00  0.00    +0.000 C 
ENDBRANCH   6  24
BRANCH   1  26
ATOM     26  C   UNL     1      -1.221  11.128  22.021  0.00  0.00    +0.000 C 
BRANCH  26  27
ATOM     27  C   UNL     1      -1.890  12.397  22.477  0.00  0.00    +0.000 C 
ATOM     28  O   UNL     1      -1.686  12.927  23.569  0.00  0.00    +0.000 OA
BRANCH  27  30
ATOM     29  C   UNL     1      -2.693  14.195  21.214  0.00  0.00    +0.000 C 
ATOM     30  O   UNL     1      -2.796  12.812  21.557  0.00  0.00    +0.000 OA
ENDBRANCH  27  30
ENDBRANCH  26  27
ENDBRANCH   1  26
TORSDOF 5
ENDMDL
MODEL 5
REMARK VINA RESULT:      -7.1      5.004      8.877
REMARK  Name = 
REMARK  9 active torsions:
REMARK  status: ('A' for Active; 'I' for Inactive)
REMARK    1  A    between atoms: C_1  and  O_2
REMARK    2  A    between atoms: O_2  and  C_3
REMARK    3  A    between atoms: C_3  and  C_5
REMARK    4  A    between atoms: C_5  and  C_6
REMARK    5  A    between atoms: C_8  and  C_9
REMARK    6  A    between atoms: C_14  and  C_15
REMARK    7  A    between atoms: C_19  and  O_20
REMARK    8  A    between atoms: O_20  and  C_21
REMARK    9  A    between atoms: C_26  and  C_27
REMARK                            x       y       z     vdW  Elec       q    Type
REMARK                         _______ _______ _______ _____ _____    ______ ____
ROOT
ATOM      1  C   UNL     1       0.634  11.409  21.654  0.00  0.00    +0.000 C 
ATOM      2  N   UNL     1       1.208  10.237  20.986  0.00  0.00    +0.000 NA
ATOM      3  C   UNL     1       0.993   9.947  19.749  0.00  0.00    +0.000 C 
ATOM      4  C   UNL     1       0.068  10.700  18.842  0.00  0.00    +0.000 A 
ATOM      5  C   UNL     1      -0.790   9.932  18.034  0.00  0.00    +0.000 A 
ATOM      6  C   UNL     1      -1.730  10.531  17.198  0.00  0.00    +0.000 A 
ATOM      7  C   UNL     1      -1.841  11.917  17.185  0.00  0.00    +0.000 A 
ATOM      8  C   UNL     1      -0.994  12.698  17.974  0.00  0.00    +0.000 A 
ATOM      9  C   UNL     1      -0.025  12.100  18.788  0.00  0.00    +0.000 A 
ATOM     10  N   UNL     1       0.756  12.922  19.627  0.00  0.00    +0.000 N 
ATOM     11  C   UNL     1       1.286  14.181  19.387  0.00  0.00    +0.000 A 
ATOM     12  C   UNL     1       1.308  14.912  18.096  0.00  0.00    +0.000 C 
ATOM     13  N   UNL     1       1.880  14.611  20.483  0.00  0.00    +0.000 NA
ATOM     14  N   UNL     1       1.745  13.655  21.453  0.00  0.00    +0.000 NA
ATOM     15  C   UNL     1       1.068  12.649  20.942  0.00  0.00    +0.000 A 
ENDROOT
BRANCH   3  16
ATOM     16  C   UNL     1       1.685   8.735  19.209  0.00  0.00    +0.000 A 
ATOM     17  C   UNL     1       2.313   8.807  17.963  0.00  0.00    +0.000 A 
ATOM     18  C   UNL     1       3.027   7.707  17.483  0.00  0.00    +0.000 A 
ATOM     19  C   UNL     1       3.102   6.528  18.235  0.00  0.00    +0.000 A 
ATOM     20 CL   UNL     1       4.029   5.228  17.574  0.00  0.00    +0.000 Cl
ATOM     21  C   UNL     1       2.449   6.426  19.469  0.00  0.00    +0.000 A 
ATOM     22  C   UNL     1       2.463   5.193  20.331  0.00  0.00    +0.000 C 
ATOM     23  C   UNL     1       1.731   7.540  19.941  0.00  0.00    +0.000 A 
ENDBRANCH   3  16
BRANCH   6  24
ATOM     24  O   UNL     1      -2.486   9.655  16.475  0.00  0.00    +0.000 OA
ATOM     25  C   UNL     1      -3.031  10.144  15.254  0.00  0.00    +0.000 C 
ENDBRANCH   6  24
BRANCH   1  26
ATOM     26  C   UNL     1      -0.879  11.298  21.846  0.00  0.00    +0.000 C 
BRANCH  26  27
ATOM     27  C   UNL     1      -1.234  10.724  23.191  0.00  0.00    +0.000 C 
ATOM     28  O   UNL     1      -0.518   9.943  23.816  0.00  0.00    +0.000 OA
BRANCH  27  30
ATOM     29  C   UNL     1      -2.764  12.493  23.272  0.00  0.00    +0.000 C 
ATOM     30  O   UNL     1      -2.476  11.124  23.563  0.00  0.00    +0.000 OA
ENDBRANCH  27  30
ENDBRANCH  26  27
ENDBRANCH   1  26
TORSDOF 5
ENDMDL
MODEL 6
REMARK VINA RESULT:      -7.1      5.387      9.527
REMARK  Name = 
REMARK  9 active torsions:
REMARK  status: ('A' for Active; 'I' for Inactive)
REMARK    1  A    between atoms: C_1  and  O_2
REMARK    2  A    between atoms: O_2  and  C_3
REMARK    3  A    between atoms: C_3  and  C_5
REMARK    4  A    between atoms: C_5  and  C_6
REMARK    5  A    between atoms: C_8  and  C_9
REMARK    6  A    between atoms: C_14  and  C_15
REMARK    7  A    between atoms: C_19  and  O_20
REMARK    8  A    between atoms: O_20  and  C_21
REMARK    9  A    between atoms: C_26  and  C_27
REMARK                            x       y       z     vdW  Elec       q    Type
REMARK                         _______ _______ _______ _____ _____    ______ ____
ROOT
ATOM      1  C   UNL     1      -0.224  11.824  22.241  0.00  0.00    +0.000 C 
ATOM      2  N   UNL     1       0.407  10.577  21.801  0.00  0.00    +0.000 NA
ATOM      3  C   UNL     1       0.407  10.172  20.577  0.00  0.00    +0.000 C 
ATOM      4  C   UNL     1      -0.302  10.859  19.449  0.00  0.00    +0.000 A 
ATOM      5  C   UNL     1      -1.033  10.040  18.570  0.00  0.00    +0.000 A 
ATOM      6  C   UNL     1      -1.777  10.581  17.523  0.00  0.00    +0.000 A 
ATOM      7  C   UNL     1      -1.819  11.961  17.363  0.00  0.00    +0.000 A 
ATOM      8  C   UNL     1      -1.094  12.791  18.220  0.00  0.00    +0.000 A 
ATOM      9  C   UNL     1      -0.318  12.248  19.251  0.00  0.00    +0.000 A 
ATOM     10  N   UNL     1       0.335  13.126  20.141  0.00  0.00    +0.000 N 
ATOM     11  C   UNL     1       0.958  14.339  19.889  0.00  0.00    +0.000 A 
ATOM     12  C   UNL     1       1.248  14.939  18.563  0.00  0.00    +0.000 C 
ATOM     13  N   UNL     1       1.362  14.858  21.032  0.00  0.00    +0.000 NA
ATOM     14  N   UNL     1       1.009  14.006  22.044  0.00  0.00    +0.000 NA
ATOM     15  C   UNL     1       0.390  12.975  21.511  0.00  0.00    +0.000 A 
ENDROOT
BRANCH   3  16
ATOM     16  C   UNL     1       1.129   8.893  20.287  0.00  0.00    +0.000 A 
ATOM     17  C   UNL     1       1.008   7.825  21.180  0.00  0.00    +0.000 A 
ATOM     18  C   UNL     1       1.613   6.603  20.882  0.00  0.00    +0.000 A 
ATOM     19  C   UNL     1       2.354   6.447  19.704  0.00  0.00    +0.000 A 
ATOM     20 CL   UNL     1       3.045   4.892  19.406  0.00  0.00    +0.000 Cl
ATOM     21  C   UNL     1       2.516   7.517  18.816  0.00  0.00    +0.000 A 
ATOM     22  C   UNL     1       3.310   7.442  17.540  0.00  0.00    +0.000 C 
ATOM     23  C   UNL     1       1.902   8.745  19.128  0.00  0.00    +0.000 A 
ENDBRANCH   3  16
BRANCH   6  24
ATOM     24  O   UNL     1      -2.429   9.660  16.756  0.00  0.00    +0.000 OA
ATOM     25  C   UNL     1      -2.859  10.094  15.470  0.00  0.00    +0.000 C 
ENDBRANCH   6  24
BRANCH   1  26
ATOM     26  C   UNL     1      -1.750  11.777  22.158  0.00  0.00    +0.000 C 
BRANCH  26  27
ATOM     27  C   UNL     1      -2.397  12.569  23.262  0.00  0.00    +0.000 C 
ATOM     28  O   UNL     1      -1.860  13.518  23.833  0.00  0.00    +0.000 OA
BRANCH  27  30
ATOM     29  C   UNL     1      -4.717  12.874  23.275  0.00  0.00    +0.000 C 
ATOM     30  O   UNL     1      -3.602  12.035  23.584  0.00  0.00    +0.000 OA
ENDBRANCH  27  30
ENDBRANCH  26  27
ENDBRANCH   1  26
TORSDOF 5
ENDMDL
MODEL 7
REMARK VINA RESULT:      -7.0      7.405     10.490
REMARK  Name = 
REMARK  9 active torsions:
REMARK  status: ('A' for Active; 'I' for Inactive)
REMARK    1  A    between atoms: C_1  and  O_2
REMARK    2  A    between atoms: O_2  and  C_3
REMARK    3  A    between atoms: C_3  and  C_5
REMARK    4  A    between atoms: C_5  and  C_6
REMARK    5  A    between atoms: C_8  and  C_9
REMARK    6  A    between atoms: C_14  and  C_15
REMARK    7  A    between atoms: C_19  and  O_20
REMARK    8  A    between atoms: O_20  and  C_21
REMARK    9  A    between atoms: C_26  and  C_27
REMARK                            x       y       z     vdW  Elec       q    Type
REMARK                         _______ _______ _______ _____ _____    ______ ____
ROOT
ATOM      1  C   UNL     1      -0.975  12.390  22.881  0.00  0.00    +0.000 C 
ATOM      2  N   UNL     1      -0.017  12.991  21.949  0.00  0.00    +0.000 NA
ATOM      3  C   UNL     1      -0.268  13.192  20.701  0.00  0.00    +0.000 C 
ATOM      4  C   UNL     1      -1.525  12.769  20.002  0.00  0.00    +0.000 A 
ATOM      5  C   UNL     1      -1.375  12.156  18.746  0.00  0.00    +0.000 A 
ATOM      6  C   UNL     1      -2.473  11.672  18.037  0.00  0.00    +0.000 A 
ATOM      7  C   UNL     1      -3.741  11.772  18.599  0.00  0.00    +0.000 A 
ATOM      8  C   UNL     1      -3.912  12.384  19.842  0.00  0.00    +0.000 A 
ATOM      9  C   UNL     1      -2.815  12.903  20.540  0.00  0.00    +0.000 A 
ATOM     10  N   UNL     1      -3.024  13.443  21.826  0.00  0.00    +0.000 N 
ATOM     11  C   UNL     1      -4.083  14.198  22.308  0.00  0.00    +0.000 A 
ATOM     12  C   UNL     1      -5.196  14.783  21.521  0.00  0.00    +0.000 C 
ATOM     13  N   UNL     1      -3.901  14.416  23.595  0.00  0.00    +0.000 NA
ATOM     14  N   UNL     1      -2.736  13.809  23.979  0.00  0.00    +0.000 NA
ATOM     15  C   UNL     1      -2.216  13.222  22.922  0.00  0.00    +0.000 A 
ENDROOT
BRANCH   3  16
ATOM     16  C   UNL     1       0.805  13.850  19.892  0.00  0.00    +0.000 A 
ATOM     17  C   UNL     1       1.950  13.123  19.557  0.00  0.00    +0.000 A 
ATOM     18  C   UNL     1       2.922  13.701  18.739  0.00  0.00    +0.000 A 
ATOM     19  C   UNL     1       2.765  15.009  18.267  0.00  0.00    +0.000 A 
ATOM     20 CL   UNL     1       4.007  15.632  17.240  0.00  0.00    +0.000 Cl
ATOM     21  C   UNL     1       1.642  15.766  18.622  0.00  0.00    +0.000 A 
ATOM     22  C   UNL     1       1.405  17.183  18.176  0.00  0.00    +0.000 C 
ATOM     23  C   UNL     1       0.670  15.174  19.449  0.00  0.00    +0.000 A 
ENDBRANCH   3  16
BRANCH   6  24
ATOM     24  O   UNL     1      -2.168  11.107  16.833  0.00  0.00    +0.000 OA
ATOM     25  C   UNL     1      -3.243  10.949  15.915  0.00  0.00    +0.000 C 
ENDBRANCH   6  24
BRANCH   1  26
ATOM     26  C   UNL     1      -1.228  10.909  22.596  0.00  0.00    +0.000 C 
BRANCH  26  27
ATOM     27  C   UNL     1       0.002  10.074  22.830  0.00  0.00    +0.000 C 
ATOM     28  O   UNL     1       0.331   9.629  23.929  0.00  0.00    +0.000 OA
BRANCH  27  30
ATOM     29  C   UNL     1       0.013   9.351  20.605  0.00  0.00    +0.000 C 
ATOM     30  O   UNL     1       0.722   9.960  21.686  0.00  0.00    +0.000 OA
ENDBRANCH  27  30
ENDBRANCH  26  27
ENDBRANCH   1  26
TORSDOF 5
ENDMDL
MODEL 8
REMARK VINA RESULT:      -6.8      7.106     10.258
REMARK  Name = 
REMARK  9 active torsions:
REMARK  status: ('A' for Active; 'I' for Inactive)
REMARK    1  A    between atoms: C_1  and  O_2
REMARK    2  A    between atoms: O_2  and  C_3
REMARK    3  A    between atoms: C_3  and  C_5
REMARK    4  A    between atoms: C_5  and  C_6
REMARK    5  A    between atoms: C_8  and  C_9
REMARK    6  A    between atoms: C_14  and  C_15
REMARK    7  A    between atoms: C_19  and  O_20
REMARK    8  A    between atoms: O_20  and  C_21
REMARK    9  A    between atoms: C_26  and  C_27
REMARK                            x       y       z     vdW  Elec       q    Type
REMARK                         _______ _______ _______ _____ _____    ______ ____
ROOT
ATOM      1  C   UNL     1      -0.937  12.019  22.388  0.00  0.00    +0.000 C 
ATOM      2  N   UNL     1      -0.162  12.891  21.501  0.00  0.00    +0.000 NA
ATOM      3  C   UNL     1      -0.521  13.183  20.298  0.00  0.00    +0.000 C 
ATOM      4  C   UNL     1      -1.721  12.615  19.602  0.00  0.00    +0.000 A 
ATOM      5  C   UNL     1      -1.539  12.188  18.275  0.00  0.00    +0.000 A 
ATOM      6  C   UNL     1      -2.572  11.591  17.555  0.00  0.00    +0.000 A 
ATOM      7  C   UNL     1      -3.800  11.387  18.174  0.00  0.00    +0.000 A 
ATOM      8  C   UNL     1      -4.004  11.810  19.489  0.00  0.00    +0.000 A 
ATOM      9  C   UNL     1      -2.978  12.442  20.202  0.00  0.00    +0.000 A 
ATOM     10  N   UNL     1      -3.202  12.783  21.553  0.00  0.00    +0.000 N 
ATOM     11  C   UNL     1      -4.349  13.266  22.164  0.00  0.00    +0.000 A 
ATOM     12  C   UNL     1      -5.596  13.718  21.499  0.00  0.00    +0.000 C 
ATOM     13  N   UNL     1      -4.133  13.366  23.461  0.00  0.00    +0.000 NA
ATOM     14  N   UNL     1      -2.855  12.948  23.721  0.00  0.00    +0.000 NA
ATOM     15  C   UNL     1      -2.303  12.594  22.581  0.00  0.00    +0.000 A 
ENDROOT
BRANCH   3  16
ATOM     16  C   UNL     1       0.364  14.119  19.536  0.00  0.00    +0.000 A 
ATOM     17  C   UNL     1      -0.119  15.382  19.187  0.00  0.00    +0.000 A 
ATOM     18  C   UNL     1       0.723  16.291  18.544  0.00  0.00    +0.000 A 
ATOM     19  C   UNL     1       2.041  15.938  18.233  0.00  0.00    +0.000 A 
ATOM     20 CL   UNL     1       3.017  17.137  17.460  0.00  0.00    +0.000 Cl
ATOM     21  C   UNL     1       2.532  14.664  18.542  0.00  0.00    +0.000 A 
ATOM     22  C   UNL     1       3.926  14.198  18.227  0.00  0.00    +0.000 C 
ATOM     23  C   UNL     1       1.673  13.756  19.189  0.00  0.00    +0.000 A 
ENDBRANCH   3  16
BRANCH   6  24
ATOM     24  O   UNL     1      -2.243  11.234  16.280  0.00  0.00    +0.000 OA
ATOM     25  C   UNL     1      -2.741   9.982  15.822  0.00  0.00    +0.000 C 
ENDBRANCH   6  24
BRANCH   1  26
ATOM     26  C   UNL     1      -0.934  10.559  21.933  0.00  0.00    +0.000 C 
BRANCH  26  27
ATOM     27  C   UNL     1       0.168   9.769  22.587  0.00  0.00    +0.000 C 
ATOM     28  O   UNL     1       0.359   9.733  23.802  0.00  0.00    +0.000 OA
BRANCH  27  30
ATOM     29  C   UNL     1       0.586   9.491  20.302  0.00  0.00    +0.000 C 
ATOM     30  O   UNL     1       0.952   9.183  21.648  0.00  0.00    +0.000 OA
ENDBRANCH  27  30
ENDBRANCH  26  27
ENDBRANCH   1  26
TORSDOF 5
ENDMDL
MODEL 9
REMARK VINA RESULT:      -6.4      7.133      9.364
REMARK  Name = 
REMARK  9 active torsions:
REMARK  status: ('A' for Active; 'I' for Inactive)
REMARK    1  A    between atoms: C_1  and  O_2
REMARK    2  A    between atoms: O_2  and  C_3
REMARK    3  A    between atoms: C_3  and  C_5
REMARK    4  A    between atoms: C_5  and  C_6
REMARK    5  A    between atoms: C_8  and  C_9
REMARK    6  A    between atoms: C_14  and  C_15
REMARK    7  A    between atoms: C_19  and  O_20
REMARK    8  A    between atoms: O_20  and  C_21
REMARK    9  A    between atoms: C_26  and  C_27
REMARK                            x       y       z     vdW  Elec       q    Type
REMARK                         _______ _______ _______ _____ _____    ______ ____
ROOT
ATOM      1  C   UNL     1      -0.110  11.081  18.783  0.00  0.00    +0.000 C 
ATOM      2  N   UNL     1       0.849  12.190  18.804  0.00  0.00    +0.000 NA
ATOM      3  C   UNL     1       0.932  13.040  19.770  0.00  0.00    +0.000 C 
ATOM      4  C   UNL     1       0.019  13.079  20.957  0.00  0.00    +0.000 A 
ATOM      5  C   UNL     1      -0.463  14.342  21.344  0.00  0.00    +0.000 A 
ATOM      6  C   UNL     1      -1.364  14.484  22.397  0.00  0.00    +0.000 A 
ATOM      7  C   UNL     1      -1.817  13.351  23.061  0.00  0.00    +0.000 A 
ATOM      8  C   UNL     1      -1.345  12.088  22.697  0.00  0.00    +0.000 A 
ATOM      9  C   UNL     1      -0.413  11.945  21.663  0.00  0.00    +0.000 A 
ATOM     10  N   UNL     1      -0.023  10.645  21.277  0.00  0.00    +0.000 N 
ATOM     11  C   UNL     1       0.206   9.522  22.058  0.00  0.00    +0.000 A 
ATOM     12  C   UNL     1       0.266   9.458  23.539  0.00  0.00    +0.000 C 
ATOM     13  N   UNL     1       0.472   8.500  21.268  0.00  0.00    +0.000 NA
ATOM     14  N   UNL     1       0.416   8.928  19.970  0.00  0.00    +0.000 NA
ATOM     15  C   UNL     1       0.114  10.209  19.976  0.00  0.00    +0.000 A 
ENDROOT
BRANCH   3  16
ATOM     16  C   UNL     1       1.991  14.092  19.654  0.00  0.00    +0.000 A 
ATOM     17  C   UNL     1       3.023  14.127  20.595  0.00  0.00    +0.000 A 
ATOM     18  C   UNL     1       4.057  15.054  20.454  0.00  0.00    +0.000 A 
ATOM     19  C   UNL     1       4.056  15.959  19.386  0.00  0.00    +0.000 A 
ATOM     20 CL   UNL     1       5.390  17.053  19.278  0.00  0.00    +0.000 Cl
ATOM     21  C   UNL     1       3.011  15.963  18.454  0.00  0.00    +0.000 A 
ATOM     22  C   UNL     1       2.923  16.912  17.291  0.00  0.00    +0.000 C 
ATOM     23  C   UNL     1       1.974  15.025  18.608  0.00  0.00    +0.000 A 
ENDBRANCH   3  16
BRANCH   6  24
ATOM     24  O   UNL     1      -1.737  15.772  22.655  0.00  0.00    +0.000 OA
ATOM     25  C   UNL     1      -2.806  16.291  21.873  0.00  0.00    +0.000 C 
ENDBRANCH   6  24
BRANCH   1  26
ATOM     26  C   UNL     1      -1.555  11.552  18.619  0.00  0.00    +0.000 C 
BRANCH  26  27
ATOM     27  C   UNL     1      -2.307  10.717  17.617  0.00  0.00    +0.000 C 
ATOM     28  O   UNL     1      -2.810   9.624  17.873  0.00  0.00    +0.000 OA
BRANCH  27  30
ATOM     29  C   UNL     1      -3.002  10.599  15.386  0.00  0.00    +0.000 C 
ATOM     30  O   UNL     1      -2.274  11.303  16.393  0.00  0.00    +0.000 OA
ENDBRANCH  27  30
ENDBRANCH  26  27
ENDBRANCH   1  26
TORSDOF 5
ENDMDL
