MODEL 1
REMARK VINA RESULT:      -8.8      0.000      0.000
REMARK  Name = 
REMARK  10 active torsions:
REMARK  status: ('A' for Active; 'I' for Inactive)
REMARK    1  A    between atoms: C_1  and  C_2
REMARK    2  A    between atoms: C_2  and  C_3
REMARK    3  A    between atoms: C_3  and  C_4
REMARK    4  A    between atoms: C_4  and  N_5
REMARK    5  A    between atoms: C_6  and  C_8
REMARK    6  A    between atoms: C_8  and  N_9
REMARK    7  A    between atoms: C_15  and  S_16
REMARK    8  A    between atoms: S_16  and  N_19
REMARK    9  A    between atoms: C_21  and  C_22
REMARK   10  A    between atoms: C_24  and  C_25
REMARK                            x       y       z     vdW  Elec       q    Type
REMARK                         _______ _______ _______ _____ _____    ______ ____
ROOT
ATOM      1  N   UNL     1       1.008  10.127  20.187  0.00  0.00    +0.000 N 
ATOM      2  C   UNL     1       0.840   9.827  21.519  0.00  0.00    +0.000 A 
ATOM      3  O   UNL     1       0.446  10.608  22.375  0.00  0.00    +0.000 OA
ATOM      4  O   UNL     1       1.204   8.499  21.786  0.00  0.00    +0.000 OA
ATOM      5  C   UNL     1       1.621   8.044  20.543  0.00  0.00    +0.000 A 
ATOM      6  C   UNL     1       2.086   6.772  20.271  0.00  0.00    +0.000 A 
ATOM      7  C   UNL     1       2.487   6.507  18.955  0.00  0.00    +0.000 A 
ATOM      8  C   UNL     1       2.351   7.489  17.946  0.00  0.00    +0.000 A 
ATOM      9  C   UNL     1       1.862   8.766  18.251  0.00  0.00    +0.000 A 
ATOM     10  C   UNL     1       1.515   9.012  19.562  0.00  0.00    +0.000 A 
ENDROOT
BRANCH   7  11
ATOM     11  S   UNL     1       3.048   4.867  18.508  0.00  0.00    +0.000 S 
ATOM     12  O   UNL     1       3.352   4.196  19.753  0.00  0.00    +0.000 OA
ATOM     13  O   UNL     1       2.078   4.324  17.586  0.00  0.00    +0.000 OA
BRANCH  11  14
ATOM     14  N   UNL     1       4.491   5.095  17.659  0.00  0.00    +0.000 NA
ATOM     15  C   UNL     1       4.890   4.136  16.608  0.00  0.00    +0.000 C 
ATOM     16  C   UNL     1       5.612   4.906  15.493  0.00  0.00    +0.000 C 
ATOM     17  C   UNL     1       6.068   3.980  14.370  0.00  0.00    +0.000 C 
ATOM     18  C   UNL     1       6.813   5.667  16.066  0.00  0.00    +0.000 C 
ATOM     19  C   UNL     1       6.380   6.582  17.221  0.00  0.00    +0.000 C 
ATOM     20  C   UNL     1       7.593   7.315  17.785  0.00  0.00    +0.000 C 
ATOM     21  C   UNL     1       5.636   5.774  18.303  0.00  0.00    +0.000 C 
ENDBRANCH  11  14
ENDBRANCH   7  11
BRANCH   1  22
ATOM     22  C   UNL     1       0.679  11.385  19.562  0.00  0.00    +0.000 C 
BRANCH  22  24
ATOM     23  N   UNL     1      -1.077  11.349  17.833  0.00  0.00    +0.000 N 
ATOM     24  C   UNL     1      -0.797  11.485  19.176  0.00  0.00    +0.000 C 
ATOM     25  O   UNL     1      -1.662  11.732  20.018  0.00  0.00    +0.000 OA
ATOM     26  H   UNL     1      -0.309  11.264  17.173  0.00  0.00    +0.000 HD
BRANCH  23  27
ATOM     27  C   UNL     1      -2.430  11.479  17.318  0.00  0.00    +0.000 C 
BRANCH  27  28
ATOM     28  C   UNL     1      -3.165  10.143  17.190  0.00  0.00    +0.000 C 
BRANCH  28  30
ATOM     29  C   UNL     1      -3.115  10.374  14.678  0.00  0.00    +0.000 C 
ATOM     30  C   UNL     1      -2.883   9.443  15.859  0.00  0.00    +0.000 C 
ENDBRANCH  28  30
ENDBRANCH  27  28
ENDBRANCH  23  27
ENDBRANCH  22  24
ENDBRANCH   1  22
TORSDOF 7
ENDMDL
MODEL 2
REMARK VINA RESULT:      -8.3      0.728      1.723
REMARK  Name = 
REMARK  10 active torsions:
REMARK  status: ('A' for Active; 'I' for Inactive)
REMARK    1  A    between atoms: C_1  and  C_2
REMARK    2  A    between atoms: C_2  and  C_3
REMARK    3  A    between atoms: C_3  and  C_4
REMARK    4  A    between atoms: C_4  and  N_5
REMARK    5  A    between atoms: C_6  and  C_8
REMARK    6  A    between atoms: C_8  and  N_9
REMARK    7  A    between atoms: C_15  and  S_16
REMARK    8  A    between atoms: S_16  and  N_19
REMARK    9  A    between atoms: C_21  and  C_22
REMARK   10  A    between atoms: C_24  and  C_25
REMARK                            x       y       z     vdW  Elec       q    Type
REMARK                         _______ _______ _______ _____ _____    ______ ____
ROOT
ATOM      1  N   UNL     1       1.070  10.035  20.232  0.00  0.00    +0.000 N 
ATOM      2  C   UNL     1       0.879   9.736  21.561  0.00  0.00    +0.000 A 
ATOM      3  O   UNL     1       0.512  10.528  22.419  0.00  0.00    +0.000 OA
ATOM      4  O   UNL     1       1.187   8.392  21.825  0.00  0.00    +0.000 OA
ATOM      5  C   UNL     1       1.595   7.927  20.582  0.00  0.00    +0.000 A 
ATOM      6  C   UNL     1       2.009   6.638  20.308  0.00  0.00    +0.000 A 
ATOM      7  C   UNL     1       2.410   6.363  18.993  0.00  0.00    +0.000 A 
ATOM      8  C   UNL     1       2.321   7.355  17.988  0.00  0.00    +0.000 A 
ATOM      9  C   UNL     1       1.882   8.649  18.296  0.00  0.00    +0.000 A 
ATOM     10  C   UNL     1       1.536   8.902  19.605  0.00  0.00    +0.000 A 
ENDROOT
BRANCH   7  11
ATOM     11  S   UNL     1       2.907   4.704  18.543  0.00  0.00    +0.000 S 
ATOM     12  O   UNL     1       3.001   3.964  19.782  0.00  0.00    +0.000 OA
ATOM     13  O   UNL     1       2.027   4.271  17.482  0.00  0.00    +0.000 OA
BRANCH  11  14
ATOM     14  N   UNL     1       4.458   4.854  17.892  0.00  0.00    +0.000 NA
ATOM     15  C   UNL     1       5.482   5.656  18.595  0.00  0.00    +0.000 C 
ATOM     16  C   UNL     1       6.851   4.993  18.383  0.00  0.00    +0.000 C 
ATOM     17  C   UNL     1       7.968   5.772  19.073  0.00  0.00    +0.000 C 
ATOM     18  C   UNL     1       7.150   4.862  16.886  0.00  0.00    +0.000 C 
ATOM     19  C   UNL     1       6.021   4.109  16.168  0.00  0.00    +0.000 C 
ATOM     20  C   UNL     1       6.333   4.004  14.678  0.00  0.00    +0.000 C 
ATOM     21  C   UNL     1       4.664   4.790  16.429  0.00  0.00    +0.000 C 
ENDBRANCH  11  14
ENDBRANCH   7  11
BRANCH   1  22
ATOM     22  C   UNL     1       0.797  11.308  19.611  0.00  0.00    +0.000 C 
BRANCH  22  24
ATOM     23  N   UNL     1      -1.260  10.989  18.292  0.00  0.00    +0.000 N 
ATOM     24  C   UNL     1      -0.697  11.561  19.413  0.00  0.00    +0.000 C 
ATOM     25  O   UNL     1      -1.330  12.283  20.185  0.00  0.00    +0.000 OA
ATOM     26  H   UNL     1      -0.660  10.502  17.631  0.00  0.00    +0.000 HD
BRANCH  23  27
ATOM     27  C   UNL     1      -2.657  11.194  17.949  0.00  0.00    +0.000 C 
BRANCH  27  28
ATOM     28  C   UNL     1      -3.243  10.075  17.084  0.00  0.00    +0.000 C 
BRANCH  28  30
ATOM     29  C   UNL     1      -2.943  10.113  14.579  0.00  0.00    +0.000 C 
ATOM     30  C   UNL     1      -3.789  10.590  15.751  0.00  0.00    +0.000 C 
ENDBRANCH  28  30
ENDBRANCH  27  28
ENDBRANCH  23  27
ENDBRANCH  22  24
ENDBRANCH   1  22
TORSDOF 7
ENDMDL
MODEL 3
REMARK VINA RESULT:      -8.3      0.748      1.062
REMARK  Name = 
REMARK  10 active torsions:
REMARK  status: ('A' for Active; 'I' for Inactive)
REMARK    1  A    between atoms: C_1  and  C_2
REMARK    2  A    between atoms: C_2  and  C_3
REMARK    3  A    between atoms: C_3  and  C_4
REMARK    4  A    between atoms: C_4  and  N_5
REMARK    5  A    between atoms: C_6  and  C_8
REMARK    6  A    between atoms: C_8  and  N_9
REMARK    7  A    between atoms: C_15  and  S_16
REMARK    8  A    between atoms: S_16  and  N_19
REMARK    9  A    between atoms: C_21  and  C_22
REMARK   10  A    between atoms: C_24  and  C_25
REMARK                            x       y       z     vdW  Elec       q    Type
REMARK                         _______ _______ _______ _____ _____    ______ ____
ROOT
ATOM      1  N   UNL     1       0.855  10.005  19.919  0.00  0.00    +0.000 N 
ATOM      2  C   UNL     1       0.806   9.824  21.281  0.00  0.00    +0.000 A 
ATOM      3  O   UNL     1       0.404  10.649  22.091  0.00  0.00    +0.000 OA
ATOM      4  O   UNL     1       1.305   8.562  21.640  0.00  0.00    +0.000 OA
ATOM      5  C   UNL     1       1.675   8.024  20.415  0.00  0.00    +0.000 A 
ATOM      6  C   UNL     1       2.232   6.774  20.226  0.00  0.00    +0.000 A 
ATOM      7  C   UNL     1       2.564   6.416  18.912  0.00  0.00    +0.000 A 
ATOM      8  C   UNL     1       2.272   7.281  17.832  0.00  0.00    +0.000 A 
ATOM      9  C   UNL     1       1.693   8.537  18.056  0.00  0.00    +0.000 A 
ATOM     10  C   UNL     1       1.416   8.879  19.361  0.00  0.00    +0.000 A 
ENDROOT
BRANCH   7  11
ATOM     11  S   UNL     1       3.237   4.793  18.576  0.00  0.00    +0.000 S 
ATOM     12  O   UNL     1       3.627   4.247  19.858  0.00  0.00    +0.000 OA
ATOM     13  O   UNL     1       2.286   4.106  17.732  0.00  0.00    +0.000 OA
BRANCH  11  14
ATOM     14  N   UNL     1       4.633   5.058  17.663  0.00  0.00    +0.000 NA
ATOM     15  C   UNL     1       5.014   4.107  16.597  0.00  0.00    +0.000 C 
ATOM     16  C   UNL     1       5.661   4.893  15.448  0.00  0.00    +0.000 C 
ATOM     17  C   UNL     1       6.094   3.975  14.309  0.00  0.00    +0.000 C 
ATOM     18  C   UNL     1       6.864   5.691  15.965  0.00  0.00    +0.000 C 
ATOM     19  C   UNL     1       6.455   6.599  17.135  0.00  0.00    +0.000 C 
ATOM     20  C   UNL     1       7.670   7.370  17.641  0.00  0.00    +0.000 C 
ATOM     21  C   UNL     1       5.785   5.775  18.251  0.00  0.00    +0.000 C 
ENDBRANCH  11  14
ENDBRANCH   7  11
BRANCH   1  22
ATOM     22  C   UNL     1       0.373  11.165  19.209  0.00  0.00    +0.000 C 
BRANCH  22  24
ATOM     23  N   UNL     1      -1.512  10.191  17.955  0.00  0.00    +0.000 N 
ATOM     24  C   UNL     1      -1.126  11.099  18.918  0.00  0.00    +0.000 C 
ATOM     25  O   UNL     1      -1.919  11.858  19.477  0.00  0.00    +0.000 OA
ATOM     26  H   UNL     1      -0.798   9.676  17.445  0.00  0.00    +0.000 HD
BRANCH  23  27
ATOM     27  C   UNL     1      -2.898  10.063  17.536  0.00  0.00    +0.000 C 
BRANCH  27  28
ATOM     28  C   UNL     1      -3.308  11.079  16.467  0.00  0.00    +0.000 C 
BRANCH  28  30
ATOM     29  C   UNL     1      -5.300  11.140  18.014  0.00  0.00    +0.000 C 
ATOM     30  C   UNL     1      -4.690  11.679  16.729  0.00  0.00    +0.000 C 
ENDBRANCH  28  30
ENDBRANCH  27  28
ENDBRANCH  23  27
ENDBRANCH  22  24
ENDBRANCH   1  22
TORSDOF 7
ENDMDL
MODEL 4
REMARK VINA RESULT:      -8.2      2.150      8.452
REMARK  Name = 
REMARK  10 active torsions:
REMARK  status: ('A' for Active; 'I' for Inactive)
REMARK    1  A    between atoms: C_1  and  C_2
REMARK    2  A    between atoms: C_2  and  C_3
REMARK    3  A    between atoms: C_3  and  C_4
REMARK    4  A    between atoms: C_4  and  N_5
REMARK    5  A    between atoms: C_6  and  C_8
REMARK    6  A    between atoms: C_8  and  N_9
REMARK    7  A    between atoms: C_15  and  S_16
REMARK    8  A    between atoms: S_16  and  N_19
REMARK    9  A    between atoms: C_21  and  C_22
REMARK   10  A    between atoms: C_24  and  C_25
REMARK                            x       y       z     vdW  Elec       q    Type
REMARK                         _______ _______ _______ _____ _____    ______ ____
ROOT
ATOM      1  N   UNL     1       2.863   5.373  19.136  0.00  0.00    +0.000 N 
ATOM      2  C   UNL     1       2.362   5.012  20.365  0.00  0.00    +0.000 A 
ATOM      3  O   UNL     1       2.430   3.893  20.856  0.00  0.00    +0.000 OA
ATOM      4  O   UNL     1       1.729   6.098  20.990  0.00  0.00    +0.000 OA
ATOM      5  C   UNL     1       1.863   7.108  20.047  0.00  0.00    +0.000 A 
ATOM      6  C   UNL     1       1.395   8.401  20.189  0.00  0.00    +0.000 A 
ATOM      7  C   UNL     1       1.604   9.275  19.113  0.00  0.00    +0.000 A 
ATOM      8  C   UNL     1       2.324   8.856  17.969  0.00  0.00    +0.000 A 
ATOM      9  C   UNL     1       2.798   7.542  17.863  0.00  0.00    +0.000 A 
ATOM     10  C   UNL     1       2.542   6.692  18.917  0.00  0.00    +0.000 A 
ENDROOT
BRANCH   7  11
ATOM     11  S   UNL     1       1.079  10.981  19.239  0.00  0.00    +0.000 S 
ATOM     12  O   UNL     1       1.185  11.330  20.638  0.00  0.00    +0.000 OA
ATOM     13  O   UNL     1       1.800  11.722  18.229  0.00  0.00    +0.000 OA
BRANCH  11  14
ATOM     14  N   UNL     1      -0.555  10.988  18.809  0.00  0.00    +0.000 NA
ATOM     15  C   UNL     1      -1.583  11.333  19.814  0.00  0.00    +0.000 C 
ATOM     16  C   UNL     1      -2.719  12.090  19.110  0.00  0.00    +0.000 C 
ATOM     17  C   UNL     1      -3.830  12.472  20.082  0.00  0.00    +0.000 C 
ATOM     18  C   UNL     1      -3.290  11.243  17.966  0.00  0.00    +0.000 C 
ATOM     19  C   UNL     1      -2.181  10.820  16.993  0.00  0.00    +0.000 C 
ATOM     20  C   UNL     1      -2.771   9.967  15.874  0.00  0.00    +0.000 C 
ATOM     21  C   UNL     1      -1.051  10.090  17.744  0.00  0.00    +0.000 C 
ENDBRANCH  11  14
ENDBRANCH   7  11
BRANCH   1  22
ATOM     22  C   UNL     1       3.617   4.516  18.253  0.00  0.00    +0.000 C 
BRANCH  22  24
ATOM     23  N   UNL     1       5.895   5.232  17.642  0.00  0.00    +0.000 N 
ATOM     24  C   UNL     1       5.117   4.539  18.546  0.00  0.00    +0.000 C 
ATOM     25  O   UNL     1       5.591   3.923  19.502  0.00  0.00    +0.000 OA
ATOM     26  H   UNL     1       5.459   5.620  16.810  0.00  0.00    +0.000 HD
BRANCH  23  27
ATOM     27  C   UNL     1       7.341   5.288  17.764  0.00  0.00    +0.000 C 
BRANCH  27  28
ATOM     28  C   UNL     1       7.849   6.576  18.418  0.00  0.00    +0.000 C 
BRANCH  28  30
ATOM     29  C   UNL     1       8.334   9.029  18.083  0.00  0.00    +0.000 C 
ATOM     30  C   UNL     1       7.584   7.813  17.559  0.00  0.00    +0.000 C 
ENDBRANCH  28  30
ENDBRANCH  27  28
ENDBRANCH  23  27
ENDBRANCH  22  24
ENDBRANCH   1  22
TORSDOF 7
ENDMDL
MODEL 5
REMARK VINA RESULT:      -8.0      2.218      3.486
REMARK  Name = 
REMARK  10 active torsions:
REMARK  status: ('A' for Active; 'I' for Inactive)
REMARK    1  A    between atoms: C_1  and  C_2
REMARK    2  A    between atoms: C_2  and  C_3
REMARK    3  A    between atoms: C_3  and  C_4
REMARK    4  A    between atoms: C_4  and  N_5
REMARK    5  A    between atoms: C_6  and  C_8
REMARK    6  A    between atoms: C_8  and  N_9
REMARK    7  A    between atoms: C_15  and  S_16
REMARK    8  A    between atoms: S_16  and  N_19
REMARK    9  A    between atoms: C_21  and  C_22
REMARK   10  A    between atoms: C_24  and  C_25
REMARK                            x       y       z     vdW  Elec       q    Type
REMARK                         _______ _______ _______ _____ _____    ______ ____
ROOT
ATOM      1  N   UNL     1       0.994  10.324  19.846  0.00  0.00    +0.000 N 
ATOM      2  C   UNL     1       0.789  10.110  21.189  0.00  0.00    +0.000 A 
ATOM      3  O   UNL     1       0.382  10.946  21.985  0.00  0.00    +0.000 OA
ATOM      4  O   UNL     1       1.132   8.797  21.548  0.00  0.00    +0.000 OA
ATOM      5  C   UNL     1       1.576   8.262  20.346  0.00  0.00    +0.000 A 
ATOM      6  C   UNL     1       2.033   6.971  20.167  0.00  0.00    +0.000 A 
ATOM      7  C   UNL     1       2.465   6.621  18.880  0.00  0.00    +0.000 A 
ATOM      8  C   UNL     1       2.365   7.540  17.809  0.00  0.00    +0.000 A 
ATOM      9  C   UNL     1       1.882   8.838  18.021  0.00  0.00    +0.000 A 
ATOM     10  C   UNL     1       1.505   9.167  19.305  0.00  0.00    +0.000 A 
ENDROOT
BRANCH   7  11
ATOM     11  S   UNL     1       3.020   4.951  18.551  0.00  0.00    +0.000 S 
ATOM     12  O   UNL     1       3.319   4.368  19.840  0.00  0.00    +0.000 OA
ATOM     13  O   UNL     1       2.048   4.348  17.668  0.00  0.00    +0.000 OA
BRANCH  11  14
ATOM     14  N   UNL     1       4.464   5.112  17.690  0.00  0.00    +0.000 NA
ATOM     15  C   UNL     1       4.781   4.173  16.593  0.00  0.00    +0.000 C 
ATOM     16  C   UNL     1       5.542   4.938  15.500  0.00  0.00    +0.000 C 
ATOM     17  C   UNL     1       5.916   4.029  14.333  0.00  0.00    +0.000 C 
ATOM     18  C   UNL     1       6.801   5.586  16.086  0.00  0.00    +0.000 C 
ATOM     19  C   UNL     1       6.448   6.480  17.284  0.00  0.00    +0.000 C 
ATOM     20  C   UNL     1       7.717   7.101  17.859  0.00  0.00    +0.000 C 
ATOM     21  C   UNL     1       5.663   5.682  18.343  0.00  0.00    +0.000 C 
ENDBRANCH  11  14
ENDBRANCH   7  11
BRANCH   1  22
ATOM     22  C   UNL     1       0.694  11.544  19.135  0.00  0.00    +0.000 C 
BRANCH  22  24
ATOM     23  N   UNL     1       2.110  13.262  20.193  0.00  0.00    +0.000 N 
ATOM     24  C   UNL     1       1.888  12.497  19.068  0.00  0.00    +0.000 C 
ATOM     25  O   UNL     1       2.562  12.603  18.043  0.00  0.00    +0.000 OA
ATOM     26  H   UNL     1       1.447  13.214  20.963  0.00  0.00    +0.000 HD
BRANCH  23  27
ATOM     27  C   UNL     1       3.173  14.251  20.247  0.00  0.00    +0.000 C 
BRANCH  27  28
ATOM     28  C   UNL     1       2.721  15.655  19.835  0.00  0.00    +0.000 C 
BRANCH  28  30
ATOM     29  C   UNL     1       3.335  16.043  17.419  0.00  0.00    +0.000 C 
ATOM     30  C   UNL     1       3.699  16.325  18.869  0.00  0.00    +0.000 C 
ENDBRANCH  28  30
ENDBRANCH  27  28
ENDBRANCH  23  27
ENDBRANCH  22  24
ENDBRANCH   1  22
TORSDOF 7
ENDMDL
MODEL 6
REMARK VINA RESULT:      -7.9      1.286      1.741
REMARK  Name = 
REMARK  10 active torsions:
REMARK  status: ('A' for Active; 'I' for Inactive)
REMARK    1  A    between atoms: C_1  and  C_2
REMARK    2  A    between atoms: C_2  and  C_3
REMARK    3  A    between atoms: C_3  and  C_4
REMARK    4  A    between atoms: C_4  and  N_5
REMARK    5  A    between atoms: C_6  and  C_8
REMARK    6  A    between atoms: C_8  and  N_9
REMARK    7  A    between atoms: C_15  and  S_16
REMARK    8  A    between atoms: S_16  and  N_19
REMARK    9  A    between atoms: C_21  and  C_22
REMARK   10  A    between atoms: C_24  and  C_25
REMARK                            x       y       z     vdW  Elec       q    Type
REMARK                         _______ _______ _______ _____ _____    ______ ____
ROOT
ATOM      1  N   UNL     1       1.202  10.173  19.684  0.00  0.00    +0.000 N 
ATOM      2  C   UNL     1       1.544  10.709  18.464  0.00  0.00    +0.000 A 
ATOM      3  O   UNL     1       1.342  11.866  18.118  0.00  0.00    +0.000 OA
ATOM      4  O   UNL     1       2.144   9.744  17.640  0.00  0.00    +0.000 OA
ATOM      5  C   UNL     1       2.109   8.606  18.434  0.00  0.00    +0.000 A 
ATOM      6  C   UNL     1       2.589   7.362  18.069  0.00  0.00    +0.000 A 
ATOM      7  C   UNL     1       2.440   6.324  18.999  0.00  0.00    +0.000 A 
ATOM      8  C   UNL     1       1.884   6.572  20.276  0.00  0.00    +0.000 A 
ATOM      9  C   UNL     1       1.421   7.849  20.621  0.00  0.00    +0.000 A 
ATOM     10  C   UNL     1       1.541   8.840  19.671  0.00  0.00    +0.000 A 
ENDROOT
BRANCH   7  11
ATOM     11  S   UNL     1       3.085   4.697  18.627  0.00  0.00    +0.000 S 
ATOM     12  O   UNL     1       3.429   4.102  19.900  0.00  0.00    +0.000 OA
ATOM     13  O   UNL     1       2.140   4.060  17.739  0.00  0.00    +0.000 OA
BRANCH  11  14
ATOM     14  N   UNL     1       4.509   4.959  17.757  0.00  0.00    +0.000 NA
ATOM     15  C   UNL     1       4.823   4.120  16.581  0.00  0.00    +0.000 C 
ATOM     16  C   UNL     1       5.547   4.989  15.542  0.00  0.00    +0.000 C 
ATOM     17  C   UNL     1       5.918   4.188  14.297  0.00  0.00    +0.000 C 
ATOM     18  C   UNL     1       6.805   5.613  16.158  0.00  0.00    +0.000 C 
ATOM     19  C   UNL     1       6.457   6.397  17.432  0.00  0.00    +0.000 C 
ATOM     20  C   UNL     1       7.725   6.996  18.034  0.00  0.00    +0.000 C 
ATOM     21  C   UNL     1       5.708   5.498  18.434  0.00  0.00    +0.000 C 
ENDBRANCH  11  14
ENDBRANCH   7  11
BRANCH   1  22
ATOM     22  C   UNL     1       0.616  10.899  20.785  0.00  0.00    +0.000 C 
BRANCH  22  24
ATOM     23  N   UNL     1      -1.323  11.006  19.268  0.00  0.00    +0.000 N 
ATOM     24  C   UNL     1      -0.792  11.406  20.476  0.00  0.00    +0.000 C 
ATOM     25  O   UNL     1      -1.378  12.171  21.243  0.00  0.00    +0.000 OA
ATOM     26  H   UNL     1      -0.744  10.470  18.626  0.00  0.00    +0.000 HD
BRANCH  23  27
ATOM     27  C   UNL     1      -2.629  11.459  18.819  0.00  0.00    +0.000 C 
BRANCH  27  28
ATOM     28  C   UNL     1      -3.255  10.556  17.753  0.00  0.00    +0.000 C 
BRANCH  28  30
ATOM     29  C   UNL     1      -2.773   9.980  15.345  0.00  0.00    +0.000 C 
ATOM     30  C   UNL     1      -2.222  10.016  16.763  0.00  0.00    +0.000 C 
ENDBRANCH  28  30
ENDBRANCH  27  28
ENDBRANCH  23  27
ENDBRANCH  22  24
ENDBRANCH   1  22
TORSDOF 7
ENDMDL
MODEL 7
REMARK VINA RESULT:      -7.9      1.947      2.892
REMARK  Name = 
REMARK  10 active torsions:
REMARK  status: ('A' for Active; 'I' for Inactive)
REMARK    1  A    between atoms: C_1  and  C_2
REMARK    2  A    between atoms: C_2  and  C_3
REMARK    3  A    between atoms: C_3  and  C_4
REMARK    4  A    between atoms: C_4  and  N_5
REMARK    5  A    between atoms: C_6  and  C_8
REMARK    6  A    between atoms: C_8  and  N_9
REMARK    7  A    between atoms: C_15  and  S_16
REMARK    8  A    between atoms: S_16  and  N_19
REMARK    9  A    between atoms: C_21  and  C_22
REMARK   10  A    between atoms: C_24  and  C_25
REMARK                            x       y       z     vdW  Elec       q    Type
REMARK                         _______ _______ _______ _____ _____    ______ ____
ROOT
ATOM      1  N   UNL     1       1.054  10.046  20.174  0.00  0.00    +0.000 N 
ATOM      2  C   UNL     1       0.908   9.729  21.504  0.00  0.00    +0.000 A 
ATOM      3  O   UNL     1       0.532  10.499  22.378  0.00  0.00    +0.000 OA
ATOM      4  O   UNL     1       1.274   8.396  21.748  0.00  0.00    +0.000 OA
ATOM      5  C   UNL     1       1.669   7.957  20.492  0.00  0.00    +0.000 A 
ATOM      6  C   UNL     1       2.126   6.687  20.196  0.00  0.00    +0.000 A 
ATOM      7  C   UNL     1       2.504   6.439  18.869  0.00  0.00    +0.000 A 
ATOM      8  C   UNL     1       2.353   7.435  17.876  0.00  0.00    +0.000 A 
ATOM      9  C   UNL     1       1.872   8.709  18.206  0.00  0.00    +0.000 A 
ATOM     10  C   UNL     1       1.548   8.937  19.525  0.00  0.00    +0.000 A 
ENDROOT
BRANCH   7  11
ATOM     11  S   UNL     1       3.053   4.804  18.391  0.00  0.00    +0.000 S 
ATOM     12  O   UNL     1       3.369   4.113  19.622  0.00  0.00    +0.000 OA
ATOM     13  O   UNL     1       2.069   4.278  17.473  0.00  0.00    +0.000 OA
BRANCH  11  14
ATOM     14  N   UNL     1       4.486   5.038  17.528  0.00  0.00    +0.000 NA
ATOM     15  C   UNL     1       4.869   4.093  16.458  0.00  0.00    +0.000 C 
ATOM     16  C   UNL     1       5.580   4.877  15.346  0.00  0.00    +0.000 C 
ATOM     17  C   UNL     1       6.019   3.964  14.204  0.00  0.00    +0.000 C 
ATOM     18  C   UNL     1       6.790   5.625  15.915  0.00  0.00    +0.000 C 
ATOM     19  C   UNL     1       6.374   6.526  17.087  0.00  0.00    +0.000 C 
ATOM     20  C   UNL     1       7.596   7.248  17.646  0.00  0.00    +0.000 C 
ATOM     21  C   UNL     1       5.641   5.706  18.167  0.00  0.00    +0.000 C 
ENDBRANCH  11  14
ENDBRANCH   7  11
BRANCH   1  22
ATOM     22  C   UNL     1       0.718  11.313  19.571  0.00  0.00    +0.000 C 
BRANCH  22  24
ATOM     23  N   UNL     1      -0.453  12.907  21.041  0.00  0.00    +0.000 N 
ATOM     24  C   UNL     1      -0.587  11.897  20.112  0.00  0.00    +0.000 C 
ATOM     25  O   UNL     1      -1.680  11.440  19.772  0.00  0.00    +0.000 OA
ATOM     26  H   UNL     1       0.476  13.159  21.368  0.00  0.00    +0.000 HD
BRANCH  23  27
ATOM     27  C   UNL     1      -1.608  13.513  21.682  0.00  0.00    +0.000 C 
BRANCH  27  28
ATOM     28  C   UNL     1      -1.776  13.106  23.148  0.00  0.00    +0.000 C 
BRANCH  28  30
ATOM     29  C   UNL     1      -4.096  12.724  24.061  0.00  0.00    +0.000 C 
ATOM     30  C   UNL     1      -2.907  12.096  23.350  0.00  0.00    +0.000 C 
ENDBRANCH  28  30
ENDBRANCH  27  28
ENDBRANCH  23  27
ENDBRANCH  22  24
ENDBRANCH   1  22
TORSDOF 7
ENDMDL
MODEL 8
REMARK VINA RESULT:      -7.8      1.585      2.058
REMARK  Name = 
REMARK  10 active torsions:
REMARK  status: ('A' for Active; 'I' for Inactive)
REMARK    1  A    between atoms: C_1  and  C_2
REMARK    2  A    between atoms: C_2  and  C_3
REMARK    3  A    between atoms: C_3  and  C_4
REMARK    4  A    between atoms: C_4  and  N_5
REMARK    5  A    between atoms: C_6  and  C_8
REMARK    6  A    between atoms: C_8  and  N_9
REMARK    7  A    between atoms: C_15  and  S_16
REMARK    8  A    between atoms: S_16  and  N_19
REMARK    9  A    between atoms: C_21  and  C_22
REMARK   10  A    between atoms: C_24  and  C_25
REMARK                            x       y       z     vdW  Elec       q    Type
REMARK                         _______ _______ _______ _____ _____    ______ ____
ROOT
ATOM      1  N   UNL     1       1.006  10.124  20.088  0.00  0.00    +0.000 N 
ATOM      2  C   UNL     1       0.790   9.830  21.414  0.00  0.00    +0.000 A 
ATOM      3  O   UNL     1       0.372  10.617  22.254  0.00  0.00    +0.000 OA
ATOM      4  O   UNL     1       1.136   8.500  21.698  0.00  0.00    +0.000 OA
ATOM      5  C   UNL     1       1.593   8.038  20.472  0.00  0.00    +0.000 A 
ATOM      6  C   UNL     1       2.057   6.762  20.221  0.00  0.00    +0.000 A 
ATOM      7  C   UNL     1       2.503   6.490  18.920  0.00  0.00    +0.000 A 
ATOM      8  C   UNL     1       2.408   7.470  17.904  0.00  0.00    +0.000 A 
ATOM      9  C   UNL     1       1.917   8.751  18.188  0.00  0.00    +0.000 A 
ATOM     10  C   UNL     1       1.527   9.003  19.484  0.00  0.00    +0.000 A 
ENDROOT
BRANCH   7  11
ATOM     11  S   UNL     1       3.068   4.845  18.498  0.00  0.00    +0.000 S 
ATOM     12  O   UNL     1       3.383   4.197  19.752  0.00  0.00    +0.000 OA
ATOM     13  O   UNL     1       2.092   4.281  17.593  0.00  0.00    +0.000 OA
BRANCH  11  14
ATOM     14  N   UNL     1       4.502   5.063  17.634  0.00  0.00    +0.000 NA
ATOM     15  C   UNL     1       4.881   4.105  16.574  0.00  0.00    +0.000 C 
ATOM     16  C   UNL     1       5.597   4.875  15.454  0.00  0.00    +0.000 C 
ATOM     17  C   UNL     1       6.032   3.949  14.322  0.00  0.00    +0.000 C 
ATOM     18  C   UNL     1       6.812   5.622  16.018  0.00  0.00    +0.000 C 
ATOM     19  C   UNL     1       6.399   6.535  17.181  0.00  0.00    +0.000 C 
ATOM     20  C   UNL     1       7.625   7.255  17.734  0.00  0.00    +0.000 C 
ATOM     21  C   UNL     1       5.661   5.730  18.267  0.00  0.00    +0.000 C 
ENDBRANCH  11  14
ENDBRANCH   7  11
BRANCH   1  22
ATOM     22  C   UNL     1       0.708  11.382  19.448  0.00  0.00    +0.000 C 
BRANCH  22  24
ATOM     23  N   UNL     1      -1.553  12.193  20.003  0.00  0.00    +0.000 N 
ATOM     24  C   UNL     1      -0.770  11.525  19.085  0.00  0.00    +0.000 C 
ATOM     25  O   UNL     1      -1.228  11.017  18.060  0.00  0.00    +0.000 OA
ATOM     26  H   UNL     1      -1.140  12.487  20.885  0.00  0.00    +0.000 HD
BRANCH  23  27
ATOM     27  C   UNL     1      -2.985  12.351  19.815  0.00  0.00    +0.000 C 
BRANCH  27  28
ATOM     28  C   UNL     1      -3.704  12.908  21.046  0.00  0.00    +0.000 C 
BRANCH  28  30
ATOM     29  C   UNL     1      -5.773  12.802  19.608  0.00  0.00    +0.000 C 
ATOM     30  C   UNL     1      -5.038  13.568  20.698  0.00  0.00    +0.000 C 
ENDBRANCH  28  30
ENDBRANCH  27  28
ENDBRANCH  23  27
ENDBRANCH  22  24
ENDBRANCH   1  22
TORSDOF 7
ENDMDL
MODEL 9
REMARK VINA RESULT:      -7.8      2.334      3.533
REMARK  Name = 
REMARK  10 active torsions:
REMARK  status: ('A' for Active; 'I' for Inactive)
REMARK    1  A    between atoms: C_1  and  C_2
REMARK    2  A    between atoms: C_2  and  C_3
REMARK    3  A    between atoms: C_3  and  C_4
REMARK    4  A    between atoms: C_4  and  N_5
REMARK    5  A    between atoms: C_6  and  C_8
REMARK    6  A    between atoms: C_8  and  N_9
REMARK    7  A    between atoms: C_15  and  S_16
REMARK    8  A    between atoms: S_16  and  N_19
REMARK    9  A    between atoms: C_21  and  C_22
REMARK   10  A    between atoms: C_24  and  C_25
REMARK                            x       y       z     vdW  Elec       q    Type
REMARK                         _______ _______ _______ _____ _____    ______ ____
ROOT
ATOM      1  N   UNL     1       1.021  10.659  19.794  0.00  0.00    +0.000 N 
ATOM      2  C   UNL     1       0.720  10.452  21.120  0.00  0.00    +0.000 A 
ATOM      3  O   UNL     1       0.292  11.302  21.889  0.00  0.00    +0.000 OA
ATOM      4  O   UNL     1       0.993   9.128  21.497  0.00  0.00    +0.000 OA
ATOM      5  C   UNL     1       1.496   8.578  20.326  0.00  0.00    +0.000 A 
ATOM      6  C   UNL     1       1.918   7.271  20.174  0.00  0.00    +0.000 A 
ATOM      7  C   UNL     1       2.422   6.906  18.918  0.00  0.00    +0.000 A 
ATOM      8  C   UNL     1       2.425   7.828  17.845  0.00  0.00    +0.000 A 
ATOM      9  C   UNL     1       1.975   9.143  18.028  0.00  0.00    +0.000 A 
ATOM     10  C   UNL     1       1.526   9.485  19.284  0.00  0.00    +0.000 A 
ENDROOT
BRANCH   7  11
ATOM     11  S   UNL     1       2.938   5.219  18.622  0.00  0.00    +0.000 S 
ATOM     12  O   UNL     1       3.225   4.654  19.922  0.00  0.00    +0.000 OA
ATOM     13  O   UNL     1       1.952   4.620  17.751  0.00  0.00    +0.000 OA
BRANCH  11  14
ATOM     14  N   UNL     1       4.385   5.329  17.758  0.00  0.00    +0.000 NA
ATOM     15  C   UNL     1       4.652   4.402  16.638  0.00  0.00    +0.000 C 
ATOM     16  C   UNL     1       5.444   5.154  15.559  0.00  0.00    +0.000 C 
ATOM     17  C   UNL     1       5.770   4.256  14.369  0.00  0.00    +0.000 C 
ATOM     18  C   UNL     1       6.736   5.727  16.154  0.00  0.00    +0.000 C 
ATOM     19  C   UNL     1       6.432   6.608  17.374  0.00  0.00    +0.000 C 
ATOM     20  C   UNL     1       7.732   7.153  17.957  0.00  0.00    +0.000 C 
ATOM     21  C   UNL     1       5.613   5.824  18.418  0.00  0.00    +0.000 C 
ENDBRANCH  11  14
ENDBRANCH   7  11
BRANCH   1  22
ATOM     22  C   UNL     1       0.813  11.889  19.068  0.00  0.00    +0.000 C 
BRANCH  22  24
ATOM     23  N   UNL     1       2.651  13.168  18.040  0.00  0.00    +0.000 N 
ATOM     24  C   UNL     1       1.983  12.862  19.206  0.00  0.00    +0.000 C 
ATOM     25  O   UNL     1       2.330  13.291  20.308  0.00  0.00    +0.000 OA
ATOM     26  H   UNL     1       2.391  12.690  17.181  0.00  0.00    +0.000 HD
BRANCH  23  27
ATOM     27  C   UNL     1       3.818  14.033  18.032  0.00  0.00    +0.000 C 
BRANCH  27  28
ATOM     28  C   UNL     1       3.544  15.422  17.448  0.00  0.00    +0.000 C 
BRANCH  28  30
ATOM     29  C   UNL     1       2.375  16.784  19.220  0.00  0.00    +0.000 C 
ATOM     30  C   UNL     1       3.685  16.534  18.488  0.00  0.00    +0.000 C 
ENDBRANCH  28  30
ENDBRANCH  27  28
ENDBRANCH  23  27
ENDBRANCH  22  24
ENDBRANCH   1  22
TORSDOF 7
ENDMDL
