MODEL 1
REMARK VINA RESULT:      -8.0      0.000      0.000
REMARK  Name = 
REMARK  5 active torsions:
REMARK  status: ('A' for Active; 'I' for Inactive)
REMARK    1  A    between atoms: C_1  and  C_2
REMARK    2  A    between atoms: N_6  and  C_7
REMARK    3  A    between atoms: N_10  and  C_11
REMARK    4  A    between atoms: C_11  and  C_12
REMARK    5  A    between atoms: C_11  and  C_13
REMARK                            x       y       z     vdW  Elec       q    Type
REMARK                         _______ _______ _______ _____ _____    ______ ____
ROOT
ATOM      1  C   UNL     1       2.912   7.531  17.757  0.00  0.00    +0.000 A 
ATOM      2  N   UNL     1       4.217   7.706  17.469  0.00  0.00    +0.000 NA
ATOM      3  C   UNL     1       5.053   6.705  17.777  0.00  0.00    +0.000 A 
ATOM      4  N   UNL     1       6.373   6.909  17.461  0.00  0.00    +0.000 N 
ATOM      5  N   UNL     1       4.678   5.544  18.339  0.00  0.00    +0.000 NA
ATOM      6  C   UNL     1       3.366   5.338  18.559  0.00  0.00    +0.000 A 
ATOM      7  N   UNL     1       2.950   4.140  19.130  0.00  0.00    +0.000 N 
ATOM      8  C   UNL     1       3.903   3.341  19.907  0.00  0.00    +0.000 C 
ATOM      9  C   UNL     1       4.387   2.115  19.126  0.00  0.00    +0.000 C 
ATOM     10  O   UNL     1       3.288   1.346  18.608  0.00  0.00    +0.000 OA
ATOM     11  C   UNL     1       2.502   2.154  17.720  0.00  0.00    +0.000 C 
ATOM     12  C   UNL     1       1.902   3.371  18.441  0.00  0.00    +0.000 C 
ATOM     13  C   UNL     1       2.443   6.325  18.255  0.00  0.00    +0.000 A 
ATOM     14  F   UNL     1       1.129   6.112  18.443  0.00  0.00    +0.000 F 
ATOM     15  H   UNL     1       6.495   7.681  16.815  0.00  0.00    +0.000 HD
ENDROOT
BRANCH   1  21
ATOM     16  C   UNL     1      -1.418  11.171  20.375  0.00  0.00    +0.000 C 
ATOM     17  C   UNL     1      -0.223  10.481  19.829  0.00  0.00    +0.000 A 
ATOM     18  C   UNL     1       0.904  10.042  20.488  0.00  0.00    +0.000 A 
ATOM     19  N   UNL     1       1.829   9.384  19.709  0.00  0.00    +0.000 NA
ATOM     20  C   UNL     1       1.407   9.285  18.466  0.00  0.00    +0.000 A 
ATOM     21  N   UNL     1       2.038   8.601  17.477  0.00  0.00    +0.000 N 
ATOM     22  S   UNL     1      -0.084  10.105  18.161  0.00  0.00    +0.000 S 
ATOM     23  H   UNL     1       2.427   9.159  16.725  0.00  0.00    +0.000 HD
ENDBRANCH   1  21
BRANCH   4  24
ATOM     24  C   UNL     1       7.257   5.765  17.240  0.00  0.00    +0.000 C 
ATOM     25  C   UNL     1       7.133   4.713  18.347  0.00  0.00    +0.000 C 
BRANCH  24  26
ATOM     26  C   UNL     1       6.913   5.086  15.905  0.00  0.00    +0.000 A 
ATOM     27  N   UNL     1       7.520   5.546  14.785  0.00  0.00    +0.000 NA
ATOM     28  C   UNL     1       7.207   4.916  13.629  0.00  0.00    +0.000 A 
ATOM     29  C   UNL     1       6.332   3.862  13.555  0.00  0.00    +0.000 A 
ATOM     30  F   UNL     1       6.037   3.268  12.394  0.00  0.00    +0.000 F 
ATOM     31  C   UNL     1       5.779   3.451  14.742  0.00  0.00    +0.000 A 
ATOM     32  N   UNL     1       6.059   4.030  15.930  0.00  0.00    +0.000 NA
ENDBRANCH  24  26
ENDBRANCH   4  24
TORSDOF 3
ENDMDL
MODEL 2
REMARK VINA RESULT:      -7.9      5.520      9.066
REMARK  Name = 
REMARK  5 active torsions:
REMARK  status: ('A' for Active; 'I' for Inactive)
REMARK    1  A    between atoms: C_1  and  C_2
REMARK    2  A    between atoms: N_6  and  C_7
REMARK    3  A    between atoms: N_10  and  C_11
REMARK    4  A    between atoms: C_11  and  C_12
REMARK    5  A    between atoms: C_11  and  C_13
REMARK                            x       y       z     vdW  Elec       q    Type
REMARK                         _______ _______ _______ _____ _____    ______ ____
ROOT
ATOM      1  C   UNL     1      -3.223  13.270  20.461  0.00  0.00    +0.000 A 
ATOM      2  N   UNL     1      -1.888  13.132  20.582  0.00  0.00    +0.000 NA
ATOM      3  C   UNL     1      -1.297  12.195  19.828  0.00  0.00    +0.000 A 
ATOM      4  N   UNL     1       0.064  12.087  19.966  0.00  0.00    +0.000 N 
ATOM      5  N   UNL     1      -1.940  11.399  18.958  0.00  0.00    +0.000 NA
ATOM      6  C   UNL     1      -3.261  11.586  18.781  0.00  0.00    +0.000 A 
ATOM      7  N   UNL     1      -3.948  10.782  17.878  0.00  0.00    +0.000 N 
ATOM      8  C   UNL     1      -3.390   9.480  17.499  0.00  0.00    +0.000 C 
ATOM      9  C   UNL     1      -2.778   9.512  16.094  0.00  0.00    +0.000 C 
ATOM     10  O   UNL     1      -3.698  10.041  15.125  0.00  0.00    +0.000 OA
ATOM     11  C   UNL     1      -4.062  11.384  15.479  0.00  0.00    +0.000 C 
ATOM     12  C   UNL     1      -4.763  11.440  16.845  0.00  0.00    +0.000 C 
ATOM     13  C   UNL     1      -3.937  12.543  19.519  0.00  0.00    +0.000 A 
ATOM     14  F   UNL     1      -5.250  12.756  19.323  0.00  0.00    +0.000 F 
ATOM     15  H   UNL     1       0.465  12.894  20.432  0.00  0.00    +0.000 HD
ENDROOT
BRANCH   1  21
ATOM     16  C   UNL     1      -7.915  13.946  24.508  0.00  0.00    +0.000 C 
ATOM     17  C   UNL     1      -6.660  13.724  23.748  0.00  0.00    +0.000 A 
ATOM     18  C   UNL     1      -5.883  12.591  23.664  0.00  0.00    +0.000 A 
ATOM     19  N   UNL     1      -4.793  12.678  22.828  0.00  0.00    +0.000 NA
ATOM     20  C   UNL     1      -4.745  13.858  22.246  0.00  0.00    +0.000 A 
ATOM     21  N   UNL     1      -3.854  14.222  21.288  0.00  0.00    +0.000 N 
ATOM     22  S   UNL     1      -5.959  14.962  22.789  0.00  0.00    +0.000 S 
ATOM     23  H   UNL     1      -3.179  14.931  21.551  0.00  0.00    +0.000 HD
ENDBRANCH   1  21
BRANCH   4  24
ATOM     24  C   UNL     1       0.868  11.532  18.877  0.00  0.00    +0.000 C 
ATOM     25  C   UNL     1       2.153  12.332  18.640  0.00  0.00    +0.000 C 
BRANCH  24  26
ATOM     26  C   UNL     1       1.268  10.085  19.203  0.00  0.00    +0.000 A 
ATOM     27  N   UNL     1       1.901   9.371  18.243  0.00  0.00    +0.000 NA
ATOM     28  C   UNL     1       2.254   8.105  18.568  0.00  0.00    +0.000 A 
ATOM     29  C   UNL     1       2.005   7.542  19.794  0.00  0.00    +0.000 A 
ATOM     30  F   UNL     1       2.358   6.285  20.080  0.00  0.00    +0.000 F 
ATOM     31  C   UNL     1       1.377   8.346  20.712  0.00  0.00    +0.000 A 
ATOM     32  N   UNL     1       1.010   9.620  20.454  0.00  0.00    +0.000 NA
ENDBRANCH  24  26
ENDBRANCH   4  24
TORSDOF 3
ENDMDL
MODEL 3
REMARK VINA RESULT:      -7.6      5.122      8.913
REMARK  Name = 
REMARK  5 active torsions:
REMARK  status: ('A' for Active; 'I' for Inactive)
REMARK    1  A    between atoms: C_1  and  C_2
REMARK    2  A    between atoms: N_6  and  C_7
REMARK    3  A    between atoms: N_10  and  C_11
REMARK    4  A    between atoms: C_11  and  C_12
REMARK    5  A    between atoms: C_11  and  C_13
REMARK                            x       y       z     vdW  Elec       q    Type
REMARK                         _______ _______ _______ _____ _____    ______ ____
ROOT
ATOM      1  C   UNL     1      -2.335  13.006  20.116  0.00  0.00    +0.000 A 
ATOM      2  N   UNL     1      -1.987  11.707  20.191  0.00  0.00    +0.000 NA
ATOM      3  C   UNL     1      -0.677  11.420  20.180  0.00  0.00    +0.000 A 
ATOM      4  N   UNL     1      -0.355  10.090  20.268  0.00  0.00    +0.000 N 
ATOM      5  N   UNL     1       0.303  12.336  20.110  0.00  0.00    +0.000 NA
ATOM      6  C   UNL     1      -0.041  13.637  20.111  0.00  0.00    +0.000 A 
ATOM      7  N   UNL     1       0.955  14.606  20.051  0.00  0.00    +0.000 N 
ATOM      8  C   UNL     1       2.275  14.253  19.519  0.00  0.00    +0.000 C 
ATOM      9  C   UNL     1       3.315  14.101  20.635  0.00  0.00    +0.000 C 
ATOM     10  O   UNL     1       3.338  15.249  21.500  0.00  0.00    +0.000 OA
ATOM     11  C   UNL     1       2.052  15.423  22.115  0.00  0.00    +0.000 C 
ATOM     12  C   UNL     1       0.952  15.667  21.070  0.00  0.00    +0.000 C 
ATOM     13  C   UNL     1      -1.376  14.008  20.132  0.00  0.00    +0.000 A 
ATOM     14  F   UNL     1      -1.724  15.306  20.165  0.00  0.00    +0.000 F 
ATOM     15  H   UNL     1      -1.139   9.527  20.580  0.00  0.00    +0.000 HD
ENDROOT
BRANCH   1  21
ATOM     16  C   UNL     1      -7.557  12.591  23.494  0.00  0.00    +0.000 C 
ATOM     17  C   UNL     1      -6.284  12.914  22.803  0.00  0.00    +0.000 A 
ATOM     18  C   UNL     1      -5.048  13.190  23.342  0.00  0.00    +0.000 A 
ATOM     19  N   UNL     1      -4.037  13.405  22.431  0.00  0.00    +0.000 NA
ATOM     20  C   UNL     1      -4.481  13.264  21.200  0.00  0.00    +0.000 A 
ATOM     21  N   UNL     1      -3.712  13.307  20.081  0.00  0.00    +0.000 N 
ATOM     22  S   UNL     1      -6.184  12.988  21.092  0.00  0.00    +0.000 S 
ATOM     23  H   UNL     1      -3.863  14.097  19.465  0.00  0.00    +0.000 HD
ENDBRANCH   1  21
BRANCH   4  24
ATOM     24  C   UNL     1       0.949   9.686  20.794  0.00  0.00    +0.000 C 
ATOM     25  C   UNL     1       0.848   9.098  22.205  0.00  0.00    +0.000 C 
BRANCH  24  26
ATOM     26  C   UNL     1       1.576   8.620  19.884  0.00  0.00    +0.000 A 
ATOM     27  N   UNL     1       1.867   8.967  18.608  0.00  0.00    +0.000 NA
ATOM     28  C   UNL     1       2.433   8.010  17.837  0.00  0.00    +0.000 A 
ATOM     29  C   UNL     1       2.717   6.745  18.288  0.00  0.00    +0.000 A 
ATOM     30  F   UNL     1       3.268   5.819  17.497  0.00  0.00    +0.000 F 
ATOM     31  C   UNL     1       2.406   6.488  19.600  0.00  0.00    +0.000 A 
ATOM     32  N   UNL     1       1.851   7.404  20.424  0.00  0.00    +0.000 NA
ENDBRANCH  24  26
ENDBRANCH   4  24
TORSDOF 3
ENDMDL
MODEL 4
REMARK VINA RESULT:      -7.6      5.186     10.684
REMARK  Name = 
REMARK  5 active torsions:
REMARK  status: ('A' for Active; 'I' for Inactive)
REMARK    1  A    between atoms: C_1  and  C_2
REMARK    2  A    between atoms: N_6  and  C_7
REMARK    3  A    between atoms: N_10  and  C_11
REMARK    4  A    between atoms: C_11  and  C_12
REMARK    5  A    between atoms: C_11  and  C_13
REMARK                            x       y       z     vdW  Elec       q    Type
REMARK                         _______ _______ _______ _____ _____    ______ ____
ROOT
ATOM      1  C   UNL     1       0.460   9.754  20.201  0.00  0.00    +0.000 A 
ATOM      2  N   UNL     1      -0.596   9.529  19.395  0.00  0.00    +0.000 NA
ATOM      3  C   UNL     1      -1.301  10.596  18.994  0.00  0.00    +0.000 A 
ATOM      4  N   UNL     1      -2.363  10.335  18.166  0.00  0.00    +0.000 N 
ATOM      5  N   UNL     1      -1.020  11.865  19.332  0.00  0.00    +0.000 NA
ATOM      6  C   UNL     1       0.078  12.098  20.075  0.00  0.00    +0.000 A 
ATOM      7  N   UNL     1       0.397  13.405  20.429  0.00  0.00    +0.000 N 
ATOM      8  C   UNL     1      -0.650  14.431  20.424  0.00  0.00    +0.000 C 
ATOM      9  C   UNL     1      -0.529  15.360  19.210  0.00  0.00    +0.000 C 
ATOM     10  O   UNL     1       0.798  15.898  19.082  0.00  0.00    +0.000 OA
ATOM     11  C   UNL     1       1.744  14.832  18.919  0.00  0.00    +0.000 C 
ATOM     12  C   UNL     1       1.754  13.890  20.133  0.00  0.00    +0.000 C 
ATOM     13  C   UNL     1       0.860  11.044  20.517  0.00  0.00    +0.000 A 
ATOM     14  F   UNL     1       1.974  11.273  21.233  0.00  0.00    +0.000 F 
ATOM     15  H   UNL     1      -2.319   9.402  17.771  0.00  0.00    +0.000 HD
ENDROOT
BRANCH   1  21
ATOM     16  C   UNL     1       3.361   4.607  18.215  0.00  0.00    +0.000 C 
ATOM     17  C   UNL     1       2.896   5.944  18.660  0.00  0.00    +0.000 A 
ATOM     18  C   UNL     1       2.926   7.144  17.987  0.00  0.00    +0.000 A 
ATOM     19  N   UNL     1       2.368   8.213  18.652  0.00  0.00    +0.000 NA
ATOM     20  C   UNL     1       1.881   7.836  19.815  0.00  0.00    +0.000 A 
ATOM     21  N   UNL     1       1.174   8.629  20.662  0.00  0.00    +0.000 N 
ATOM     22  S   UNL     1       2.196   6.183  20.208  0.00  0.00    +0.000 S 
ATOM     23  H   UNL     1       1.626   8.860  21.540  0.00  0.00    +0.000 HD
ENDBRANCH   1  21
BRANCH   4  24
ATOM     24  C   UNL     1      -2.854  11.372  17.258  0.00  0.00    +0.000 C 
ATOM     25  C   UNL     1      -2.978  10.869  15.816  0.00  0.00    +0.000 C 
BRANCH  24  26
ATOM     26  C   UNL     1      -4.242  11.851  17.710  0.00  0.00    +0.000 A 
ATOM     27  N   UNL     1      -5.188  12.042  16.760  0.00  0.00    +0.000 NA
ATOM     28  C   UNL     1      -6.403  12.449  17.192  0.00  0.00    +0.000 A 
ATOM     29  C   UNL     1      -6.702  12.663  18.515  0.00  0.00    +0.000 A 
ATOM     30  F   UNL     1      -7.912  13.076  18.908  0.00  0.00    +0.000 F 
ATOM     31  C   UNL     1      -5.690  12.426  19.409  0.00  0.00    +0.000 A 
ATOM     32  N   UNL     1      -4.458  12.008  19.043  0.00  0.00    +0.000 NA
ENDBRANCH  24  26
ENDBRANCH   4  24
TORSDOF 3
ENDMDL
MODEL 5
REMARK VINA RESULT:      -7.5      9.161     11.989
REMARK  Name = 
REMARK  5 active torsions:
REMARK  status: ('A' for Active; 'I' for Inactive)
REMARK    1  A    between atoms: C_1  and  C_2
REMARK    2  A    between atoms: N_6  and  C_7
REMARK    3  A    between atoms: N_10  and  C_11
REMARK    4  A    between atoms: C_11  and  C_12
REMARK    5  A    between atoms: C_11  and  C_13
REMARK                            x       y       z     vdW  Elec       q    Type
REMARK                         _______ _______ _______ _____ _____    ______ ____
ROOT
ATOM      1  C   UNL     1       3.389  14.663  18.124  0.00  0.00    +0.000 A 
ATOM      2  N   UNL     1       2.645  13.580  18.419  0.00  0.00    +0.000 NA
ATOM      3  C   UNL     1       1.379  13.792  18.805  0.00  0.00    +0.000 A 
ATOM      4  N   UNL     1       0.643  12.668  19.088  0.00  0.00    +0.000 N 
ATOM      5  N   UNL     1       0.805  15.002  18.906  0.00  0.00    +0.000 NA
ATOM      6  C   UNL     1       1.524  16.079  18.540  0.00  0.00    +0.000 A 
ATOM      7  N   UNL     1       0.950  17.343  18.626  0.00  0.00    +0.000 N 
ATOM      8  C   UNL     1      -0.191  17.559  19.521  0.00  0.00    +0.000 C 
ATOM      9  C   UNL     1      -1.510  17.663  18.747  0.00  0.00    +0.000 C 
ATOM     10  O   UNL     1      -1.429  18.628  17.684  0.00  0.00    +0.000 OA
ATOM     11  C   UNL     1      -0.401  18.248  16.757  0.00  0.00    +0.000 C 
ATOM     12  C   UNL     1       0.980  18.200  17.430  0.00  0.00    +0.000 C 
ATOM     13  C   UNL     1       2.836  15.935  18.121  0.00  0.00    +0.000 A 
ATOM     14  F   UNL     1       3.548  17.004  17.724  0.00  0.00    +0.000 F 
ATOM     15  H   UNL     1       1.079  11.827  18.727  0.00  0.00    +0.000 HD
ENDROOT
BRANCH   1  21
ATOM     16  C   UNL     1       9.221  16.233  19.664  0.00  0.00    +0.000 C 
ATOM     17  C   UNL     1       7.864  15.669  19.462  0.00  0.00    +0.000 A 
ATOM     18  C   UNL     1       6.860  15.467  20.383  0.00  0.00    +0.000 A 
ATOM     19  N   UNL     1       5.681  14.968  19.877  0.00  0.00    +0.000 NA
ATOM     20  C   UNL     1       5.760  14.817  18.572  0.00  0.00    +0.000 A 
ATOM     21  N   UNL     1       4.735  14.446  17.762  0.00  0.00    +0.000 N 
ATOM     22  S   UNL     1       7.324  15.156  17.917  0.00  0.00    +0.000 S 
ATOM     23  H   UNL     1       4.817  13.534  17.326  0.00  0.00    +0.000 HD
ENDBRANCH   1  21
BRANCH   4  24
ATOM     24  C   UNL     1      -0.816  12.705  18.989  0.00  0.00    +0.000 C 
ATOM     25  C   UNL     1      -1.360  11.633  18.040  0.00  0.00    +0.000 C 
BRANCH  24  26
ATOM     26  C   UNL     1      -1.442  12.472  20.372  0.00  0.00    +0.000 A 
ATOM     27  N   UNL     1      -0.783  11.666  21.239  0.00  0.00    +0.000 NA
ATOM     28  C   UNL     1      -1.354  11.494  22.453  0.00  0.00    +0.000 A 
ATOM     29  C   UNL     1      -2.533  12.089  22.826  0.00  0.00    +0.000 A 
ATOM     30  F   UNL     1      -3.075  11.890  24.032  0.00  0.00    +0.000 F 
ATOM     31  C   UNL     1      -3.121  12.904  21.892  0.00  0.00    +0.000 A 
ATOM     32  N   UNL     1      -2.596  13.126  20.666  0.00  0.00    +0.000 NA
ENDBRANCH  24  26
ENDBRANCH   4  24
TORSDOF 3
ENDMDL
MODEL 6
REMARK VINA RESULT:      -7.5      2.944      7.603
REMARK  Name = 
REMARK  5 active torsions:
REMARK  status: ('A' for Active; 'I' for Inactive)
REMARK    1  A    between atoms: C_1  and  C_2
REMARK    2  A    between atoms: N_6  and  C_7
REMARK    3  A    between atoms: N_10  and  C_11
REMARK    4  A    between atoms: C_11  and  C_12
REMARK    5  A    between atoms: C_11  and  C_13
REMARK                            x       y       z     vdW  Elec       q    Type
REMARK                         _______ _______ _______ _____ _____    ______ ____
ROOT
ATOM      1  C   UNL     1       4.621   5.697  16.868  0.00  0.00    +0.000 A 
ATOM      2  N   UNL     1       3.992   6.858  17.135  0.00  0.00    +0.000 NA
ATOM      3  C   UNL     1       2.886   6.797  17.891  0.00  0.00    +0.000 A 
ATOM      4  N   UNL     1       2.275   7.997  18.154  0.00  0.00    +0.000 N 
ATOM      5  N   UNL     1       2.374   5.666  18.403  0.00  0.00    +0.000 NA
ATOM      6  C   UNL     1       3.042   4.516  18.198  0.00  0.00    +0.000 A 
ATOM      7  N   UNL     1       2.539   3.332  18.727  0.00  0.00    +0.000 N 
ATOM      8  C   UNL     1       1.115   3.240  19.066  0.00  0.00    +0.000 C 
ATOM      9  C   UNL     1       0.885   3.319  20.579  0.00  0.00    +0.000 C 
ATOM     10  O   UNL     1       1.704   2.375  21.292  0.00  0.00    +0.000 OA
ATOM     11  C   UNL     1       3.091   2.644  21.041  0.00  0.00    +0.000 C 
ATOM     12  C   UNL     1       3.435   2.505  19.550  0.00  0.00    +0.000 C 
ATOM     13  C   UNL     1       4.199   4.504  17.436  0.00  0.00    +0.000 A 
ATOM     14  F   UNL     1       4.887   3.364  17.256  0.00  0.00    +0.000 F 
ATOM     15  H   UNL     1       2.880   8.785  17.953  0.00  0.00    +0.000 HD
ENDROOT
BRANCH   1  21
ATOM     16  C   UNL     1       7.232   2.977  11.904  0.00  0.00    +0.000 C 
ATOM     17  C   UNL     1       6.500   3.777  12.917  0.00  0.00    +0.000 A 
ATOM     18  C   UNL     1       5.145   3.981  13.049  0.00  0.00    +0.000 A 
ATOM     19  N   UNL     1       4.761   4.740  14.132  0.00  0.00    +0.000 NA
ATOM     20  C   UNL     1       5.807   5.092  14.849  0.00  0.00    +0.000 A 
ATOM     21  N   UNL     1       5.758   5.753  16.035  0.00  0.00    +0.000 N 
ATOM     22  S   UNL     1       7.322   4.620  14.164  0.00  0.00    +0.000 S 
ATOM     23  H   UNL     1       6.122   6.699  16.035  0.00  0.00    +0.000 HD
ENDBRANCH   1  21
BRANCH   4  24
ATOM     24  C   UNL     1       1.436   8.144  19.344  0.00  0.00    +0.000 C 
ATOM     25  C   UNL     1       2.100   7.564  20.597  0.00  0.00    +0.000 C 
BRANCH  24  26
ATOM     26  C   UNL     1       1.154   9.631  19.607  0.00  0.00    +0.000 A 
ATOM     27  N   UNL     1       0.800   9.997  20.861  0.00  0.00    +0.000 NA
ATOM     28  C   UNL     1       0.573  11.316  21.063  0.00  0.00    +0.000 A 
ATOM     29  C   UNL     1       0.691  12.263  20.077  0.00  0.00    +0.000 A 
ATOM     30  F   UNL     1       0.450  13.558  20.307  0.00  0.00    +0.000 F 
ATOM     31  C   UNL     1       1.073  11.804  18.841  0.00  0.00    +0.000 A 
ATOM     32  N   UNL     1       1.325  10.503  18.578  0.00  0.00    +0.000 NA
ENDBRANCH  24  26
ENDBRANCH   4  24
TORSDOF 3
ENDMDL
MODEL 7
REMARK VINA RESULT:      -7.4      4.683      8.217
REMARK  Name = 
REMARK  5 active torsions:
REMARK  status: ('A' for Active; 'I' for Inactive)
REMARK    1  A    between atoms: C_1  and  C_2
REMARK    2  A    between atoms: N_6  and  C_7
REMARK    3  A    between atoms: N_10  and  C_11
REMARK    4  A    between atoms: C_11  and  C_12
REMARK    5  A    between atoms: C_11  and  C_13
REMARK                            x       y       z     vdW  Elec       q    Type
REMARK                         _______ _______ _______ _____ _____    ______ ____
ROOT
ATOM      1  C   UNL     1      -2.023  12.094  18.890  0.00  0.00    +0.000 A 
ATOM      2  N   UNL     1      -1.563  10.831  18.976  0.00  0.00    +0.000 NA
ATOM      3  C   UNL     1      -0.261  10.670  19.254  0.00  0.00    +0.000 A 
ATOM      4  N   UNL     1       0.174   9.372  19.346  0.00  0.00    +0.000 N 
ATOM      5  N   UNL     1       0.604  11.676  19.460  0.00  0.00    +0.000 NA
ATOM      6  C   UNL     1       0.130  12.936  19.448  0.00  0.00    +0.000 A 
ATOM      7  N   UNL     1       1.004  13.995  19.670  0.00  0.00    +0.000 N 
ATOM      8  C   UNL     1       2.440  13.807  19.441  0.00  0.00    +0.000 C 
ATOM      9  C   UNL     1       3.212  13.670  20.758  0.00  0.00    +0.000 C 
ATOM     10  O   UNL     1       2.915  14.748  21.663  0.00  0.00    +0.000 OA
ATOM     11  C   UNL     1       1.513  14.754  21.971  0.00  0.00    +0.000 C 
ATOM     12  C   UNL     1       0.657  14.972  20.713  0.00  0.00    +0.000 C 
ATOM     13  C   UNL     1      -1.206  13.177  19.178  0.00  0.00    +0.000 A 
ATOM     14  F   UNL     1      -1.691  14.431  19.197  0.00  0.00    +0.000 F 
ATOM     15  H   UNL     1      -0.594   8.717  19.438  0.00  0.00    +0.000 HD
ENDROOT
BRANCH   1  21
ATOM     16  C   UNL     1      -7.771  11.813  21.285  0.00  0.00    +0.000 C 
ATOM     17  C   UNL     1      -6.407  12.122  20.788  0.00  0.00    +0.000 A 
ATOM     18  C   UNL     1      -5.314  12.589  21.483  0.00  0.00    +0.000 A 
ATOM     19  N   UNL     1      -4.159  12.732  20.747  0.00  0.00    +0.000 NA
ATOM     20  C   UNL     1      -4.349  12.348  19.502  0.00  0.00    +0.000 A 
ATOM     21  N   UNL     1      -3.382  12.267  18.552  0.00  0.00    +0.000 N 
ATOM     22  S   UNL     1      -5.982  11.915  19.139  0.00  0.00    +0.000 S 
ATOM     23  H   UNL     1      -3.451  12.927  17.785  0.00  0.00    +0.000 HD
ENDBRANCH   1  21
BRANCH   4  24
ATOM     24  C   UNL     1       1.362   9.054  20.139  0.00  0.00    +0.000 C 
ATOM     25  C   UNL     1       1.016   8.716  21.592  0.00  0.00    +0.000 C 
BRANCH  24  26
ATOM     26  C   UNL     1       2.088   7.843  19.534  0.00  0.00    +0.000 A 
ATOM     27  N   UNL     1       2.048   6.674  20.217  0.00  0.00    +0.000 NA
ATOM     28  C   UNL     1       2.684   5.623  19.650  0.00  0.00    +0.000 A 
ATOM     29  C   UNL     1       3.342   5.696  18.448  0.00  0.00    +0.000 A 
ATOM     30  F   UNL     1       3.969   4.640  17.920  0.00  0.00    +0.000 F 
ATOM     31  C   UNL     1       3.315   6.914  17.818  0.00  0.00    +0.000 A 
ATOM     32  N   UNL     1       2.688   7.998  18.325  0.00  0.00    +0.000 NA
ENDBRANCH  24  26
ENDBRANCH   4  24
TORSDOF 3
ENDMDL
MODEL 8
REMARK VINA RESULT:      -7.2      5.234     11.235
REMARK  Name = 
REMARK  5 active torsions:
REMARK  status: ('A' for Active; 'I' for Inactive)
REMARK    1  A    between atoms: C_1  and  C_2
REMARK    2  A    between atoms: N_6  and  C_7
REMARK    3  A    between atoms: N_10  and  C_11
REMARK    4  A    between atoms: C_11  and  C_12
REMARK    5  A    between atoms: C_11  and  C_13
REMARK                            x       y       z     vdW  Elec       q    Type
REMARK                         _______ _______ _______ _____ _____    ______ ____
ROOT
ATOM      1  C   UNL     1       0.908  10.778  18.434  0.00  0.00    +0.000 A 
ATOM      2  N   UNL     1      -0.381  10.626  18.795  0.00  0.00    +0.000 NA
ATOM      3  C   UNL     1      -0.930  11.599  19.535  0.00  0.00    +0.000 A 
ATOM      4  N   UNL     1      -2.246  11.421  19.877  0.00  0.00    +0.000 N 
ATOM      5  N   UNL     1      -0.288  12.711  19.929  0.00  0.00    +0.000 NA
ATOM      6  C   UNL     1       0.976  12.899  19.507  0.00  0.00    +0.000 A 
ATOM      7  N   UNL     1       1.660  14.048  19.892  0.00  0.00    +0.000 N 
ATOM      8  C   UNL     1       1.226  14.782  21.085  0.00  0.00    +0.000 C 
ATOM      9  C   UNL     1       0.475  16.067  20.719  0.00  0.00    +0.000 C 
ATOM     10  O   UNL     1       1.221  16.875  19.793  0.00  0.00    +0.000 OA
ATOM     11  C   UNL     1       1.455  16.140  18.583  0.00  0.00    +0.000 C 
ATOM     12  C   UNL     1       2.280  14.869  18.841  0.00  0.00    +0.000 C 
ATOM     13  C   UNL     1       1.604  11.940  18.730  0.00  0.00    +0.000 A 
ATOM     14  F   UNL     1       2.855  12.138  18.279  0.00  0.00    +0.000 F 
ATOM     15  H   UNL     1      -2.692  10.703  19.316  0.00  0.00    +0.000 HD
ENDROOT
BRANCH   1  21
ATOM     16  C   UNL     1       4.260   5.563  19.087  0.00  0.00    +0.000 C 
ATOM     17  C   UNL     1       3.261   6.652  18.954  0.00  0.00    +0.000 A 
ATOM     18  C   UNL     1       2.274   7.040  19.833  0.00  0.00    +0.000 A 
ATOM     19  N   UNL     1       1.529   8.131  19.446  0.00  0.00    +0.000 NA
ATOM     20  C   UNL     1       1.956   8.603  18.294  0.00  0.00    +0.000 A 
ATOM     21  N   UNL     1       1.501   9.733  17.694  0.00  0.00    +0.000 N 
ATOM     22  S   UNL     1       3.207   7.658  17.566  0.00  0.00    +0.000 S 
ATOM     23  H   UNL     1       0.986   9.605  16.831  0.00  0.00    +0.000 HD
ENDBRANCH   1  21
BRANCH   4  24
ATOM     24  C   UNL     1      -3.085  12.579  20.188  0.00  0.00    +0.000 C 
ATOM     25  C   UNL     1      -4.379  12.594  19.368  0.00  0.00    +0.000 C 
BRANCH  24  26
ATOM     26  C   UNL     1      -3.470  12.565  21.675  0.00  0.00    +0.000 A 
ATOM     27  N   UNL     1      -4.779  12.703  21.992  0.00  0.00    +0.000 NA
ATOM     28  C   UNL     1      -5.086  12.671  23.310  0.00  0.00    +0.000 A 
ATOM     29  C   UNL     1      -4.151  12.506  24.300  0.00  0.00    +0.000 A 
ATOM     30  F   UNL     1      -4.487  12.489  25.594  0.00  0.00    +0.000 F 
ATOM     31  C   UNL     1      -2.852  12.355  23.886  0.00  0.00    +0.000 A 
ATOM     32  N   UNL     1      -2.482  12.366  22.586  0.00  0.00    +0.000 NA
ENDBRANCH  24  26
ENDBRANCH   4  24
TORSDOF 3
ENDMDL
MODEL 9
REMARK VINA RESULT:      -7.2      5.968     11.788
REMARK  Name = 
REMARK  5 active torsions:
REMARK  status: ('A' for Active; 'I' for Inactive)
REMARK    1  A    between atoms: C_1  and  C_2
REMARK    2  A    between atoms: N_6  and  C_7
REMARK    3  A    between atoms: N_10  and  C_11
REMARK    4  A    between atoms: C_11  and  C_12
REMARK    5  A    between atoms: C_11  and  C_13
REMARK                            x       y       z     vdW  Elec       q    Type
REMARK                         _______ _______ _______ _____ _____    ______ ____
ROOT
ATOM      1  C   UNL     1       0.839  11.670  18.816  0.00  0.00    +0.000 A 
ATOM      2  N   UNL     1      -0.320  11.837  19.482  0.00  0.00    +0.000 NA
ATOM      3  C   UNL     1      -0.478  12.981  20.162  0.00  0.00    +0.000 A 
ATOM      4  N   UNL     1      -1.672  13.125  20.821  0.00  0.00    +0.000 N 
ATOM      5  N   UNL     1       0.431  13.968  20.215  0.00  0.00    +0.000 NA
ATOM      6  C   UNL     1       1.558  13.835  19.489  0.00  0.00    +0.000 A 
ATOM      7  N   UNL     1       2.510  14.848  19.518  0.00  0.00    +0.000 N 
ATOM      8  C   UNL     1       2.535  15.786  20.645  0.00  0.00    +0.000 C 
ATOM      9  C   UNL     1       1.956  17.152  20.260  0.00  0.00    +0.000 C 
ATOM     10  O   UNL     1       2.572  17.675  19.070  0.00  0.00    +0.000 OA
ATOM     11  C   UNL     1       2.353  16.776  17.972  0.00  0.00    +0.000 C 
ATOM     12  C   UNL     1       2.976  15.396  18.235  0.00  0.00    +0.000 C 
ATOM     13  C   UNL     1       1.783  12.684  18.753  0.00  0.00    +0.000 A 
ATOM     14  F   UNL     1       2.891  12.560  18.002  0.00  0.00    +0.000 F 
ATOM     15  H   UNL     1      -2.368  12.461  20.500  0.00  0.00    +0.000 HD
ENDROOT
BRANCH   1  21
ATOM     16  C   UNL     1       3.135   5.923  19.560  0.00  0.00    +0.000 C 
ATOM     17  C   UNL     1       2.371   7.192  19.467  0.00  0.00    +0.000 A 
ATOM     18  C   UNL     1       1.709   7.883  20.457  0.00  0.00    +0.000 A 
ATOM     19  N   UNL     1       1.129   9.070  20.068  0.00  0.00    +0.000 NA
ATOM     20  C   UNL     1       1.369   9.311  18.797  0.00  0.00    +0.000 A 
ATOM     21  N   UNL     1       1.026  10.448  18.138  0.00  0.00    +0.000 N 
ATOM     22  S   UNL     1       2.206   8.036  17.983  0.00  0.00    +0.000 S 
ATOM     23  H   UNL     1       0.313  10.353  17.423  0.00  0.00    +0.000 HD
ENDBRANCH   1  21
BRANCH   4  24
ATOM     24  C   UNL     1      -2.183  14.462  21.125  0.00  0.00    +0.000 C 
ATOM     25  C   UNL     1      -3.671  14.605  20.790  0.00  0.00    +0.000 C 
BRANCH  24  26
ATOM     26  C   UNL     1      -2.007  14.764  22.621  0.00  0.00    +0.000 A 
ATOM     27  N   UNL     1      -0.953  15.529  22.994  0.00  0.00    +0.000 NA
ATOM     28  C   UNL     1      -0.835  15.789  24.317  0.00  0.00    +0.000 A 
ATOM     29  C   UNL     1      -1.718  15.325  25.260  0.00  0.00    +0.000 A 
ATOM     30  F   UNL     1      -1.568  15.593  26.561  0.00  0.00    +0.000 F 
ATOM     31  C   UNL     1      -2.766  14.575  24.790  0.00  0.00    +0.000 A 
ATOM     32  N   UNL     1      -2.946  14.290  23.481  0.00  0.00    +0.000 NA
ENDBRANCH  24  26
ENDBRANCH   4  24
TORSDOF 3
ENDMDL
