MODEL 1
REMARK VINA RESULT:      -8.0      0.000      0.000
REMARK  Name = 
REMARK  9 active torsions:
REMARK  status: ('A' for Active; 'I' for Inactive)
REMARK    1  A    between atoms: C_1  and  O_2
REMARK    2  A    between atoms: O_2  and  C_3
REMARK    3  A    between atoms: C_3  and  C_5
REMARK    4  A    between atoms: C_5  and  N_6
REMARK    5  A    between atoms: C_7  and  C_9
REMARK    6  A    between atoms: C_9  and  C_11
REMARK    7  A    between atoms: N_13  and  S_14
REMARK    8  A    between atoms: S_14  and  C_17
REMARK    9  A    between atoms: C_20  and  C_21
REMARK                            x       y       z     vdW  Elec       q    Type
REMARK                         _______ _______ _______ _____ _____    ______ ____
ROOT
ATOM      1  C   UNL     1       3.082   7.121  17.984  0.00  0.00    +0.000 A 
ATOM      2  C   UNL     1       4.429   7.134  17.669  0.00  0.00    +0.000 A 
ATOM      3  N   UNL     1       4.878   5.839  17.628  0.00  0.00    +0.000 N 
ATOM      4  C   UNL     1       3.867   4.955  17.940  0.00  0.00    +0.000 A 
ATOM      5  C   UNL     1       3.830   3.554  18.069  0.00  0.00    +0.000 A 
ATOM      6  C   UNL     1       2.605   2.942  18.349  0.00  0.00    +0.000 A 
ATOM      7  C   UNL     1       1.448   3.695  18.506  0.00  0.00    +0.000 A 
ATOM      8  C   UNL     1       1.490   5.088  18.399  0.00  0.00    +0.000 A 
ATOM      9  C   UNL     1       2.712   5.738  18.114  0.00  0.00    +0.000 A 
ENDROOT
BRANCH   3  10
ATOM     10  S   UNL     1       6.524   5.446  17.373  0.00  0.00    +0.000 S 
ATOM     11  O   UNL     1       7.262   6.687  17.515  0.00  0.00    +0.000 OA
ATOM     12  O   UNL     1       6.794   4.300  18.222  0.00  0.00    +0.000 OA
BRANCH  10  13
ATOM     13  C   UNL     1       6.609   4.904  15.688  0.00  0.00    +0.000 A 
ATOM     14  C   UNL     1       7.592   5.425  14.841  0.00  0.00    +0.000 A 
ATOM     15  C   UNL     1       7.657   4.996  13.513  0.00  0.00    +0.000 A 
ATOM     16  C   UNL     1       6.748   4.047  13.027  0.00  0.00    +0.000 A 
ATOM     17  C   UNL     1       6.783   3.615  11.590  0.00  0.00    +0.000 C 
ATOM     18  C   UNL     1       5.802   3.496  13.901  0.00  0.00    +0.000 A 
ATOM     19  C   UNL     1       5.730   3.920  15.231  0.00  0.00    +0.000 A 
ENDBRANCH  10  13
ENDBRANCH   3  10
BRANCH   1  20
ATOM     20  C   UNL     1       2.223   8.298  18.154  0.00  0.00    +0.000 C 
ATOM     21  O   UNL     1       1.997   9.088  17.238  0.00  0.00    +0.000 OA
BRANCH  20  23
ATOM     22  N   UNL     1       0.583   9.580  19.480  0.00  0.00    +0.000 N 
ATOM     23  C   UNL     1       1.527   8.575  19.507  0.00  0.00    +0.000 C 
ATOM     24  O   UNL     1       1.785   7.922  20.509  0.00  0.00    +0.000 OA
ATOM     25  H   UNL     1       0.374  10.038  18.591  0.00  0.00    +0.000 HD
BRANCH  22  26
ATOM     26  C   UNL     1      -0.188   9.909  20.665  0.00  0.00    +0.000 C 
BRANCH  26  27
ATOM     27  C   UNL     1       0.503  10.946  21.534  0.00  0.00    +0.000 C 
ATOM     28  O   UNL     1       1.293  11.787  21.124  0.00  0.00    +0.000 OA
BRANCH  27  30
ATOM     29  C   UNL     1      -0.143   9.446  23.218  0.00  0.00    +0.000 C 
ATOM     30  O   UNL     1       0.107  10.799  22.830  0.00  0.00    +0.000 OA
ENDBRANCH  27  30
ENDBRANCH  26  27
ENDBRANCH  22  26
ENDBRANCH  20  23
ENDBRANCH   1  20
TORSDOF 7
ENDMDL
MODEL 2
REMARK VINA RESULT:      -8.0      0.656      1.108
REMARK  Name = 
REMARK  9 active torsions:
REMARK  status: ('A' for Active; 'I' for Inactive)
REMARK    1  A    between atoms: C_1  and  O_2
REMARK    2  A    between atoms: O_2  and  C_3
REMARK    3  A    between atoms: C_3  and  C_5
REMARK    4  A    between atoms: C_5  and  N_6
REMARK    5  A    between atoms: C_7  and  C_9
REMARK    6  A    between atoms: C_9  and  C_11
REMARK    7  A    between atoms: N_13  and  S_14
REMARK    8  A    between atoms: S_14  and  C_17
REMARK    9  A    between atoms: C_20  and  C_21
REMARK                            x       y       z     vdW  Elec       q    Type
REMARK                         _______ _______ _______ _____ _____    ______ ____
ROOT
ATOM      1  C   UNL     1       3.102   7.140  18.361  0.00  0.00    +0.000 A 
ATOM      2  C   UNL     1       4.379   7.132  17.828  0.00  0.00    +0.000 A 
ATOM      3  N   UNL     1       4.935   5.898  18.051  0.00  0.00    +0.000 N 
ATOM      4  C   UNL     1       4.069   5.085  18.751  0.00  0.00    +0.000 A 
ATOM      5  C   UNL     1       4.182   3.772  19.245  0.00  0.00    +0.000 A 
ATOM      6  C   UNL     1       3.075   3.201  19.881  0.00  0.00    +0.000 A 
ATOM      7  C   UNL     1       1.891   3.911  20.031  0.00  0.00    +0.000 A 
ATOM      8  C   UNL     1       1.787   5.222  19.558  0.00  0.00    +0.000 A 
ATOM      9  C   UNL     1       2.886   5.828  18.909  0.00  0.00    +0.000 A 
ENDROOT
BRANCH   3  10
ATOM     10  S   UNL     1       6.553   5.531  17.631  0.00  0.00    +0.000 S 
ATOM     11  O   UNL     1       7.265   6.795  17.624  0.00  0.00    +0.000 OA
ATOM     12  O   UNL     1       6.950   4.439  18.500  0.00  0.00    +0.000 OA
BRANCH  10  13
ATOM     13  C   UNL     1       6.463   4.901  15.977  0.00  0.00    +0.000 A 
ATOM     14  C   UNL     1       5.385   4.095  15.598  0.00  0.00    +0.000 A 
ATOM     15  C   UNL     1       5.317   3.601  14.294  0.00  0.00    +0.000 A 
ATOM     16  C   UNL     1       6.317   3.910  13.364  0.00  0.00    +0.000 A 
ATOM     17  C   UNL     1       6.275   3.346  11.973  0.00  0.00    +0.000 C 
ATOM     18  C   UNL     1       7.364   4.762  13.741  0.00  0.00    +0.000 A 
ATOM     19  C   UNL     1       7.440   5.260  15.044  0.00  0.00    +0.000 A 
ENDBRANCH  10  13
ENDBRANCH   3  10
BRANCH   1  20
ATOM     20  C   UNL     1       2.174   8.275  18.361  0.00  0.00    +0.000 C 
ATOM     21  O   UNL     1       1.922   8.923  17.346  0.00  0.00    +0.000 OA
BRANCH  20  23
ATOM     22  N   UNL     1       0.465   9.653  19.490  0.00  0.00    +0.000 N 
ATOM     23  C   UNL     1       1.433   8.685  19.656  0.00  0.00    +0.000 C 
ATOM     24  O   UNL     1       1.680   8.158  20.732  0.00  0.00    +0.000 OA
ATOM     25  H   UNL     1       0.269  10.000  18.550  0.00  0.00    +0.000 HD
BRANCH  22  26
ATOM     26  C   UNL     1      -0.347  10.093  20.610  0.00  0.00    +0.000 C 
BRANCH  26  27
ATOM     27  C   UNL     1       0.394  11.063  21.515  0.00  0.00    +0.000 C 
ATOM     28  O   UNL     1       1.276  11.828  21.145  0.00  0.00    +0.000 OA
BRANCH  27  30
ATOM     29  C   UNL     1      -0.115   9.616  23.289  0.00  0.00    +0.000 C 
ATOM     30  O   UNL     1      -0.075  10.954  22.790  0.00  0.00    +0.000 OA
ENDBRANCH  27  30
ENDBRANCH  26  27
ENDBRANCH  22  26
ENDBRANCH  20  23
ENDBRANCH   1  20
TORSDOF 7
ENDMDL
MODEL 3
REMARK VINA RESULT:      -7.8      3.571      7.302
REMARK  Name = 
REMARK  9 active torsions:
REMARK  status: ('A' for Active; 'I' for Inactive)
REMARK    1  A    between atoms: C_1  and  O_2
REMARK    2  A    between atoms: O_2  and  C_3
REMARK    3  A    between atoms: C_3  and  C_5
REMARK    4  A    between atoms: C_5  and  N_6
REMARK    5  A    between atoms: C_7  and  C_9
REMARK    6  A    between atoms: C_9  and  C_11
REMARK    7  A    between atoms: N_13  and  S_14
REMARK    8  A    between atoms: S_14  and  C_17
REMARK    9  A    between atoms: C_20  and  C_21
REMARK                            x       y       z     vdW  Elec       q    Type
REMARK                         _______ _______ _______ _____ _____    ______ ____
ROOT
ATOM      1  C   UNL     1       6.627   5.849  18.254  0.00  0.00    +0.000 A 
ATOM      2  C   UNL     1       5.460   5.666  18.975  0.00  0.00    +0.000 A 
ATOM      3  N   UNL     1       4.572   4.970  18.195  0.00  0.00    +0.000 N 
ATOM      4  C   UNL     1       5.107   4.708  16.951  0.00  0.00    +0.000 A 
ATOM      5  C   UNL     1       4.593   4.071  15.806  0.00  0.00    +0.000 A 
ATOM      6  C   UNL     1       5.430   3.914  14.698  0.00  0.00    +0.000 A 
ATOM      7  C   UNL     1       6.738   4.381  14.716  0.00  0.00    +0.000 A 
ATOM      8  C   UNL     1       7.240   5.032  15.846  0.00  0.00    +0.000 A 
ATOM      9  C   UNL     1       6.422   5.204  16.985  0.00  0.00    +0.000 A 
ENDROOT
BRANCH   3  10
ATOM     10  S   UNL     1       2.971   4.639  18.699  0.00  0.00    +0.000 S 
ATOM     11  O   UNL     1       2.255   4.211  17.512  0.00  0.00    +0.000 OA
ATOM     12  O   UNL     1       3.091   3.782  19.863  0.00  0.00    +0.000 OA
BRANCH  10  13
ATOM     13  C   UNL     1       2.329   6.200  19.238  0.00  0.00    +0.000 A 
ATOM     14  C   UNL     1       2.317   7.287  18.357  0.00  0.00    +0.000 A 
ATOM     15  C   UNL     1       1.810   8.516  18.785  0.00  0.00    +0.000 A 
ATOM     16  C   UNL     1       1.312   8.666  20.085  0.00  0.00    +0.000 A 
ATOM     17  C   UNL     1       0.808   9.996  20.566  0.00  0.00    +0.000 C 
ATOM     18  C   UNL     1       1.282   7.556  20.940  0.00  0.00    +0.000 A 
ATOM     19  C   UNL     1       1.788   6.322  20.520  0.00  0.00    +0.000 A 
ENDBRANCH  10  13
ENDBRANCH   3  10
BRANCH   1  20
ATOM     20  C   UNL     1       7.820   6.569  18.711  0.00  0.00    +0.000 C 
ATOM     21  O   UNL     1       8.639   6.067  19.480  0.00  0.00    +0.000 OA
BRANCH  20  23
ATOM     22  N   UNL     1       8.865   8.777  19.064  0.00  0.00    +0.000 N 
ATOM     23  C   UNL     1       8.119   7.999  18.203  0.00  0.00    +0.000 C 
ATOM     24  O   UNL     1       7.740   8.385  17.106  0.00  0.00    +0.000 OA
ATOM     25  H   UNL     1       9.202   8.366  19.935  0.00  0.00    +0.000 HD
BRANCH  22  26
ATOM     26  C   UNL     1       9.266  10.122  18.693  0.00  0.00    +0.000 C 
BRANCH  26  27
ATOM     27  C   UNL     1       9.815  10.907  19.872  0.00  0.00    +0.000 C 
ATOM     28  O   UNL     1       9.295  10.958  20.979  0.00  0.00    +0.000 OA
BRANCH  27  30
ATOM     29  C   UNL     1      11.130  11.703  18.100  0.00  0.00    +0.000 C 
ATOM     30  O   UNL     1      10.970  11.535  19.510  0.00  0.00    +0.000 OA
ENDBRANCH  27  30
ENDBRANCH  26  27
ENDBRANCH  22  26
ENDBRANCH  20  23
ENDBRANCH   1  20
TORSDOF 7
ENDMDL
MODEL 4
REMARK VINA RESULT:      -7.8      0.460      1.018
REMARK  Name = 
REMARK  9 active torsions:
REMARK  status: ('A' for Active; 'I' for Inactive)
REMARK    1  A    between atoms: C_1  and  O_2
REMARK    2  A    between atoms: O_2  and  C_3
REMARK    3  A    between atoms: C_3  and  C_5
REMARK    4  A    between atoms: C_5  and  N_6
REMARK    5  A    between atoms: C_7  and  C_9
REMARK    6  A    between atoms: C_9  and  C_11
REMARK    7  A    between atoms: N_13  and  S_14
REMARK    8  A    between atoms: S_14  and  C_17
REMARK    9  A    between atoms: C_20  and  C_21
REMARK                            x       y       z     vdW  Elec       q    Type
REMARK                         _______ _______ _______ _____ _____    ______ ____
ROOT
ATOM      1  C   UNL     1       3.180   7.056  17.959  0.00  0.00    +0.000 A 
ATOM      2  C   UNL     1       4.533   7.097  17.670  0.00  0.00    +0.000 A 
ATOM      3  N   UNL     1       4.977   5.813  17.487  0.00  0.00    +0.000 N 
ATOM      4  C   UNL     1       3.957   4.905  17.677  0.00  0.00    +0.000 A 
ATOM      5  C   UNL     1       3.912   3.499  17.641  0.00  0.00    +0.000 A 
ATOM      6  C   UNL     1       2.680   2.866  17.827  0.00  0.00    +0.000 A 
ATOM      7  C   UNL     1       1.523   3.602  18.051  0.00  0.00    +0.000 A 
ATOM      8  C   UNL     1       1.573   4.998  18.108  0.00  0.00    +0.000 A 
ATOM      9  C   UNL     1       2.802   5.669  17.921  0.00  0.00    +0.000 A 
ENDROOT
BRANCH   3  10
ATOM     10  S   UNL     1       6.626   5.441  17.216  0.00  0.00    +0.000 S 
ATOM     11  O   UNL     1       7.349   6.691  17.356  0.00  0.00    +0.000 OA
ATOM     12  O   UNL     1       6.918   4.296  18.057  0.00  0.00    +0.000 OA
BRANCH  10  13
ATOM     13  C   UNL     1       6.702   4.909  15.527  0.00  0.00    +0.000 A 
ATOM     14  C   UNL     1       7.634   5.486  14.659  0.00  0.00    +0.000 A 
ATOM     15  C   UNL     1       7.693   5.064  13.329  0.00  0.00    +0.000 A 
ATOM     16  C   UNL     1       6.829   4.066  12.862  0.00  0.00    +0.000 A 
ATOM     17  C   UNL     1       6.855   3.638  11.422  0.00  0.00    +0.000 C 
ATOM     18  C   UNL     1       5.936   3.459  13.755  0.00  0.00    +0.000 A 
ATOM     19  C   UNL     1       5.871   3.876  15.087  0.00  0.00    +0.000 A 
ENDBRANCH  10  13
ENDBRANCH   3  10
BRANCH   1  20
ATOM     20  C   UNL     1       2.324   8.210  18.250  0.00  0.00    +0.000 C 
ATOM     21  O   UNL     1       2.147   9.122  17.443  0.00  0.00    +0.000 OA
BRANCH  20  23
ATOM     22  N   UNL     1       0.664   9.347  19.679  0.00  0.00    +0.000 N 
ATOM     23  C   UNL     1       1.566   8.308  19.595  0.00  0.00    +0.000 C 
ATOM     24  O   UNL     1       1.745   7.499  20.495  0.00  0.00    +0.000 OA
ATOM     25  H   UNL     1       0.520   9.945  18.864  0.00  0.00    +0.000 HD
BRANCH  22  26
ATOM     26  C   UNL     1      -0.157   9.526  20.863  0.00  0.00    +0.000 C 
BRANCH  26  27
ATOM     27  C   UNL     1       0.362  10.633  21.765  0.00  0.00    +0.000 C 
ATOM     28  O   UNL     1       0.047  10.783  22.938  0.00  0.00    +0.000 OA
BRANCH  27  30
ATOM     29  C   UNL     1       0.783  12.768  20.890  0.00  0.00    +0.000 C 
ATOM     30  O   UNL     1       1.230  11.423  21.072  0.00  0.00    +0.000 OA
ENDBRANCH  27  30
ENDBRANCH  26  27
ENDBRANCH  22  26
ENDBRANCH  20  23
ENDBRANCH   1  20
TORSDOF 7
ENDMDL
MODEL 5
REMARK VINA RESULT:      -7.7      4.351      9.960
REMARK  Name = 
REMARK  9 active torsions:
REMARK  status: ('A' for Active; 'I' for Inactive)
REMARK    1  A    between atoms: C_1  and  O_2
REMARK    2  A    between atoms: O_2  and  C_3
REMARK    3  A    between atoms: C_3  and  C_5
REMARK    4  A    between atoms: C_5  and  N_6
REMARK    5  A    between atoms: C_7  and  C_9
REMARK    6  A    between atoms: C_9  and  C_11
REMARK    7  A    between atoms: N_13  and  S_14
REMARK    8  A    between atoms: S_14  and  C_17
REMARK    9  A    between atoms: C_20  and  C_21
REMARK                            x       y       z     vdW  Elec       q    Type
REMARK                         _______ _______ _______ _____ _____    ______ ____
ROOT
ATOM      1  C   UNL     1       0.904  10.096  18.673  0.00  0.00    +0.000 A 
ATOM      2  C   UNL     1       1.213  11.077  19.600  0.00  0.00    +0.000 A 
ATOM      3  N   UNL     1       0.112  11.876  19.769  0.00  0.00    +0.000 N 
ATOM      4  C   UNL     1      -0.922  11.473  18.951  0.00  0.00    +0.000 A 
ATOM      5  C   UNL     1      -2.218  11.978  18.731  0.00  0.00    +0.000 A 
ATOM      6  C   UNL     1      -3.062  11.290  17.855  0.00  0.00    +0.000 A 
ATOM      7  C   UNL     1      -2.636  10.138  17.207  0.00  0.00    +0.000 A 
ATOM      8  C   UNL     1      -1.342   9.650  17.410  0.00  0.00    +0.000 A 
ATOM      9  C   UNL     1      -0.464  10.319  18.291  0.00  0.00    +0.000 A 
ENDROOT
BRANCH   3  10
ATOM     10  S   UNL     1       0.133  13.270  20.762  0.00  0.00    +0.000 S 
ATOM     11  O   UNL     1       1.391  13.230  21.485  0.00  0.00    +0.000 OA
ATOM     12  O   UNL     1      -0.209  14.381  19.894  0.00  0.00    +0.000 OA
BRANCH  10  13
ATOM     13  C   UNL     1      -1.204  13.040  21.902  0.00  0.00    +0.000 A 
ATOM     14  C   UNL     1      -1.334  11.825  22.583  0.00  0.00    +0.000 A 
ATOM     15  C   UNL     1      -2.389  11.647  23.481  0.00  0.00    +0.000 A 
ATOM     16  C   UNL     1      -3.312  12.676  23.706  0.00  0.00    +0.000 A 
ATOM     17  C   UNL     1      -4.474  12.475  24.636  0.00  0.00    +0.000 C 
ATOM     18  C   UNL     1      -3.139  13.905  23.057  0.00  0.00    +0.000 A 
ATOM     19  C   UNL     1      -2.087  14.092  22.156  0.00  0.00    +0.000 A 
ENDBRANCH  10  13
ENDBRANCH   3  10
BRANCH   1  20
ATOM     20  C   UNL     1       1.812   9.053  18.185  0.00  0.00    +0.000 C 
ATOM     21  O   UNL     1       2.443   9.165  17.134  0.00  0.00    +0.000 OA
BRANCH  20  23
ATOM     22  N   UNL     1       2.407   6.659  18.267  0.00  0.00    +0.000 N 
ATOM     23  C   UNL     1       2.042   7.764  19.007  0.00  0.00    +0.000 C 
ATOM     24  O   UNL     1       1.933   7.749  20.226  0.00  0.00    +0.000 OA
ATOM     25  H   UNL     1       2.542   6.762  17.260  0.00  0.00    +0.000 HD
BRANCH  22  26
ATOM     26  C   UNL     1       2.710   5.395  18.914  0.00  0.00    +0.000 C 
BRANCH  26  27
ATOM     27  C   UNL     1       1.678   4.324  18.601  0.00  0.00    +0.000 C 
ATOM     28  O   UNL     1       1.265   4.060  17.479  0.00  0.00    +0.000 OA
BRANCH  27  30
ATOM     29  C   UNL     1       1.858   4.266  20.938  0.00  0.00    +0.000 C 
ATOM     30  O   UNL     1       1.292   3.705  19.752  0.00  0.00    +0.000 OA
ENDBRANCH  27  30
ENDBRANCH  26  27
ENDBRANCH  22  26
ENDBRANCH  20  23
ENDBRANCH   1  20
TORSDOF 7
ENDMDL
MODEL 6
REMARK VINA RESULT:      -7.6      2.380      8.273
REMARK  Name = 
REMARK  9 active torsions:
REMARK  status: ('A' for Active; 'I' for Inactive)
REMARK    1  A    between atoms: C_1  and  O_2
REMARK    2  A    between atoms: O_2  and  C_3
REMARK    3  A    between atoms: C_3  and  C_5
REMARK    4  A    between atoms: C_5  and  N_6
REMARK    5  A    between atoms: C_7  and  C_9
REMARK    6  A    between atoms: C_9  and  C_11
REMARK    7  A    between atoms: N_13  and  S_14
REMARK    8  A    between atoms: S_14  and  C_17
REMARK    9  A    between atoms: C_20  and  C_21
REMARK                            x       y       z     vdW  Elec       q    Type
REMARK                         _______ _______ _______ _____ _____    ______ ____
ROOT
ATOM      1  C   UNL     1       5.000   5.579  18.988  0.00  0.00    +0.000 A 
ATOM      2  C   UNL     1       4.466   6.774  18.539  0.00  0.00    +0.000 A 
ATOM      3  N   UNL     1       3.102   6.714  18.666  0.00  0.00    +0.000 N 
ATOM      4  C   UNL     1       2.705   5.490  19.162  0.00  0.00    +0.000 A 
ATOM      5  C   UNL     1       1.440   4.934  19.431  0.00  0.00    +0.000 A 
ATOM      6  C   UNL     1       1.379   3.657  19.996  0.00  0.00    +0.000 A 
ATOM      7  C   UNL     1       2.537   2.944  20.280  0.00  0.00    +0.000 A 
ATOM      8  C   UNL     1       3.791   3.489  19.993  0.00  0.00    +0.000 A 
ATOM      9  C   UNL     1       3.889   4.779  19.425  0.00  0.00    +0.000 A 
ENDROOT
BRANCH   3  10
ATOM     10  S   UNL     1       2.073   7.965  18.116  0.00  0.00    +0.000 S 
ATOM     11  O   UNL     1       2.939   8.968  17.525  0.00  0.00    +0.000 OA
ATOM     12  O   UNL     1       1.031   7.313  17.346  0.00  0.00    +0.000 OA
BRANCH  10  13
ATOM     13  C   UNL     1       1.330   8.625  19.583  0.00  0.00    +0.000 A 
ATOM     14  C   UNL     1       1.659   8.085  20.830  0.00  0.00    +0.000 A 
ATOM     15  C   UNL     1       1.073   8.608  21.986  0.00  0.00    +0.000 A 
ATOM     16  C   UNL     1       0.163   9.669  21.903  0.00  0.00    +0.000 A 
ATOM     17  C   UNL     1      -0.506  10.205  23.136  0.00  0.00    +0.000 C 
ATOM     18  C   UNL     1      -0.118  10.235  20.652  0.00  0.00    +0.000 A 
ATOM     19  C   UNL     1       0.464   9.717  19.491  0.00  0.00    +0.000 A 
ENDBRANCH  10  13
ENDBRANCH   3  10
BRANCH   1  20
ATOM     20  C   UNL     1       6.422   5.219  19.000  0.00  0.00    +0.000 C 
ATOM     21  O   UNL     1       7.155   5.455  19.959  0.00  0.00    +0.000 OA
BRANCH  20  23
ATOM     22  N   UNL     1       6.190   4.208  16.760  0.00  0.00    +0.000 N 
ATOM     23  C   UNL     1       7.056   4.481  17.797  0.00  0.00    +0.000 C 
ATOM     24  O   UNL     1       8.246   4.195  17.773  0.00  0.00    +0.000 OA
ATOM     25  H   UNL     1       5.224   4.534  16.823  0.00  0.00    +0.000 HD
BRANCH  22  26
ATOM     26  C   UNL     1       6.662   3.569  15.545  0.00  0.00    +0.000 C 
BRANCH  26  27
ATOM     27  C   UNL     1       6.706   4.528  14.367  0.00  0.00    +0.000 C 
ATOM     28  O   UNL     1       7.422   5.519  14.302  0.00  0.00    +0.000 OA
BRANCH  27  30
ATOM     29  C   UNL     1       6.465   3.522  12.263  0.00  0.00    +0.000 C 
ATOM     30  O   UNL     1       5.837   4.114  13.402  0.00  0.00    +0.000 OA
ENDBRANCH  27  30
ENDBRANCH  26  27
ENDBRANCH  22  26
ENDBRANCH  20  23
ENDBRANCH   1  20
TORSDOF 7
ENDMDL
MODEL 7
REMARK VINA RESULT:      -7.6      0.867      1.554
REMARK  Name = 
REMARK  9 active torsions:
REMARK  status: ('A' for Active; 'I' for Inactive)
REMARK    1  A    between atoms: C_1  and  O_2
REMARK    2  A    between atoms: O_2  and  C_3
REMARK    3  A    between atoms: C_3  and  C_5
REMARK    4  A    between atoms: C_5  and  N_6
REMARK    5  A    between atoms: C_7  and  C_9
REMARK    6  A    between atoms: C_9  and  C_11
REMARK    7  A    between atoms: N_13  and  S_14
REMARK    8  A    between atoms: S_14  and  C_17
REMARK    9  A    between atoms: C_20  and  C_21
REMARK                            x       y       z     vdW  Elec       q    Type
REMARK                         _______ _______ _______ _____ _____    ______ ____
ROOT
ATOM      1  C   UNL     1       3.172   6.956  17.873  0.00  0.00    +0.000 A 
ATOM      2  C   UNL     1       4.507   7.075  17.528  0.00  0.00    +0.000 A 
ATOM      3  N   UNL     1       5.020   5.817  17.340  0.00  0.00    +0.000 N 
ATOM      4  C   UNL     1       4.066   4.853  17.583  0.00  0.00    +0.000 A 
ATOM      5  C   UNL     1       4.105   3.446  17.565  0.00  0.00    +0.000 A 
ATOM      6  C   UNL     1       2.922   2.742  17.810  0.00  0.00    +0.000 A 
ATOM      7  C   UNL     1       1.733   3.411  18.074  0.00  0.00    +0.000 A 
ATOM      8  C   UNL     1       1.701   4.807  18.113  0.00  0.00    +0.000 A 
ATOM      9  C   UNL     1       2.878   5.549  17.867  0.00  0.00    +0.000 A 
ENDROOT
BRANCH   3  10
ATOM     10  S   UNL     1       6.676   5.542  17.004  0.00  0.00    +0.000 S 
ATOM     11  O   UNL     1       7.320   6.841  17.062  0.00  0.00    +0.000 OA
ATOM     12  O   UNL     1       7.081   4.454  17.874  0.00  0.00    +0.000 OA
BRANCH  10  13
ATOM     13  C   UNL     1       6.711   4.946  15.336  0.00  0.00    +0.000 A 
ATOM     14  C   UNL     1       5.715   4.071  14.891  0.00  0.00    +0.000 A 
ATOM     15  C   UNL     1       5.745   3.603  13.575  0.00  0.00    +0.000 A 
ATOM     16  C   UNL     1       6.761   4.007  12.700  0.00  0.00    +0.000 A 
ATOM     17  C   UNL     1       6.826   3.473  11.298  0.00  0.00    +0.000 C 
ATOM     18  C   UNL     1       7.722   4.925  13.144  0.00  0.00    +0.000 A 
ATOM     19  C   UNL     1       7.700   5.398  14.459  0.00  0.00    +0.000 A 
ENDBRANCH  10  13
ENDBRANCH   3  10
BRANCH   1  20
ATOM     20  C   UNL     1       2.260   8.061  18.187  0.00  0.00    +0.000 C 
ATOM     21  O   UNL     1       1.855   8.847  17.331  0.00  0.00    +0.000 OA
BRANCH  20  23
ATOM     22  N   UNL     1       1.111   9.470  19.856  0.00  0.00    +0.000 N 
ATOM     23  C   UNL     1       1.733   8.261  19.627  0.00  0.00    +0.000 C 
ATOM     24  O   UNL     1       1.841   7.389  20.479  0.00  0.00    +0.000 OA
ATOM     25  H   UNL     1       1.000  10.123  19.079  0.00  0.00    +0.000 HD
BRANCH  22  26
ATOM     26  C   UNL     1       0.519   9.770  21.147  0.00  0.00    +0.000 C 
BRANCH  26  27
ATOM     27  C   UNL     1      -0.470  10.921  21.076  0.00  0.00    +0.000 C 
ATOM     28  O   UNL     1      -1.172  11.297  22.006  0.00  0.00    +0.000 OA
BRANCH  27  30
ATOM     29  C   UNL     1      -1.723  11.939  19.374  0.00  0.00    +0.000 C 
ATOM     30  O   UNL     1      -0.452  11.468  19.827  0.00  0.00    +0.000 OA
ENDBRANCH  27  30
ENDBRANCH  26  27
ENDBRANCH  22  26
ENDBRANCH  20  23
ENDBRANCH   1  20
TORSDOF 7
ENDMDL
MODEL 8
REMARK VINA RESULT:      -7.5      2.767      3.835
REMARK  Name = 
REMARK  9 active torsions:
REMARK  status: ('A' for Active; 'I' for Inactive)
REMARK    1  A    between atoms: C_1  and  O_2
REMARK    2  A    between atoms: O_2  and  C_3
REMARK    3  A    between atoms: C_3  and  C_5
REMARK    4  A    between atoms: C_5  and  N_6
REMARK    5  A    between atoms: C_7  and  C_9
REMARK    6  A    between atoms: C_9  and  C_11
REMARK    7  A    between atoms: N_13  and  S_14
REMARK    8  A    between atoms: S_14  and  C_17
REMARK    9  A    between atoms: C_20  and  C_21
REMARK                            x       y       z     vdW  Elec       q    Type
REMARK                         _______ _______ _______ _____ _____    ______ ____
ROOT
ATOM      1  C   UNL     1       2.972   6.385  18.702  0.00  0.00    +0.000 A 
ATOM      2  C   UNL     1       4.284   6.550  18.293  0.00  0.00    +0.000 A 
ATOM      3  N   UNL     1       4.739   5.353  17.801  0.00  0.00    +0.000 N 
ATOM      4  C   UNL     1       3.769   4.378  17.899  0.00  0.00    +0.000 A 
ATOM      5  C   UNL     1       3.756   3.009  17.573  0.00  0.00    +0.000 A 
ATOM      6  C   UNL     1       2.569   2.292  17.747  0.00  0.00    +0.000 A 
ATOM      7  C   UNL     1       1.425   2.911  18.236  0.00  0.00    +0.000 A 
ATOM      8  C   UNL     1       1.445   4.265  18.578  0.00  0.00    +0.000 A 
ATOM      9  C   UNL     1       2.628   5.019  18.413  0.00  0.00    +0.000 A 
ENDROOT
BRANCH   3  10
ATOM     10  S   UNL     1       6.357   5.125  17.293  0.00  0.00    +0.000 S 
ATOM     11  O   UNL     1       6.873   4.019  18.076  0.00  0.00    +0.000 OA
ATOM     12  O   UNL     1       6.314   5.075  15.843  0.00  0.00    +0.000 OA
BRANCH  10  13
ATOM     13  C   UNL     1       7.197   6.614  17.759  0.00  0.00    +0.000 A 
ATOM     14  C   UNL     1       8.070   6.605  18.851  0.00  0.00    +0.000 A 
ATOM     15  C   UNL     1       8.731   7.780  19.216  0.00  0.00    +0.000 A 
ATOM     16  C   UNL     1       8.528   8.963  18.496  0.00  0.00    +0.000 A 
ATOM     17  C   UNL     1       9.200  10.241  18.910  0.00  0.00    +0.000 C 
ATOM     18  C   UNL     1       7.690   8.945  17.372  0.00  0.00    +0.000 A 
ATOM     19  C   UNL     1       7.025   7.774  17.000  0.00  0.00    +0.000 A 
ENDBRANCH  10  13
ENDBRANCH   3  10
BRANCH   1  20
ATOM     20  C   UNL     1       2.123   7.412  19.313  0.00  0.00    +0.000 C 
ATOM     21  O   UNL     1       1.663   7.299  20.449  0.00  0.00    +0.000 OA
BRANCH  20  23
ATOM     22  N   UNL     1       1.139   9.676  19.296  0.00  0.00    +0.000 N 
ATOM     23  C   UNL     1       1.797   8.719  18.553  0.00  0.00    +0.000 C 
ATOM     24  O   UNL     1       2.132   8.886  17.388  0.00  0.00    +0.000 OA
ATOM     25  H   UNL     1       0.950   9.492  20.282  0.00  0.00    +0.000 HD
BRANCH  22  26
ATOM     26  C   UNL     1       0.820  10.972  18.726  0.00  0.00    +0.000 C 
BRANCH  26  27
ATOM     27  C   UNL     1      -0.670  11.270  18.766  0.00  0.00    +0.000 C 
ATOM     28  O   UNL     1      -1.155  12.377  18.961  0.00  0.00    +0.000 OA
BRANCH  27  30
ATOM     29  C   UNL     1      -1.824   9.961  17.200  0.00  0.00    +0.000 C 
ATOM     30  O   UNL     1      -1.375  10.124  18.546  0.00  0.00    +0.000 OA
ENDBRANCH  27  30
ENDBRANCH  26  27
ENDBRANCH  22  26
ENDBRANCH  20  23
ENDBRANCH   1  20
TORSDOF 7
ENDMDL
MODEL 9
REMARK VINA RESULT:      -7.5      4.117     10.087
REMARK  Name = 
REMARK  9 active torsions:
REMARK  status: ('A' for Active; 'I' for Inactive)
REMARK    1  A    between atoms: C_1  and  O_2
REMARK    2  A    between atoms: O_2  and  C_3
REMARK    3  A    between atoms: C_3  and  C_5
REMARK    4  A    between atoms: C_5  and  N_6
REMARK    5  A    between atoms: C_7  and  C_9
REMARK    6  A    between atoms: C_9  and  C_11
REMARK    7  A    between atoms: N_13  and  S_14
REMARK    8  A    between atoms: S_14  and  C_17
REMARK    9  A    between atoms: C_20  and  C_21
REMARK                            x       y       z     vdW  Elec       q    Type
REMARK                         _______ _______ _______ _____ _____    ______ ____
ROOT
ATOM      1  C   UNL     1       0.866  10.114  18.724  0.00  0.00    +0.000 A 
ATOM      2  C   UNL     1       1.168  11.085  19.663  0.00  0.00    +0.000 A 
ATOM      3  N   UNL     1       0.072  11.894  19.819  0.00  0.00    +0.000 N 
ATOM      4  C   UNL     1      -0.952  11.507  18.981  0.00  0.00    +0.000 A 
ATOM      5  C   UNL     1      -2.238  12.026  18.742  0.00  0.00    +0.000 A 
ATOM      6  C   UNL     1      -3.074  11.353  17.847  0.00  0.00    +0.000 A 
ATOM      7  C   UNL     1      -2.648  10.201  17.198  0.00  0.00    +0.000 A 
ATOM      8  C   UNL     1      -1.363   9.698  17.420  0.00  0.00    +0.000 A 
ATOM      9  C   UNL     1      -0.494  10.353  18.321  0.00  0.00    +0.000 A 
ENDROOT
BRANCH   3  10
ATOM     10  S   UNL     1       0.090  13.280  20.822  0.00  0.00    +0.000 S 
ATOM     11  O   UNL     1       1.340  13.230  21.558  0.00  0.00    +0.000 OA
ATOM     12  O   UNL     1      -0.238  14.399  19.959  0.00  0.00    +0.000 OA
BRANCH  10  13
ATOM     13  C   UNL     1      -1.260  13.049  21.947  0.00  0.00    +0.000 A 
ATOM     14  C   UNL     1      -2.216  14.057  22.099  0.00  0.00    +0.000 A 
ATOM     15  C   UNL     1      -3.280  13.872  22.986  0.00  0.00    +0.000 A 
ATOM     16  C   UNL     1      -3.395  12.684  23.718  0.00  0.00    +0.000 A 
ATOM     17  C   UNL     1      -4.510  12.496  24.707  0.00  0.00    +0.000 C 
ATOM     18  C   UNL     1      -2.459  11.661  23.517  0.00  0.00    +0.000 A 
ATOM     19  C   UNL     1      -1.392  11.839  22.632  0.00  0.00    +0.000 A 
ENDBRANCH  10  13
ENDBRANCH   3  10
BRANCH   1  20
ATOM     20  C   UNL     1       1.771   9.065  18.245  0.00  0.00    +0.000 C 
ATOM     21  O   UNL     1       2.332   9.126  17.151  0.00  0.00    +0.000 OA
BRANCH  20  23
ATOM     22  N   UNL     1       2.867   6.871  18.524  0.00  0.00    +0.000 N 
ATOM     23  C   UNL     1       2.090   7.836  19.129  0.00  0.00    +0.000 C 
ATOM     24  O   UNL     1       1.698   7.756  20.285  0.00  0.00    +0.000 OA
ATOM     25  H   UNL     1       3.212   7.035  17.577  0.00  0.00    +0.000 HD
BRANCH  22  26
ATOM     26  C   UNL     1       3.289   5.689  19.254  0.00  0.00    +0.000 C 
BRANCH  26  27
ATOM     27  C   UNL     1       2.595   4.429  18.766  0.00  0.00    +0.000 C 
ATOM     28  O   UNL     1       1.622   4.412  18.023  0.00  0.00    +0.000 OA
BRANCH  27  30
ATOM     29  C   UNL     1       3.168   2.180  18.428  0.00  0.00    +0.000 C 
ATOM     30  O   UNL     1       3.222   3.331  19.274  0.00  0.00    +0.000 OA
ENDBRANCH  27  30
ENDBRANCH  26  27
ENDBRANCH  22  26
ENDBRANCH  20  23
ENDBRANCH   1  20
TORSDOF 7
ENDMDL
