MODEL 1
REMARK VINA RESULT:      -9.4      0.000      0.000
REMARK  Name = 
REMARK  5 active torsions:
REMARK  status: ('A' for Active; 'I' for Inactive)
REMARK    1  A    between atoms: C_2  and  C_19
REMARK    2  A    between atoms: N_3  and  C_4
REMARK    3  A    between atoms: C_7  and  S_8
REMARK    4  A    between atoms: S_8  and  N_11
REMARK    5  A    between atoms: N_23  and  C_24
REMARK                            x       y       z     vdW  Elec       q    Type
REMARK                         _______ _______ _______ _____ _____    ______ ____
ROOT
ATOM      1  O   UNL     1       4.895   6.859  17.528  0.00  0.00    +0.000 OA
ATOM      2  C   UNL     1       4.189   5.966  17.998  0.00  0.00    +0.000 C 
ATOM      3  N   UNL     1       3.003   6.158  18.694  0.00  0.00    +0.000 N 
ATOM      4  H   UNL     1       2.610   5.373  19.202  0.00  0.00    +0.000 HD
ENDROOT
BRANCH   3   5
ATOM      5  C   UNL     1       2.345   7.400  18.867  0.00  0.00    +0.000 A 
ATOM      6  C   UNL     1       2.195   8.322  17.828  0.00  0.00    +0.000 A 
ATOM      7  C   UNL     1       1.543   9.537  18.034  0.00  0.00    +0.000 A 
ATOM      8  C   UNL     1       1.013   9.834  19.288  0.00  0.00    +0.000 A 
ATOM      9  C   UNL     1       1.156   8.932  20.345  0.00  0.00    +0.000 A 
ATOM     10  C   UNL     1       1.810   7.709  20.128  0.00  0.00    +0.000 A 
BRANCH   8  11
ATOM     11  S   UNL     1       0.250  11.419  19.524  0.00  0.00    +0.000 S 
ATOM     12  O   UNL     1      -0.852  11.235  20.445  0.00  0.00    +0.000 OA
ATOM     13  O   UNL     1       1.300  12.375  19.803  0.00  0.00    +0.000 OA
BRANCH  11  14
ATOM     14  N   UNL     1      -0.456  11.697  18.010  0.00  0.00    +0.000 N 
ATOM     15  C   UNL     1      -1.746  11.129  17.915  0.00  0.00    +0.000 A 
ATOM     16  N   UNL     1      -1.896  10.000  17.271  0.00  0.00    +0.000 NA
ATOM     17  C   UNL     1      -3.228   9.634  17.323  0.00  0.00    +0.000 A 
ATOM     18  C   UNL     1      -4.079  10.556  17.898  0.00  0.00    +0.000 A 
ATOM     19  S   UNL     1      -3.170  11.901  18.454  0.00  0.00    +0.000 S 
ATOM     20  H   UNL     1       0.156  11.240  17.332  0.00  0.00    +0.000 HD
ENDBRANCH  11  14
ENDBRANCH   8  11
ENDBRANCH   3   5
BRANCH   2  21
ATOM     21  C   UNL     1       4.645   4.524  17.820  0.00  0.00    +0.000 C 
ATOM     22  C   UNL     1       6.062   4.285  18.302  0.00  0.00    +0.000 C 
ATOM     23  C   UNL     1       6.884   4.397  17.045  0.00  0.00    +0.000 C 
ATOM     24  O   UNL     1       8.098   4.536  17.068  0.00  0.00    +0.000 OA
ATOM     25  N   UNL     1       6.019   4.330  15.942  0.00  0.00    +0.000 N 
ATOM     26  C   UNL     1       4.656   4.100  16.372  0.00  0.00    +0.000 C 
BRANCH  25  27
ATOM     27  C   UNL     1       6.396   4.329  14.570  0.00  0.00    +0.000 A 
ATOM     28  C   UNL     1       7.417   5.156  14.087  0.00  0.00    +0.000 A 
ATOM     29  C   UNL     1       7.782   5.147  12.736  0.00  0.00    +0.000 A 
ATOM     30  C   UNL     1       7.123   4.317  11.839  0.00  0.00    +0.000 A 
ATOM     31  C   UNL     1       6.103   3.491  12.294  0.00  0.00    +0.000 A 
ATOM     32  C   UNL     1       5.748   3.491  13.648  0.00  0.00    +0.000 A 
ENDBRANCH  25  27
ENDBRANCH   2  21
TORSDOF 5
ENDMDL
MODEL 2
REMARK VINA RESULT:      -9.1      1.844      2.619
REMARK  Name = 
REMARK  5 active torsions:
REMARK  status: ('A' for Active; 'I' for Inactive)
REMARK    1  A    between atoms: C_2  and  C_19
REMARK    2  A    between atoms: N_3  and  C_4
REMARK    3  A    between atoms: C_7  and  S_8
REMARK    4  A    between atoms: S_8  and  N_11
REMARK    5  A    between atoms: N_23  and  C_24
REMARK                            x       y       z     vdW  Elec       q    Type
REMARK                         _______ _______ _______ _____ _____    ______ ____
ROOT
ATOM      1  O   UNL     1       2.290   4.893  17.455  0.00  0.00    +0.000 OA
ATOM      2  C   UNL     1       3.356   5.198  17.990  0.00  0.00    +0.000 C 
ATOM      3  N   UNL     1       3.648   6.430  18.562  0.00  0.00    +0.000 N 
ATOM      4  H   UNL     1       4.614   6.635  18.795  0.00  0.00    +0.000 HD
ENDROOT
BRANCH   3   5
ATOM      5  C   UNL     1       2.729   7.492  18.739  0.00  0.00    +0.000 A 
ATOM      6  C   UNL     1       2.453   8.421  17.732  0.00  0.00    +0.000 A 
ATOM      7  C   UNL     1       1.543   9.457  17.940  0.00  0.00    +0.000 A 
ATOM      8  C   UNL     1       0.881   9.562  19.161  0.00  0.00    +0.000 A 
ATOM      9  C   UNL     1       1.146   8.650  20.187  0.00  0.00    +0.000 A 
ATOM     10  C   UNL     1       2.060   7.607  19.967  0.00  0.00    +0.000 A 
BRANCH   8  11
ATOM     11  S   UNL     1      -0.217  10.934  19.407  0.00  0.00    +0.000 S 
ATOM     12  O   UNL     1      -1.558  10.472  19.114  0.00  0.00    +0.000 OA
ATOM     13  O   UNL     1       0.102  11.529  20.687  0.00  0.00    +0.000 OA
BRANCH  11  14
ATOM     14  N   UNL     1       0.208  11.956  18.125  0.00  0.00    +0.000 N 
ATOM     15  C   UNL     1       0.819  13.146  18.578  0.00  0.00    +0.000 A 
ATOM     16  N   UNL     1       0.111  14.246  18.622  0.00  0.00    +0.000 NA
ATOM     17  C   UNL     1       0.908  15.267  19.108  0.00  0.00    +0.000 A 
ATOM     18  C   UNL     1       2.236  14.947  19.303  0.00  0.00    +0.000 A 
ATOM     19  S   UNL     1       2.484  13.290  18.930  0.00  0.00    +0.000 S 
ATOM     20  H   UNL     1      -0.669  12.193  17.659  0.00  0.00    +0.000 HD
ENDBRANCH  11  14
ENDBRANCH   8  11
ENDBRANCH   3   5
BRANCH   2  21
ATOM     21  C   UNL     1       4.463   4.153  18.027  0.00  0.00    +0.000 C 
ATOM     22  C   UNL     1       5.792   4.712  18.496  0.00  0.00    +0.000 C 
ATOM     23  C   UNL     1       6.516   5.016  17.211  0.00  0.00    +0.000 C 
ATOM     24  O   UNL     1       7.507   5.729  17.173  0.00  0.00    +0.000 OA
ATOM     25  N   UNL     1       5.848   4.368  16.160  0.00  0.00    +0.000 N 
ATOM     26  C   UNL     1       4.750   3.572  16.665  0.00  0.00    +0.000 C 
BRANCH  25  27
ATOM     27  C   UNL     1       6.246   4.341  14.794  0.00  0.00    +0.000 A 
ATOM     28  C   UNL     1       7.313   5.115  14.323  0.00  0.00    +0.000 A 
ATOM     29  C   UNL     1       7.697   5.082  12.978  0.00  0.00    +0.000 A 
ATOM     30  C   UNL     1       7.013   4.278  12.075  0.00  0.00    +0.000 A 
ATOM     31  C   UNL     1       5.948   3.504  12.518  0.00  0.00    +0.000 A 
ATOM     32  C   UNL     1       5.573   3.530  13.867  0.00  0.00    +0.000 A 
ENDBRANCH  25  27
ENDBRANCH   2  21
TORSDOF 5
ENDMDL
MODEL 3
REMARK VINA RESULT:      -9.1      0.911      1.267
REMARK  Name = 
REMARK  5 active torsions:
REMARK  status: ('A' for Active; 'I' for Inactive)
REMARK    1  A    between atoms: C_2  and  C_19
REMARK    2  A    between atoms: N_3  and  C_4
REMARK    3  A    between atoms: C_7  and  S_8
REMARK    4  A    between atoms: S_8  and  N_11
REMARK    5  A    between atoms: N_23  and  C_24
REMARK                            x       y       z     vdW  Elec       q    Type
REMARK                         _______ _______ _______ _____ _____    ______ ____
ROOT
ATOM      1  O   UNL     1       1.769   4.894  17.588  0.00  0.00    +0.000 OA
ATOM      2  C   UNL     1       2.891   5.051  18.070  0.00  0.00    +0.000 C 
ATOM      3  N   UNL     1       3.375   6.231  18.620  0.00  0.00    +0.000 N 
ATOM      4  H   UNL     1       4.370   6.303  18.806  0.00  0.00    +0.000 HD
ENDROOT
BRANCH   3   5
ATOM      5  C   UNL     1       2.618   7.408  18.834  0.00  0.00    +0.000 A 
ATOM      6  C   UNL     1       2.478   8.398  17.857  0.00  0.00    +0.000 A 
ATOM      7  C   UNL     1       1.726   9.547  18.101  0.00  0.00    +0.000 A 
ATOM      8  C   UNL     1       1.087   9.708  19.328  0.00  0.00    +0.000 A 
ATOM      9  C   UNL     1       1.219   8.736  20.324  0.00  0.00    +0.000 A 
ATOM     10  C   UNL     1       1.973   7.580  20.068  0.00  0.00    +0.000 A 
BRANCH   8  11
ATOM     11  S   UNL     1       0.197  11.215  19.621  0.00  0.00    +0.000 S 
ATOM     12  O   UNL     1      -0.942  10.889  20.453  0.00  0.00    +0.000 OA
ATOM     13  O   UNL     1       1.156  12.219  20.032  0.00  0.00    +0.000 OA
BRANCH  11  14
ATOM     14  N   UNL     1      -0.434  11.552  18.086  0.00  0.00    +0.000 N 
ATOM     15  C   UNL     1      -1.735  11.026  17.921  0.00  0.00    +0.000 A 
ATOM     16  N   UNL     1      -1.889   9.918  17.242  0.00  0.00    +0.000 NA
ATOM     17  C   UNL     1      -3.233   9.591  17.227  0.00  0.00    +0.000 A 
ATOM     18  C   UNL     1      -4.080  10.523  17.789  0.00  0.00    +0.000 A 
ATOM     19  S   UNL     1      -3.159  11.826  18.420  0.00  0.00    +0.000 S 
ATOM     20  H   UNL     1       0.193  11.095  17.423  0.00  0.00    +0.000 HD
ENDBRANCH  11  14
ENDBRANCH   8  11
ENDBRANCH   3   5
BRANCH   2  21
ATOM     21  C   UNL     1       3.846   3.865  18.061  0.00  0.00    +0.000 C 
ATOM     22  C   UNL     1       5.178   4.170  18.718  0.00  0.00    +0.000 C 
ATOM     23  C   UNL     1       6.068   4.527  17.556  0.00  0.00    +0.000 C 
ATOM     24  O   UNL     1       7.140   5.094  17.705  0.00  0.00    +0.000 OA
ATOM     25  N   UNL     1       5.438   4.114  16.372  0.00  0.00    +0.000 N 
ATOM     26  C   UNL     1       4.200   3.423  16.662  0.00  0.00    +0.000 C 
BRANCH  25  27
ATOM     27  C   UNL     1       5.972   4.202  15.055  0.00  0.00    +0.000 A 
ATOM     28  C   UNL     1       5.398   3.511  13.981  0.00  0.00    +0.000 A 
ATOM     29  C   UNL     1       5.930   3.604  12.690  0.00  0.00    +0.000 A 
ATOM     30  C   UNL     1       7.054   4.384  12.451  0.00  0.00    +0.000 A 
ATOM     31  C   UNL     1       7.644   5.074  13.502  0.00  0.00    +0.000 A 
ATOM     32  C   UNL     1       7.103   4.990  14.790  0.00  0.00    +0.000 A 
ENDBRANCH  25  27
ENDBRANCH   2  21
TORSDOF 5
ENDMDL
MODEL 4
REMARK VINA RESULT:      -9.1      1.275      1.836
REMARK  Name = 
REMARK  5 active torsions:
REMARK  status: ('A' for Active; 'I' for Inactive)
REMARK    1  A    between atoms: C_2  and  C_19
REMARK    2  A    between atoms: N_3  and  C_4
REMARK    3  A    between atoms: C_7  and  S_8
REMARK    4  A    between atoms: S_8  and  N_11
REMARK    5  A    between atoms: N_23  and  C_24
REMARK                            x       y       z     vdW  Elec       q    Type
REMARK                         _______ _______ _______ _____ _____    ______ ____
ROOT
ATOM      1  O   UNL     1       2.270   4.841  17.630  0.00  0.00    +0.000 OA
ATOM      2  C   UNL     1       3.345   5.195  18.114  0.00  0.00    +0.000 C 
ATOM      3  N   UNL     1       3.622   6.455  18.630  0.00  0.00    +0.000 N 
ATOM      4  H   UNL     1       4.589   6.695  18.820  0.00  0.00    +0.000 HD
ENDROOT
BRANCH   3   5
ATOM      5  C   UNL     1       2.680   7.497  18.801  0.00  0.00    +0.000 A 
ATOM      6  C   UNL     1       1.997   7.703  20.003  0.00  0.00    +0.000 A 
ATOM      7  C   UNL     1       1.073   8.739  20.137  0.00  0.00    +0.000 A 
ATOM      8  C   UNL     1       0.837   9.598  19.066  0.00  0.00    +0.000 A 
ATOM      9  C   UNL     1       1.501   9.408  17.851  0.00  0.00    +0.000 A 
ATOM     10  C   UNL     1       2.433   8.365  17.726  0.00  0.00    +0.000 A 
BRANCH   8  11
ATOM     11  S   UNL     1      -0.395  10.861  19.256  0.00  0.00    +0.000 S 
ATOM     12  O   UNL     1      -0.383  11.270  20.645  0.00  0.00    +0.000 OA
ATOM     13  O   UNL     1      -0.204  11.826  18.194  0.00  0.00    +0.000 OA
BRANCH  11  14
ATOM     14  N   UNL     1      -1.829   9.985  19.047  0.00  0.00    +0.000 N 
ATOM     15  C   UNL     1      -2.601  10.482  17.973  0.00  0.00    +0.000 A 
ATOM     16  N   UNL     1      -3.636  11.238  18.233  0.00  0.00    +0.000 NA
ATOM     17  C   UNL     1      -4.221  11.615  17.038  0.00  0.00    +0.000 A 
ATOM     18  C   UNL     1      -3.692  11.034  15.904  0.00  0.00    +0.000 A 
ATOM     19  S   UNL     1      -2.369  10.032  16.342  0.00  0.00    +0.000 S 
ATOM     20  H   UNL     1      -2.355  10.104  19.914  0.00  0.00    +0.000 HD
ENDBRANCH  11  14
ENDBRANCH   8  11
ENDBRANCH   3   5
BRANCH   2  21
ATOM     21  C   UNL     1       4.482   4.183  18.149  0.00  0.00    +0.000 C 
ATOM     22  C   UNL     1       5.803   4.788  18.581  0.00  0.00    +0.000 C 
ATOM     23  C   UNL     1       6.494   5.088  17.277  0.00  0.00    +0.000 C 
ATOM     24  O   UNL     1       7.463   5.828  17.207  0.00  0.00    +0.000 OA
ATOM     25  N   UNL     1       5.825   4.400  16.252  0.00  0.00    +0.000 N 
ATOM     26  C   UNL     1       4.760   3.584  16.793  0.00  0.00    +0.000 C 
BRANCH  25  27
ATOM     27  C   UNL     1       6.197   4.358  14.879  0.00  0.00    +0.000 A 
ATOM     28  C   UNL     1       5.502   3.571  13.953  0.00  0.00    +0.000 A 
ATOM     29  C   UNL     1       5.875   3.537  12.604  0.00  0.00    +0.000 A 
ATOM     30  C   UNL     1       6.959   4.282  12.159  0.00  0.00    +0.000 A 
ATOM     31  C   UNL     1       7.667   5.067  13.060  0.00  0.00    +0.000 A 
ATOM     32  C   UNL     1       7.284   5.110  14.406  0.00  0.00    +0.000 A 
ENDBRANCH  25  27
ENDBRANCH   2  21
TORSDOF 5
ENDMDL
MODEL 5
REMARK VINA RESULT:      -9.0      1.827      2.915
REMARK  Name = 
REMARK  5 active torsions:
REMARK  status: ('A' for Active; 'I' for Inactive)
REMARK    1  A    between atoms: C_2  and  C_19
REMARK    2  A    between atoms: N_3  and  C_4
REMARK    3  A    between atoms: C_7  and  S_8
REMARK    4  A    between atoms: S_8  and  N_11
REMARK    5  A    between atoms: N_23  and  C_24
REMARK                            x       y       z     vdW  Elec       q    Type
REMARK                         _______ _______ _______ _____ _____    ______ ____
ROOT
ATOM      1  O   UNL     1       4.259   6.816  17.010  0.00  0.00    +0.000 OA
ATOM      2  C   UNL     1       3.875   5.985  17.833  0.00  0.00    +0.000 C 
ATOM      3  N   UNL     1       2.992   6.231  18.876  0.00  0.00    +0.000 N 
ATOM      4  H   UNL     1       2.900   5.530  19.604  0.00  0.00    +0.000 HD
ENDROOT
BRANCH   3   5
ATOM      5  C   UNL     1       2.291   7.442  19.089  0.00  0.00    +0.000 A 
ATOM      6  C   UNL     1       1.773   7.800  20.338  0.00  0.00    +0.000 A 
ATOM      7  C   UNL     1       1.085   9.000  20.513  0.00  0.00    +0.000 A 
ATOM      8  C   UNL     1       0.925   9.869  19.436  0.00  0.00    +0.000 A 
ATOM      9  C   UNL     1       1.426   9.530  18.176  0.00  0.00    +0.000 A 
ATOM     10  C   UNL     1       2.121   8.322  18.010  0.00  0.00    +0.000 A 
BRANCH   8  11
ATOM     11  S   UNL     1      -0.015  11.353  19.687  0.00  0.00    +0.000 S 
ATOM     12  O   UNL     1      -1.416  10.996  19.606  0.00  0.00    +0.000 OA
ATOM     13  O   UNL     1       0.517  12.018  20.857  0.00  0.00    +0.000 OA
BRANCH  11  14
ATOM     14  N   UNL     1       0.321  12.223  18.273  0.00  0.00    +0.000 N 
ATOM     15  C   UNL     1       1.030  13.415  18.541  0.00  0.00    +0.000 A 
ATOM     16  N   UNL     1       0.382  14.552  18.544  0.00  0.00    +0.000 NA
ATOM     17  C   UNL     1       1.271  15.568  18.843  0.00  0.00    +0.000 A 
ATOM     18  C   UNL     1       2.595  15.194  18.937  0.00  0.00    +0.000 A 
ATOM     19  S   UNL     1       2.727  13.498  18.711  0.00  0.00    +0.000 S 
ATOM     20  H   UNL     1      -0.588  12.463  17.874  0.00  0.00    +0.000 HD
ENDBRANCH  11  14
ENDBRANCH   8  11
ENDBRANCH   3   5
BRANCH   2  21
ATOM     21  C   UNL     1       4.412   4.565  17.719  0.00  0.00    +0.000 C 
ATOM     22  C   UNL     1       5.810   4.411  18.284  0.00  0.00    +0.000 C 
ATOM     23  C   UNL     1       6.694   4.534  17.071  0.00  0.00    +0.000 C 
ATOM     24  O   UNL     1       7.896   4.735  17.156  0.00  0.00    +0.000 OA
ATOM     25  N   UNL     1       5.896   4.395  15.925  0.00  0.00    +0.000 N 
ATOM     26  C   UNL     1       4.525   4.106  16.286  0.00  0.00    +0.000 C 
BRANCH  25  27
ATOM     27  C   UNL     1       6.349   4.380  14.576  0.00  0.00    +0.000 A 
ATOM     28  C   UNL     1       5.793   3.517  13.623  0.00  0.00    +0.000 A 
ATOM     29  C   UNL     1       6.245   3.510  12.298  0.00  0.00    +0.000 A 
ATOM     30  C   UNL     1       7.269   4.361  11.904  0.00  0.00    +0.000 A 
ATOM     31  C   UNL     1       7.839   5.222  12.832  0.00  0.00    +0.000 A 
ATOM     32  C   UNL     1       7.378   5.237  14.154  0.00  0.00    +0.000 A 
ENDBRANCH  25  27
ENDBRANCH   2  21
TORSDOF 5
ENDMDL
MODEL 6
REMARK VINA RESULT:      -9.0      1.274      1.352
REMARK  Name = 
REMARK  5 active torsions:
REMARK  status: ('A' for Active; 'I' for Inactive)
REMARK    1  A    between atoms: C_2  and  C_19
REMARK    2  A    between atoms: N_3  and  C_4
REMARK    3  A    between atoms: C_7  and  S_8
REMARK    4  A    between atoms: S_8  and  N_11
REMARK    5  A    between atoms: N_23  and  C_24
REMARK                            x       y       z     vdW  Elec       q    Type
REMARK                         _______ _______ _______ _____ _____    ______ ____
ROOT
ATOM      1  O   UNL     1       2.370   4.901  17.530  0.00  0.00    +0.000 OA
ATOM      2  C   UNL     1       3.419   5.276  18.054  0.00  0.00    +0.000 C 
ATOM      3  N   UNL     1       3.646   6.534  18.597  0.00  0.00    +0.000 N 
ATOM      4  H   UNL     1       4.600   6.796  18.821  0.00  0.00    +0.000 HD
ENDROOT
BRANCH   3   5
ATOM      5  C   UNL     1       2.671   7.549  18.752  0.00  0.00    +0.000 A 
ATOM      6  C   UNL     1       2.303   8.402  17.708  0.00  0.00    +0.000 A 
ATOM      7  C   UNL     1       1.340   9.393  17.896  0.00  0.00    +0.000 A 
ATOM      8  C   UNL     1       0.718   9.527  19.135  0.00  0.00    +0.000 A 
ATOM      9  C   UNL     1       1.075   8.692  20.197  0.00  0.00    +0.000 A 
ATOM     10  C   UNL     1       2.042   7.694  19.998  0.00  0.00    +0.000 A 
BRANCH   8  11
ATOM     11  S   UNL     1      -0.452  10.845  19.350  0.00  0.00    +0.000 S 
ATOM     12  O   UNL     1      -0.414  11.233  20.745  0.00  0.00    +0.000 OA
ATOM     13  O   UNL     1      -0.220  11.814  18.301  0.00  0.00    +0.000 OA
BRANCH  11  14
ATOM     14  N   UNL     1      -1.927  10.040  19.136  0.00  0.00    +0.000 N 
ATOM     15  C   UNL     1      -2.610  10.486  17.983  0.00  0.00    +0.000 A 
ATOM     16  N   UNL     1      -3.607  11.323  18.120  0.00  0.00    +0.000 NA
ATOM     17  C   UNL     1      -4.106  11.627  16.867  0.00  0.00    +0.000 A 
ATOM     18  C   UNL     1      -3.558  10.918  15.818  0.00  0.00    +0.000 A 
ATOM     19  S   UNL     1      -2.326   9.881  16.412  0.00  0.00    +0.000 S 
ATOM     20  H   UNL     1      -2.487  10.267  19.960  0.00  0.00    +0.000 HD
ENDBRANCH  11  14
ENDBRANCH   8  11
ENDBRANCH   3   5
BRANCH   2  21
ATOM     21  C   UNL     1       4.581   4.293  18.111  0.00  0.00    +0.000 C 
ATOM     22  C   UNL     1       5.892   4.944  18.505  0.00  0.00    +0.000 C 
ATOM     23  C   UNL     1       6.560   5.214  17.182  0.00  0.00    +0.000 C 
ATOM     24  O   UNL     1       7.510   5.974  17.074  0.00  0.00    +0.000 OA
ATOM     25  N   UNL     1       5.896   4.474  16.191  0.00  0.00    +0.000 N 
ATOM     26  C   UNL     1       4.858   3.652  16.773  0.00  0.00    +0.000 C 
BRANCH  25  27
ATOM     27  C   UNL     1       6.254   4.392  14.816  0.00  0.00    +0.000 A 
ATOM     28  C   UNL     1       7.343   5.101  14.296  0.00  0.00    +0.000 A 
ATOM     29  C   UNL     1       7.688   5.013  12.942  0.00  0.00    +0.000 A 
ATOM     30  C   UNL     1       6.940   4.221  12.080  0.00  0.00    +0.000 A 
ATOM     31  C   UNL     1       5.852   3.512  12.572  0.00  0.00    +0.000 A 
ATOM     32  C   UNL     1       5.517   3.591  13.929  0.00  0.00    +0.000 A 
ENDBRANCH  25  27
ENDBRANCH   2  21
TORSDOF 5
ENDMDL
MODEL 7
REMARK VINA RESULT:      -9.0      0.855      1.505
REMARK  Name = 
REMARK  5 active torsions:
REMARK  status: ('A' for Active; 'I' for Inactive)
REMARK    1  A    between atoms: C_2  and  C_19
REMARK    2  A    between atoms: N_3  and  C_4
REMARK    3  A    between atoms: C_7  and  S_8
REMARK    4  A    between atoms: S_8  and  N_11
REMARK    5  A    between atoms: N_23  and  C_24
REMARK                            x       y       z     vdW  Elec       q    Type
REMARK                         _______ _______ _______ _____ _____    ______ ____
ROOT
ATOM      1  O   UNL     1       2.334   4.708  17.429  0.00  0.00    +0.000 OA
ATOM      2  C   UNL     1       3.422   4.930  17.960  0.00  0.00    +0.000 C 
ATOM      3  N   UNL     1       3.778   6.105  18.609  0.00  0.00    +0.000 N 
ATOM      4  H   UNL     1       4.757   6.253  18.834  0.00  0.00    +0.000 HD
ENDROOT
BRANCH   3   5
ATOM      5  C   UNL     1       2.910   7.191  18.877  0.00  0.00    +0.000 A 
ATOM      6  C   UNL     1       2.223   7.321  20.087  0.00  0.00    +0.000 A 
ATOM      7  C   UNL     1       1.374   8.403  20.319  0.00  0.00    +0.000 A 
ATOM      8  C   UNL     1       1.218   9.381  19.340  0.00  0.00    +0.000 A 
ATOM      9  C   UNL     1       1.887   9.269  18.118  0.00  0.00    +0.000 A 
ATOM     10  C   UNL     1       2.744   8.180  17.896  0.00  0.00    +0.000 A 
BRANCH   8  11
ATOM     11  S   UNL     1       0.076  10.704  19.648  0.00  0.00    +0.000 S 
ATOM     12  O   UNL     1      -1.124  10.118  20.207  0.00  0.00    +0.000 OA
ATOM     13  O   UNL     1       0.791  11.748  20.351  0.00  0.00    +0.000 OA
BRANCH  11  14
ATOM     14  N   UNL     1      -0.335  11.185  18.077  0.00  0.00    +0.000 N 
ATOM     15  C   UNL     1      -1.666  10.841  17.750  0.00  0.00    +0.000 A 
ATOM     16  N   UNL     1      -1.884   9.793  16.998  0.00  0.00    +0.000 NA
ATOM     17  C   UNL     1      -3.248   9.645  16.826  0.00  0.00    +0.000 A 
ATOM     18  C   UNL     1      -4.028  10.657  17.348  0.00  0.00    +0.000 A 
ATOM     19  S   UNL     1      -3.024  11.800  18.142  0.00  0.00    +0.000 S 
ATOM     20  H   UNL     1       0.298  10.676  17.458  0.00  0.00    +0.000 HD
ENDBRANCH  11  14
ENDBRANCH   8  11
ENDBRANCH   3   5
BRANCH   2  21
ATOM     21  C   UNL     1       4.483   3.839  17.901  0.00  0.00    +0.000 C 
ATOM     22  C   UNL     1       5.838   4.301  18.398  0.00  0.00    +0.000 C 
ATOM     23  C   UNL     1       6.565   4.675  17.133  0.00  0.00    +0.000 C 
ATOM     24  O   UNL     1       7.586   5.347  17.140  0.00  0.00    +0.000 OA
ATOM     25  N   UNL     1       5.861   4.142  16.042  0.00  0.00    +0.000 N 
ATOM     26  C   UNL     1       4.733   3.356  16.494  0.00  0.00    +0.000 C 
BRANCH  25  27
ATOM     27  C   UNL     1       6.246   4.207  14.674  0.00  0.00    +0.000 A 
ATOM     28  C   UNL     1       5.571   3.481  13.685  0.00  0.00    +0.000 A 
ATOM     29  C   UNL     1       5.957   3.552  12.341  0.00  0.00    +0.000 A 
ATOM     30  C   UNL     1       7.033   4.344  11.963  0.00  0.00    +0.000 A 
ATOM     31  C   UNL     1       7.721   5.069  12.927  0.00  0.00    +0.000 A 
ATOM     32  C   UNL     1       7.326   5.007  14.269  0.00  0.00    +0.000 A 
ENDBRANCH  25  27
ENDBRANCH   2  21
TORSDOF 5
ENDMDL
MODEL 8
REMARK VINA RESULT:      -9.0      1.971      2.643
REMARK  Name = 
REMARK  5 active torsions:
REMARK  status: ('A' for Active; 'I' for Inactive)
REMARK    1  A    between atoms: C_2  and  C_19
REMARK    2  A    between atoms: N_3  and  C_4
REMARK    3  A    between atoms: C_7  and  S_8
REMARK    4  A    between atoms: S_8  and  N_11
REMARK    5  A    between atoms: N_23  and  C_24
REMARK                            x       y       z     vdW  Elec       q    Type
REMARK                         _______ _______ _______ _____ _____    ______ ____
ROOT
ATOM      1  O   UNL     1       5.048   6.821  17.793  0.00  0.00    +0.000 OA
ATOM      2  C   UNL     1       4.238   5.939  18.078  0.00  0.00    +0.000 C 
ATOM      3  N   UNL     1       2.976   6.146  18.619  0.00  0.00    +0.000 N 
ATOM      4  H   UNL     1       2.475   5.347  18.994  0.00  0.00    +0.000 HD
ENDROOT
BRANCH   3   5
ATOM      5  C   UNL     1       2.363   7.408  18.813  0.00  0.00    +0.000 A 
ATOM      6  C   UNL     1       1.871   7.821  20.054  0.00  0.00    +0.000 A 
ATOM      7  C   UNL     1       1.272   9.070  20.210  0.00  0.00    +0.000 A 
ATOM      8  C   UNL     1       1.175   9.932  19.120  0.00  0.00    +0.000 A 
ATOM      9  C   UNL     1       1.651   9.539  17.867  0.00  0.00    +0.000 A 
ATOM     10  C   UNL     1       2.258   8.282  17.720  0.00  0.00    +0.000 A 
BRANCH   8  11
ATOM     11  S   UNL     1       0.344  11.484  19.347  0.00  0.00    +0.000 S 
ATOM     12  O   UNL     1       0.961  12.439  18.450  0.00  0.00    +0.000 OA
ATOM     13  O   UNL     1      -1.081  11.231  19.300  0.00  0.00    +0.000 OA
BRANCH  11  14
ATOM     14  N   UNL     1       0.845  11.924  20.904  0.00  0.00    +0.000 N 
ATOM     15  C   UNL     1      -0.250  12.142  21.770  0.00  0.00    +0.000 A 
ATOM     16  N   UNL     1      -0.616  13.370  22.033  0.00  0.00    +0.000 NA
ATOM     17  C   UNL     1      -1.707  13.336  22.882  0.00  0.00    +0.000 A 
ATOM     18  C   UNL     1      -2.066  12.085  23.342  0.00  0.00    +0.000 A 
ATOM     19  S   UNL     1      -1.044  10.902  22.635  0.00  0.00    +0.000 S 
ATOM     20  H   UNL     1       1.356  12.801  20.792  0.00  0.00    +0.000 HD
ENDBRANCH  11  14
ENDBRANCH   8  11
ENDBRANCH   3   5
BRANCH   2  21
ATOM     21  C   UNL     1       4.641   4.491  17.833  0.00  0.00    +0.000 C 
ATOM     22  C   UNL     1       6.040   4.173  18.322  0.00  0.00    +0.000 C 
ATOM     23  C   UNL     1       6.885   4.316  17.083  0.00  0.00    +0.000 C 
ATOM     24  O   UNL     1       8.102   4.406  17.129  0.00  0.00    +0.000 OA
ATOM     25  N   UNL     1       6.034   4.337  15.966  0.00  0.00    +0.000 N 
ATOM     26  C   UNL     1       4.658   4.139  16.367  0.00  0.00    +0.000 C 
BRANCH  25  27
ATOM     27  C   UNL     1       6.432   4.389  14.601  0.00  0.00    +0.000 A 
ATOM     28  C   UNL     1       7.409   5.287  14.154  0.00  0.00    +0.000 A 
ATOM     29  C   UNL     1       7.794   5.331  12.809  0.00  0.00    +0.000 A 
ATOM     30  C   UNL     1       7.200   4.483  11.883  0.00  0.00    +0.000 A 
ATOM     31  C   UNL     1       6.226   3.587  12.303  0.00  0.00    +0.000 A 
ATOM     32  C   UNL     1       5.851   3.536  13.650  0.00  0.00    +0.000 A 
ENDBRANCH  25  27
ENDBRANCH   2  21
TORSDOF 5
ENDMDL
MODEL 9
REMARK VINA RESULT:      -8.9      1.979      2.802
REMARK  Name = 
REMARK  5 active torsions:
REMARK  status: ('A' for Active; 'I' for Inactive)
REMARK    1  A    between atoms: C_2  and  C_19
REMARK    2  A    between atoms: N_3  and  C_4
REMARK    3  A    between atoms: C_7  and  S_8
REMARK    4  A    between atoms: S_8  and  N_11
REMARK    5  A    between atoms: N_23  and  C_24
REMARK                            x       y       z     vdW  Elec       q    Type
REMARK                         _______ _______ _______ _____ _____    ______ ____
ROOT
ATOM      1  O   UNL     1       4.695   6.852  17.336  0.00  0.00    +0.000 OA
ATOM      2  C   UNL     1       4.079   5.967  17.931  0.00  0.00    +0.000 C 
ATOM      3  N   UNL     1       2.983   6.164  18.760  0.00  0.00    +0.000 N 
ATOM      4  H   UNL     1       2.679   5.395  19.348  0.00  0.00    +0.000 HD
ENDROOT
BRANCH   3   5
ATOM      5  C   UNL     1       2.314   7.397  18.958  0.00  0.00    +0.000 A 
ATOM      6  C   UNL     1       2.095   8.308  17.920  0.00  0.00    +0.000 A 
ATOM      7  C   UNL     1       1.434   9.514  18.151  0.00  0.00    +0.000 A 
ATOM      8  C   UNL     1       0.966   9.813  19.428  0.00  0.00    +0.000 A 
ATOM      9  C   UNL     1       1.180   8.923  20.484  0.00  0.00    +0.000 A 
ATOM     10  C   UNL     1       1.842   7.708  20.242  0.00  0.00    +0.000 A 
BRANCH   8  11
ATOM     11  S   UNL     1       0.191  11.388  19.691  0.00  0.00    +0.000 S 
ATOM     12  O   UNL     1      -0.012  11.992  18.391  0.00  0.00    +0.000 OA
ATOM     13  O   UNL     1      -0.918  11.186  20.600  0.00  0.00    +0.000 OA
BRANCH  11  14
ATOM     14  N   UNL     1       1.437  12.273  20.421  0.00  0.00    +0.000 N 
ATOM     15  C   UNL     1       1.768  13.430  19.682  0.00  0.00    +0.000 A 
ATOM     16  N   UNL     1       2.837  13.416  18.926  0.00  0.00    +0.000 NA
ATOM     17  C   UNL     1       2.948  14.640  18.293  0.00  0.00    +0.000 A 
ATOM     18  C   UNL     1       2.032  15.597  18.678  0.00  0.00    +0.000 A 
ATOM     19  S   UNL     1       0.949  14.921  19.825  0.00  0.00    +0.000 S 
ATOM     20  H   UNL     1       2.246  11.649  20.438  0.00  0.00    +0.000 HD
ENDBRANCH  11  14
ENDBRANCH   8  11
ENDBRANCH   3   5
BRANCH   2  21
ATOM     21  C   UNL     1       4.552   4.530  17.763  0.00  0.00    +0.000 C 
ATOM     22  C   UNL     1       5.956   4.301  18.288  0.00  0.00    +0.000 C 
ATOM     23  C   UNL     1       6.815   4.423  17.057  0.00  0.00    +0.000 C 
ATOM     24  O   UNL     1       8.026   4.572  17.119  0.00  0.00    +0.000 OA
ATOM     25  N   UNL     1       5.985   4.352  15.928  0.00  0.00    +0.000 N 
ATOM     26  C   UNL     1       4.612   4.110  16.315  0.00  0.00    +0.000 C 
BRANCH  25  27
ATOM     27  C   UNL     1       6.404   4.359  14.568  0.00  0.00    +0.000 A 
ATOM     28  C   UNL     1       7.414   5.216  14.114  0.00  0.00    +0.000 A 
ATOM     29  C   UNL     1       7.821   5.215  12.775  0.00  0.00    +0.000 A 
ATOM     30  C   UNL     1       7.216   4.361  11.861  0.00  0.00    +0.000 A 
ATOM     31  C   UNL     1       6.210   3.504  12.287  0.00  0.00    +0.000 A 
ATOM     32  C   UNL     1       5.813   3.498  13.630  0.00  0.00    +0.000 A 
ENDBRANCH  25  27
ENDBRANCH   2  21
TORSDOF 5
ENDMDL
