MODEL 1
REMARK VINA RESULT:      -7.1      0.000      0.000
REMARK  Name = 
REMARK  14 active torsions:
REMARK  status: ('A' for Active; 'I' for Inactive)
REMARK    1  A    between atoms: C_1  and  C_2
REMARK    2  A    between atoms: C_2  and  C_3
REMARK    3  A    between atoms: C_3  and  C_4
REMARK    4  A    between atoms: C_4  and  C_5
REMARK    5  A    between atoms: C_5  and  C_6
REMARK    6  A    between atoms: C_6  and  O_7
REMARK    7  A    between atoms: O_7  and  C_8
REMARK    8  A    between atoms: C_12  and  C_13
REMARK    9  A    between atoms: C_13  and  C_16
REMARK   10  A    between atoms: C_16  and  N_17
REMARK   11  A    between atoms: N_17  and  C_18
REMARK   12  A    between atoms: C_18  and  C_19
REMARK   13  A    between atoms: N_21  and  C_22
REMARK   14  A    between atoms: N_21  and  C_23
REMARK                            x       y       z     vdW  Elec       q    Type
REMARK                         _______ _______ _______ _____ _____    ______ ____
ROOT
ATOM      1  C   UNL     1       5.702   5.906  16.725  0.00  0.00    +0.000 A 
ATOM      2  C   UNL     1       6.641   5.568  17.700  0.00  0.00    +0.000 A 
ATOM      3  C   UNL     1       6.240   5.342  19.017  0.00  0.00    +0.000 A 
ATOM      4  C   UNL     1       4.895   5.450  19.367  0.00  0.00    +0.000 A 
ATOM      5  C   UNL     1       3.936   5.770  18.400  0.00  0.00    +0.000 A 
ATOM      6  C   UNL     1       4.357   6.002  17.079  0.00  0.00    +0.000 A 
ENDROOT
BRANCH   5   7
ATOM      7  C   UNL     1       2.471   5.835  18.787  0.00  0.00    +0.000 C 
ATOM      8  F   UNL     1       2.029   7.125  18.889  0.00  0.00    +0.000 F 
ATOM      9  F   UNL     1       1.674   5.251  17.841  0.00  0.00    +0.000 F 
BRANCH   7  10
ATOM     10  C   UNL     1       2.214   5.124  20.143  0.00  0.00    +0.000 C 
BRANCH  10  11
ATOM     11  N   UNL     1       0.916   4.444  20.249  0.00  0.00    +0.000 NA
ATOM     12  H   UNL     1       0.288   4.711  19.485  0.00  0.00    +0.000 HD
BRANCH  11  13
ATOM     13  C   UNL     1       1.083   2.988  20.279  0.00  0.00    +0.000 C 
BRANCH  13  14
ATOM     14  C   UNL     1       2.458   2.630  20.857  0.00  0.00    +0.000 C 
ATOM     15  O   UNL     1       2.683   2.692  22.069  0.00  0.00    +0.000 OA
ATOM     16  N   UNL     1       3.419   2.194  19.954  0.00  0.00    +0.000 N 
ATOM     17  C   UNL     1       3.244   2.079  18.518  0.00  0.00    +0.000 C 
ATOM     18  C   UNL     1       4.719   1.797  20.477  0.00  0.00    +0.000 C 
ENDBRANCH  13  14
ENDBRANCH  11  13
ENDBRANCH  10  11
ENDBRANCH   7  10
ENDBRANCH   5   7
BRANCH   1  19
ATOM     19  O   UNL     1       6.174   6.041  15.447  0.00  0.00    +0.000 OA
BRANCH  19  20
ATOM     20  C   UNL     1       7.012   4.976  14.989  0.00  0.00    +0.000 C 
BRANCH  20  21
ATOM     21  C   UNL     1       6.120   3.819  14.563  0.00  0.00    +0.000 C 
BRANCH  21  22
ATOM     22  C   UNL     1       6.238   3.561  13.065  0.00  0.00    +0.000 C 
BRANCH  22  23
ATOM     23  C   UNL     1       4.894   3.753  12.371  0.00  0.00    +0.000 C 
BRANCH  23  25
ATOM     24  C   UNL     1       5.793   1.676  11.294  0.00  0.00    +0.000 C 
ATOM     25  C   UNL     1       4.692   2.719  11.266  0.00  0.00    +0.000 C 
ENDBRANCH  23  25
ENDBRANCH  22  23
ENDBRANCH  21  22
ENDBRANCH  20  21
ENDBRANCH  19  20
ENDBRANCH   1  19
TORSDOF 11
ENDMDL
MODEL 2
REMARK VINA RESULT:      -6.7      3.205      5.236
REMARK  Name = 
REMARK  14 active torsions:
REMARK  status: ('A' for Active; 'I' for Inactive)
REMARK    1  A    between atoms: C_1  and  C_2
REMARK    2  A    between atoms: C_2  and  C_3
REMARK    3  A    between atoms: C_3  and  C_4
REMARK    4  A    between atoms: C_4  and  C_5
REMARK    5  A    between atoms: C_5  and  C_6
REMARK    6  A    between atoms: C_6  and  O_7
REMARK    7  A    between atoms: O_7  and  C_8
REMARK    8  A    between atoms: C_12  and  C_13
REMARK    9  A    between atoms: C_13  and  C_16
REMARK   10  A    between atoms: C_16  and  N_17
REMARK   11  A    between atoms: N_17  and  C_18
REMARK   12  A    between atoms: C_18  and  C_19
REMARK   13  A    between atoms: N_21  and  C_22
REMARK   14  A    between atoms: N_21  and  C_23
REMARK                            x       y       z     vdW  Elec       q    Type
REMARK                         _______ _______ _______ _____ _____    ______ ____
ROOT
ATOM      1  C   UNL     1       4.803   3.734  18.684  0.00  0.00    +0.000 A 
ATOM      2  C   UNL     1       4.334   3.287  17.449  0.00  0.00    +0.000 A 
ATOM      3  C   UNL     1       2.974   3.041  17.258  0.00  0.00    +0.000 A 
ATOM      4  C   UNL     1       2.073   3.244  18.302  0.00  0.00    +0.000 A 
ATOM      5  C   UNL     1       2.522   3.710  19.543  0.00  0.00    +0.000 A 
ATOM      6  C   UNL     1       3.897   3.945  19.721  0.00  0.00    +0.000 A 
ENDROOT
BRANCH   5   7
ATOM      7  C   UNL     1       1.523   3.972  20.653  0.00  0.00    +0.000 C 
ATOM      8  F   UNL     1       0.426   3.161  20.552  0.00  0.00    +0.000 F 
ATOM      9  F   UNL     1       2.059   3.709  21.884  0.00  0.00    +0.000 F 
BRANCH   7  10
ATOM     10  C   UNL     1       1.040   5.447  20.641  0.00  0.00    +0.000 C 
BRANCH  10  11
ATOM     11  N   UNL     1       2.084   6.444  20.915  0.00  0.00    +0.000 NA
ATOM     12  H   UNL     1       3.012   6.012  20.959  0.00  0.00    +0.000 HD
BRANCH  11  13
ATOM     13  C   UNL     1       2.073   7.511  19.910  0.00  0.00    +0.000 C 
BRANCH  13  14
ATOM     14  C   UNL     1       1.267   8.709  20.429  0.00  0.00    +0.000 C 
ATOM     15  O   UNL     1       1.028   8.854  21.630  0.00  0.00    +0.000 OA
ATOM     16  N   UNL     1       0.860   9.641  19.483  0.00  0.00    +0.000 N 
ATOM     17  C   UNL     1       1.103   9.562  18.054  0.00  0.00    +0.000 C 
ATOM     18  C   UNL     1       0.137  10.817  19.948  0.00  0.00    +0.000 C 
ENDBRANCH  13  14
ENDBRANCH  11  13
ENDBRANCH  10  11
ENDBRANCH   7  10
ENDBRANCH   5   7
BRANCH   1  19
ATOM     19  O   UNL     1       6.140   4.015  18.761  0.00  0.00    +0.000 OA
BRANCH  19  20
ATOM     20  C   UNL     1       6.466   5.288  19.328  0.00  0.00    +0.000 C 
BRANCH  20  21
ATOM     21  C   UNL     1       7.617   5.884  18.531  0.00  0.00    +0.000 C 
BRANCH  21  22
ATOM     22  C   UNL     1       7.102   6.824  17.446  0.00  0.00    +0.000 C 
BRANCH  22  23
ATOM     23  C   UNL     1       6.785   6.058  16.166  0.00  0.00    +0.000 C 
BRANCH  23  25
ATOM     24  C   UNL     1       4.562   6.998  16.842  0.00  0.00    +0.000 C 
ATOM     25  C   UNL     1       5.302   6.160  15.816  0.00  0.00    +0.000 C 
ENDBRANCH  23  25
ENDBRANCH  22  23
ENDBRANCH  21  22
ENDBRANCH  20  21
ENDBRANCH  19  20
ENDBRANCH   1  19
TORSDOF 11
ENDMDL
MODEL 3
REMARK VINA RESULT:      -6.7      1.754      2.538
REMARK  Name = 
REMARK  14 active torsions:
REMARK  status: ('A' for Active; 'I' for Inactive)
REMARK    1  A    between atoms: C_1  and  C_2
REMARK    2  A    between atoms: C_2  and  C_3
REMARK    3  A    between atoms: C_3  and  C_4
REMARK    4  A    between atoms: C_4  and  C_5
REMARK    5  A    between atoms: C_5  and  C_6
REMARK    6  A    between atoms: C_6  and  O_7
REMARK    7  A    between atoms: O_7  and  C_8
REMARK    8  A    between atoms: C_12  and  C_13
REMARK    9  A    between atoms: C_13  and  C_16
REMARK   10  A    between atoms: C_16  and  N_17
REMARK   11  A    between atoms: N_17  and  C_18
REMARK   12  A    between atoms: C_18  and  C_19
REMARK   13  A    between atoms: N_21  and  C_22
REMARK   14  A    between atoms: N_21  and  C_23
REMARK                            x       y       z     vdW  Elec       q    Type
REMARK                         _______ _______ _______ _____ _____    ______ ____
ROOT
ATOM      1  C   UNL     1       6.660   4.771  15.541  0.00  0.00    +0.000 A 
ATOM      2  C   UNL     1       7.791   4.971  16.333  0.00  0.00    +0.000 A 
ATOM      3  C   UNL     1       7.664   5.149  17.712  0.00  0.00    +0.000 A 
ATOM      4  C   UNL     1       6.404   5.125  18.307  0.00  0.00    +0.000 A 
ATOM      5  C   UNL     1       5.259   4.908  17.531  0.00  0.00    +0.000 A 
ATOM      6  C   UNL     1       5.403   4.738  16.143  0.00  0.00    +0.000 A 
ENDROOT
BRANCH   5   7
ATOM      7  C   UNL     1       3.901   4.836  18.201  0.00  0.00    +0.000 C 
ATOM      8  F   UNL     1       3.981   5.087  19.543  0.00  0.00    +0.000 F 
ATOM      9  F   UNL     1       3.045   5.781  17.704  0.00  0.00    +0.000 F 
BRANCH   7  10
ATOM     10  C   UNL     1       3.248   3.441  18.005  0.00  0.00    +0.000 C 
BRANCH  10  11
ATOM     11  N   UNL     1       1.984   3.447  17.256  0.00  0.00    +0.000 NA
ATOM     12  H   UNL     1       1.902   2.625  16.652  0.00  0.00    +0.000 HD
BRANCH  11  13
ATOM     13  C   UNL     1       0.834   3.524  18.161  0.00  0.00    +0.000 C 
BRANCH  13  14
ATOM     14  C   UNL     1       1.106   2.698  19.425  0.00  0.00    +0.000 C 
ATOM     15  O   UNL     1       1.199   1.469  19.385  0.00  0.00    +0.000 OA
ATOM     16  N   UNL     1       1.286   3.408  20.606  0.00  0.00    +0.000 N 
ATOM     17  C   UNL     1       1.206   4.851  20.749  0.00  0.00    +0.000 C 
ATOM     18  C   UNL     1       1.596   2.658  21.815  0.00  0.00    +0.000 C 
ENDBRANCH  13  14
ENDBRANCH  11  13
ENDBRANCH  10  11
ENDBRANCH   7  10
ENDBRANCH   5   7
BRANCH   1  19
ATOM     19  O   UNL     1       6.883   4.536  14.211  0.00  0.00    +0.000 OA
BRANCH  19  20
ATOM     20  C   UNL     1       5.842   3.827  13.532  0.00  0.00    +0.000 C 
BRANCH  20  21
ATOM     21  C   UNL     1       6.380   3.369  12.184  0.00  0.00    +0.000 C 
BRANCH  21  22
ATOM     22  C   UNL     1       5.306   2.635  11.389  0.00  0.00    +0.000 C 
BRANCH  22  23
ATOM     23  C   UNL     1       3.976   3.379  11.452  0.00  0.00    +0.000 C 
BRANCH  23  25
ATOM     24  C   UNL     1       2.869   4.435   9.466  0.00  0.00    +0.000 C 
ATOM     25  C   UNL     1       3.146   3.132  10.194  0.00  0.00    +0.000 C 
ENDBRANCH  23  25
ENDBRANCH  22  23
ENDBRANCH  21  22
ENDBRANCH  20  21
ENDBRANCH  19  20
ENDBRANCH   1  19
TORSDOF 11
ENDMDL
MODEL 4
REMARK VINA RESULT:      -6.6      4.351      6.465
REMARK  Name = 
REMARK  14 active torsions:
REMARK  status: ('A' for Active; 'I' for Inactive)
REMARK    1  A    between atoms: C_1  and  C_2
REMARK    2  A    between atoms: C_2  and  C_3
REMARK    3  A    between atoms: C_3  and  C_4
REMARK    4  A    between atoms: C_4  and  C_5
REMARK    5  A    between atoms: C_5  and  C_6
REMARK    6  A    between atoms: C_6  and  O_7
REMARK    7  A    between atoms: O_7  and  C_8
REMARK    8  A    between atoms: C_12  and  C_13
REMARK    9  A    between atoms: C_13  and  C_16
REMARK   10  A    between atoms: C_16  and  N_17
REMARK   11  A    between atoms: N_17  and  C_18
REMARK   12  A    between atoms: C_18  and  C_19
REMARK   13  A    between atoms: N_21  and  C_22
REMARK   14  A    between atoms: N_21  and  C_23
REMARK                            x       y       z     vdW  Elec       q    Type
REMARK                         _______ _______ _______ _____ _____    ______ ____
ROOT
ATOM      1  C   UNL     1       7.546   7.613  17.750  0.00  0.00    +0.000 A 
ATOM      2  C   UNL     1       8.188   6.944  18.792  0.00  0.00    +0.000 A 
ATOM      3  C   UNL     1       7.987   5.576  18.981  0.00  0.00    +0.000 A 
ATOM      4  C   UNL     1       7.144   4.868  18.126  0.00  0.00    +0.000 A 
ATOM      5  C   UNL     1       6.506   5.519  17.064  0.00  0.00    +0.000 A 
ATOM      6  C   UNL     1       6.713   6.898  16.891  0.00  0.00    +0.000 A 
ENDROOT
BRANCH   5   7
ATOM      7  C   UNL     1       5.631   4.724  16.114  0.00  0.00    +0.000 C 
ATOM      8  F   UNL     1       5.308   5.445  14.997  0.00  0.00    +0.000 F 
ATOM      9  F   UNL     1       6.273   3.607  15.653  0.00  0.00    +0.000 F 
BRANCH   7  10
ATOM     10  C   UNL     1       4.314   4.276  16.802  0.00  0.00    +0.000 C 
BRANCH  10  11
ATOM     11  N   UNL     1       4.338   2.918  17.362  0.00  0.00    +0.000 NA
ATOM     12  H   UNL     1       5.164   2.399  17.052  0.00  0.00    +0.000 HD
BRANCH  11  13
ATOM     13  C   UNL     1       4.283   2.950  18.826  0.00  0.00    +0.000 C 
BRANCH  13  14
ATOM     14  C   UNL     1       2.824   2.884  19.297  0.00  0.00    +0.000 C 
ATOM     15  O   UNL     1       2.162   1.848  19.200  0.00  0.00    +0.000 OA
ATOM     16  N   UNL     1       2.305   4.034  19.877  0.00  0.00    +0.000 N 
ATOM     17  C   UNL     1       3.009   5.292  20.044  0.00  0.00    +0.000 C 
ATOM     18  C   UNL     1       0.939   3.989  20.381  0.00  0.00    +0.000 C 
ENDBRANCH  13  14
ENDBRANCH  11  13
ENDBRANCH  10  11
ENDBRANCH   7  10
ENDBRANCH   5   7
BRANCH   1  19
ATOM     19  O   UNL     1       7.856   8.938  17.596  0.00  0.00    +0.000 OA
BRANCH  19  20
ATOM     20  C   UNL     1       8.634   9.511  18.651  0.00  0.00    +0.000 C 
BRANCH  20  21
ATOM     21  C   UNL     1       9.384  10.711  18.092  0.00  0.00    +0.000 C 
BRANCH  21  22
ATOM     22  C   UNL     1      10.420  11.221  19.089  0.00  0.00    +0.000 C 
BRANCH  22  23
ATOM     23  C   UNL     1      10.830  12.653  18.764  0.00  0.00    +0.000 C 
BRANCH  23  25
ATOM     24  C   UNL     1      11.575  13.730  16.627  0.00  0.00    +0.000 C 
ATOM     25  C   UNL     1      11.903  12.687  17.679  0.00  0.00    +0.000 C 
ENDBRANCH  23  25
ENDBRANCH  22  23
ENDBRANCH  21  22
ENDBRANCH  20  21
ENDBRANCH  19  20
ENDBRANCH   1  19
TORSDOF 11
ENDMDL
MODEL 5
REMARK VINA RESULT:      -6.6      3.794      7.478
REMARK  Name = 
REMARK  14 active torsions:
REMARK  status: ('A' for Active; 'I' for Inactive)
REMARK    1  A    between atoms: C_1  and  C_2
REMARK    2  A    between atoms: C_2  and  C_3
REMARK    3  A    between atoms: C_3  and  C_4
REMARK    4  A    between atoms: C_4  and  C_5
REMARK    5  A    between atoms: C_5  and  C_6
REMARK    6  A    between atoms: C_6  and  O_7
REMARK    7  A    between atoms: O_7  and  C_8
REMARK    8  A    between atoms: C_12  and  C_13
REMARK    9  A    between atoms: C_13  and  C_16
REMARK   10  A    between atoms: C_16  and  N_17
REMARK   11  A    between atoms: N_17  and  C_18
REMARK   12  A    between atoms: C_18  and  C_19
REMARK   13  A    between atoms: N_21  and  C_22
REMARK   14  A    between atoms: N_21  and  C_23
REMARK                            x       y       z     vdW  Elec       q    Type
REMARK                         _______ _______ _______ _____ _____    ______ ____
ROOT
ATOM      1  C   UNL     1       2.082   7.397  19.815  0.00  0.00    +0.000 A 
ATOM      2  C   UNL     1       1.835   8.442  18.925  0.00  0.00    +0.000 A 
ATOM      3  C   UNL     1       2.531   8.519  17.718  0.00  0.00    +0.000 A 
ATOM      4  C   UNL     1       3.477   7.549  17.393  0.00  0.00    +0.000 A 
ATOM      5  C   UNL     1       3.726   6.483  18.265  0.00  0.00    +0.000 A 
ATOM      6  C   UNL     1       3.022   6.424  19.480  0.00  0.00    +0.000 A 
ENDROOT
BRANCH   5   7
ATOM      7  C   UNL     1       4.723   5.410  17.874  0.00  0.00    +0.000 C 
ATOM      8  F   UNL     1       4.167   4.477  17.043  0.00  0.00    +0.000 F 
ATOM      9  F   UNL     1       5.779   5.933  17.180  0.00  0.00    +0.000 F 
BRANCH   7  10
ATOM     10  C   UNL     1       5.281   4.677  19.124  0.00  0.00    +0.000 C 
BRANCH  10  11
ATOM     11  N   UNL     1       5.330   3.212  19.013  0.00  0.00    +0.000 NA
ATOM     12  H   UNL     1       6.262   2.850  19.234  0.00  0.00    +0.000 HD
BRANCH  11  13
ATOM     13  C   UNL     1       4.328   2.584  19.878  0.00  0.00    +0.000 C 
BRANCH  13  14
ATOM     14  C   UNL     1       3.068   2.255  19.067  0.00  0.00    +0.000 C 
ATOM     15  O   UNL     1       3.134   1.673  17.981  0.00  0.00    +0.000 OA
ATOM     16  N   UNL     1       1.851   2.607  19.637  0.00  0.00    +0.000 N 
ATOM     17  C   UNL     1       1.673   3.281  20.910  0.00  0.00    +0.000 C 
ATOM     18  C   UNL     1       0.633   2.263  18.916  0.00  0.00    +0.000 C 
ENDBRANCH  13  14
ENDBRANCH  11  13
ENDBRANCH  10  11
ENDBRANCH   7  10
ENDBRANCH   5   7
BRANCH   1  19
ATOM     19  O   UNL     1       1.305   7.362  20.942  0.00  0.00    +0.000 OA
BRANCH  19  20
ATOM     20  C   UNL     1       1.214   8.595  21.661  0.00  0.00    +0.000 C 
BRANCH  20  21
ATOM     21  C   UNL     1      -0.258   8.918  21.868  0.00  0.00    +0.000 C 
BRANCH  21  22
ATOM     22  C   UNL     1      -0.459   9.780  23.110  0.00  0.00    +0.000 C 
BRANCH  22  23
ATOM     23  C   UNL     1      -0.783  11.220  22.728  0.00  0.00    +0.000 C 
BRANCH  23  25
ATOM     24  C   UNL     1      -0.594  12.682  20.701  0.00  0.00    +0.000 C 
ATOM     25  C   UNL     1      -1.068  11.342  21.233  0.00  0.00    +0.000 C 
ENDBRANCH  23  25
ENDBRANCH  22  23
ENDBRANCH  21  22
ENDBRANCH  20  21
ENDBRANCH  19  20
ENDBRANCH   1  19
TORSDOF 11
ENDMDL
MODEL 6
REMARK VINA RESULT:      -6.6      2.478      3.928
REMARK  Name = 
REMARK  14 active torsions:
REMARK  status: ('A' for Active; 'I' for Inactive)
REMARK    1  A    between atoms: C_1  and  C_2
REMARK    2  A    between atoms: C_2  and  C_3
REMARK    3  A    between atoms: C_3  and  C_4
REMARK    4  A    between atoms: C_4  and  C_5
REMARK    5  A    between atoms: C_5  and  C_6
REMARK    6  A    between atoms: C_6  and  O_7
REMARK    7  A    between atoms: O_7  and  C_8
REMARK    8  A    between atoms: C_12  and  C_13
REMARK    9  A    between atoms: C_13  and  C_16
REMARK   10  A    between atoms: C_16  and  N_17
REMARK   11  A    between atoms: N_17  and  C_18
REMARK   12  A    between atoms: C_18  and  C_19
REMARK   13  A    between atoms: N_21  and  C_22
REMARK   14  A    between atoms: N_21  and  C_23
REMARK                            x       y       z     vdW  Elec       q    Type
REMARK                         _______ _______ _______ _____ _____    ______ ____
ROOT
ATOM      1  C   UNL     1       6.110   5.644  16.313  0.00  0.00    +0.000 A 
ATOM      2  C   UNL     1       7.233   6.142  16.973  0.00  0.00    +0.000 A 
ATOM      3  C   UNL     1       7.388   5.946  18.346  0.00  0.00    +0.000 A 
ATOM      4  C   UNL     1       6.420   5.249  19.067  0.00  0.00    +0.000 A 
ATOM      5  C   UNL     1       5.295   4.726  18.418  0.00  0.00    +0.000 A 
ATOM      6  C   UNL     1       5.150   4.938  17.036  0.00  0.00    +0.000 A 
ENDROOT
BRANCH   5   7
ATOM      7  C   UNL     1       4.276   3.928  19.208  0.00  0.00    +0.000 C 
ATOM      8  F   UNL     1       3.446   3.213  18.390  0.00  0.00    +0.000 F 
ATOM      9  F   UNL     1       4.878   3.002  20.015  0.00  0.00    +0.000 F 
BRANCH   7  10
ATOM     10  C   UNL     1       3.403   4.852  20.099  0.00  0.00    +0.000 C 
BRANCH  10  11
ATOM     11  N   UNL     1       3.384   6.265  19.695  0.00  0.00    +0.000 NA
ATOM     12  H   UNL     1       4.154   6.483  19.056  0.00  0.00    +0.000 HD
BRANCH  11  13
ATOM     13  C   UNL     1       2.103   6.620  19.079  0.00  0.00    +0.000 C 
BRANCH  13  14
ATOM     14  C   UNL     1       2.002   8.144  18.922  0.00  0.00    +0.000 C 
ATOM     15  O   UNL     1       2.450   8.720  17.928  0.00  0.00    +0.000 OA
ATOM     16  N   UNL     1       1.344   8.831  19.934  0.00  0.00    +0.000 N 
ATOM     17  C   UNL     1       0.776   8.239  21.132  0.00  0.00    +0.000 C 
ATOM     18  C   UNL     1       1.186  10.272  19.792  0.00  0.00    +0.000 C 
ENDBRANCH  13  14
ENDBRANCH  11  13
ENDBRANCH  10  11
ENDBRANCH   7  10
ENDBRANCH   5   7
BRANCH   1  19
ATOM     19  O   UNL     1       6.074   5.822  14.956  0.00  0.00    +0.000 OA
BRANCH  19  20
ATOM     20  C   UNL     1       6.927   4.953  14.203  0.00  0.00    +0.000 C 
BRANCH  20  21
ATOM     21  C   UNL     1       6.078   3.819  13.646  0.00  0.00    +0.000 C 
BRANCH  21  22
ATOM     22  C   UNL     1       6.450   3.521  12.197  0.00  0.00    +0.000 C 
BRANCH  22  23
ATOM     23  C   UNL     1       5.396   2.640  11.534  0.00  0.00    +0.000 C 
BRANCH  23  25
ATOM     24  C   UNL     1       3.541   3.665  10.196  0.00  0.00    +0.000 C 
ATOM     25  C   UNL     1       4.018   3.294  11.589  0.00  0.00    +0.000 C 
ENDBRANCH  23  25
ENDBRANCH  22  23
ENDBRANCH  21  22
ENDBRANCH  20  21
ENDBRANCH  19  20
ENDBRANCH   1  19
TORSDOF 11
ENDMDL
MODEL 7
REMARK VINA RESULT:      -6.6      3.390      5.664
REMARK  Name = 
REMARK  14 active torsions:
REMARK  status: ('A' for Active; 'I' for Inactive)
REMARK    1  A    between atoms: C_1  and  C_2
REMARK    2  A    between atoms: C_2  and  C_3
REMARK    3  A    between atoms: C_3  and  C_4
REMARK    4  A    between atoms: C_4  and  C_5
REMARK    5  A    between atoms: C_5  and  C_6
REMARK    6  A    between atoms: C_6  and  O_7
REMARK    7  A    between atoms: O_7  and  C_8
REMARK    8  A    between atoms: C_12  and  C_13
REMARK    9  A    between atoms: C_13  and  C_16
REMARK   10  A    between atoms: C_16  and  N_17
REMARK   11  A    between atoms: N_17  and  C_18
REMARK   12  A    between atoms: C_18  and  C_19
REMARK   13  A    between atoms: N_21  and  C_22
REMARK   14  A    between atoms: N_21  and  C_23
REMARK                            x       y       z     vdW  Elec       q    Type
REMARK                         _______ _______ _______ _____ _____    ______ ____
ROOT
ATOM      1  C   UNL     1       3.559   3.423  17.372  0.00  0.00    +0.000 A 
ATOM      2  C   UNL     1       3.543   2.064  17.684  0.00  0.00    +0.000 A 
ATOM      3  C   UNL     1       3.011   1.624  18.897  0.00  0.00    +0.000 A 
ATOM      4  C   UNL     1       2.490   2.543  19.806  0.00  0.00    +0.000 A 
ATOM      5  C   UNL     1       2.480   3.909  19.503  0.00  0.00    +0.000 A 
ATOM      6  C   UNL     1       3.026   4.337  18.280  0.00  0.00    +0.000 A 
ENDROOT
BRANCH   5   7
ATOM      7  C   UNL     1       1.864   4.891  20.481  0.00  0.00    +0.000 C 
ATOM      8  F   UNL     1       0.514   4.709  20.603  0.00  0.00    +0.000 F 
ATOM      9  F   UNL     1       2.369   4.728  21.742  0.00  0.00    +0.000 F 
BRANCH   7  10
ATOM     10  C   UNL     1       2.120   6.359  20.044  0.00  0.00    +0.000 C 
BRANCH  10  11
ATOM     11  N   UNL     1       1.900   7.365  21.091  0.00  0.00    +0.000 NA
ATOM     12  H   UNL     1       2.756   7.545  21.624  0.00  0.00    +0.000 HD
BRANCH  11  13
ATOM     13  C   UNL     1       1.388   8.615  20.523  0.00  0.00    +0.000 C 
BRANCH  13  14
ATOM     14  C   UNL     1       0.844   9.514  21.642  0.00  0.00    +0.000 C 
ATOM     15  O   UNL     1       1.302   9.467  22.786  0.00  0.00    +0.000 OA
ATOM     16  N   UNL     1      -0.156  10.411  21.288  0.00  0.00    +0.000 N 
ATOM     17  C   UNL     1      -0.747  10.546  19.969  0.00  0.00    +0.000 C 
ATOM     18  C   UNL     1      -0.659  11.314  22.314  0.00  0.00    +0.000 C 
ENDBRANCH  13  14
ENDBRANCH  11  13
ENDBRANCH  10  11
ENDBRANCH   7  10
ENDBRANCH   5   7
BRANCH   1  19
ATOM     19  O   UNL     1       4.034   3.758  16.133  0.00  0.00    +0.000 OA
BRANCH  19  20
ATOM     20  C   UNL     1       5.401   4.179  16.095  0.00  0.00    +0.000 C 
BRANCH  20  21
ATOM     21  C   UNL     1       5.500   5.394  15.184  0.00  0.00    +0.000 C 
BRANCH  21  22
ATOM     22  C   UNL     1       5.348   6.687  15.978  0.00  0.00    +0.000 C 
BRANCH  22  23
ATOM     23  C   UNL     1       5.810   6.498  17.419  0.00  0.00    +0.000 C 
BRANCH  23  25
ATOM     24  C   UNL     1       7.912   6.260  18.763  0.00  0.00    +0.000 C 
ATOM     25  C   UNL     1       7.248   6.979  17.604  0.00  0.00    +0.000 C 
ENDBRANCH  23  25
ENDBRANCH  22  23
ENDBRANCH  21  22
ENDBRANCH  20  21
ENDBRANCH  19  20
ENDBRANCH   1  19
TORSDOF 11
ENDMDL
MODEL 8
REMARK VINA RESULT:      -6.5      3.525      5.690
REMARK  Name = 
REMARK  14 active torsions:
REMARK  status: ('A' for Active; 'I' for Inactive)
REMARK    1  A    between atoms: C_1  and  C_2
REMARK    2  A    between atoms: C_2  and  C_3
REMARK    3  A    between atoms: C_3  and  C_4
REMARK    4  A    between atoms: C_4  and  C_5
REMARK    5  A    between atoms: C_5  and  C_6
REMARK    6  A    between atoms: C_6  and  O_7
REMARK    7  A    between atoms: O_7  and  C_8
REMARK    8  A    between atoms: C_12  and  C_13
REMARK    9  A    between atoms: C_13  and  C_16
REMARK   10  A    between atoms: C_16  and  N_17
REMARK   11  A    between atoms: N_17  and  C_18
REMARK   12  A    between atoms: C_18  and  C_19
REMARK   13  A    between atoms: N_21  and  C_22
REMARK   14  A    between atoms: N_21  and  C_23
REMARK                            x       y       z     vdW  Elec       q    Type
REMARK                         _______ _______ _______ _____ _____    ______ ____
ROOT
ATOM      1  C   UNL     1       6.828   6.462  17.668  0.00  0.00    +0.000 A 
ATOM      2  C   UNL     1       7.046   5.709  16.514  0.00  0.00    +0.000 A 
ATOM      3  C   UNL     1       5.988   5.040  15.898  0.00  0.00    +0.000 A 
ATOM      4  C   UNL     1       4.703   5.121  16.433  0.00  0.00    +0.000 A 
ATOM      5  C   UNL     1       4.461   5.886  17.579  0.00  0.00    +0.000 A 
ATOM      6  C   UNL     1       5.539   6.549  18.191  0.00  0.00    +0.000 A 
ENDROOT
BRANCH   5   7
ATOM      7  C   UNL     1       3.049   6.004  18.119  0.00  0.00    +0.000 C 
ATOM      8  F   UNL     1       2.509   7.236  17.867  0.00  0.00    +0.000 F 
ATOM      9  F   UNL     1       2.205   5.108  17.522  0.00  0.00    +0.000 F 
BRANCH   7  10
ATOM     10  C   UNL     1       3.009   5.760  19.652  0.00  0.00    +0.000 C 
BRANCH  10  11
ATOM     11  N   UNL     1       1.746   5.208  20.159  0.00  0.00    +0.000 NA
ATOM     12  H   UNL     1       1.027   5.185  19.430  0.00  0.00    +0.000 HD
BRANCH  11  13
ATOM     13  C   UNL     1       1.941   3.866  20.715  0.00  0.00    +0.000 C 
BRANCH  13  14
ATOM     14  C   UNL     1       2.045   2.839  19.580  0.00  0.00    +0.000 C 
ATOM     15  O   UNL     1       1.067   2.534  18.894  0.00  0.00    +0.000 OA
ATOM     16  N   UNL     1       3.305   2.304  19.338  0.00  0.00    +0.000 N 
ATOM     17  C   UNL     1       4.513   2.609  20.083  0.00  0.00    +0.000 C 
ATOM     18  C   UNL     1       3.449   1.365  18.235  0.00  0.00    +0.000 C 
ENDBRANCH  13  14
ENDBRANCH  11  13
ENDBRANCH  10  11
ENDBRANCH   7  10
ENDBRANCH   5   7
BRANCH   1  19
ATOM     19  O   UNL     1       7.908   7.141  18.164  0.00  0.00    +0.000 OA
BRANCH  19  20
ATOM     20  C   UNL     1       8.028   8.500  17.731  0.00  0.00    +0.000 C 
BRANCH  20  21
ATOM     21  C   UNL     1       8.791   9.273  18.796  0.00  0.00    +0.000 C 
BRANCH  21  22
ATOM     22  C   UNL     1       9.199  10.650  18.284  0.00  0.00    +0.000 C 
BRANCH  22  23
ATOM     23  C   UNL     1      10.077  11.372  19.301  0.00  0.00    +0.000 C 
BRANCH  23  25
ATOM     24  C   UNL     1      12.333  12.374  19.733  0.00  0.00    +0.000 C 
ATOM     25  C   UNL     1      11.407  11.793  18.681  0.00  0.00    +0.000 C 
ENDBRANCH  23  25
ENDBRANCH  22  23
ENDBRANCH  21  22
ENDBRANCH  20  21
ENDBRANCH  19  20
ENDBRANCH   1  19
TORSDOF 11
ENDMDL
MODEL 9
REMARK VINA RESULT:      -6.4      4.246      7.301
REMARK  Name = 
REMARK  14 active torsions:
REMARK  status: ('A' for Active; 'I' for Inactive)
REMARK    1  A    between atoms: C_1  and  C_2
REMARK    2  A    between atoms: C_2  and  C_3
REMARK    3  A    between atoms: C_3  and  C_4
REMARK    4  A    between atoms: C_4  and  C_5
REMARK    5  A    between atoms: C_5  and  C_6
REMARK    6  A    between atoms: C_6  and  O_7
REMARK    7  A    between atoms: O_7  and  C_8
REMARK    8  A    between atoms: C_12  and  C_13
REMARK    9  A    between atoms: C_13  and  C_16
REMARK   10  A    between atoms: C_16  and  N_17
REMARK   11  A    between atoms: N_17  and  C_18
REMARK   12  A    between atoms: C_18  and  C_19
REMARK   13  A    between atoms: N_21  and  C_22
REMARK   14  A    between atoms: N_21  and  C_23
REMARK                            x       y       z     vdW  Elec       q    Type
REMARK                         _______ _______ _______ _____ _____    ______ ____
ROOT
ATOM      1  C   UNL     1       2.862   6.061  19.693  0.00  0.00    +0.000 A 
ATOM      2  C   UNL     1       2.233   6.854  18.733  0.00  0.00    +0.000 A 
ATOM      3  C   UNL     1       2.947   7.323  17.629  0.00  0.00    +0.000 A 
ATOM      4  C   UNL     1       4.294   7.000  17.478  0.00  0.00    +0.000 A 
ATOM      5  C   UNL     1       4.937   6.191  18.421  0.00  0.00    +0.000 A 
ATOM      6  C   UNL     1       4.207   5.732  19.531  0.00  0.00    +0.000 A 
ENDROOT
BRANCH   5   7
ATOM      7  C   UNL     1       6.391   5.809  18.217  0.00  0.00    +0.000 C 
ATOM      8  F   UNL     1       7.052   5.672  19.406  0.00  0.00    +0.000 F 
ATOM      9  F   UNL     1       6.509   4.597  17.593  0.00  0.00    +0.000 F 
BRANCH   7  10
ATOM     10  C   UNL     1       7.138   6.868  17.363  0.00  0.00    +0.000 C 
BRANCH  10  11
ATOM     11  N   UNL     1       8.027   7.760  18.119  0.00  0.00    +0.000 NA
ATOM     12  H   UNL     1       9.007   7.474  18.033  0.00  0.00    +0.000 HD
BRANCH  11  13
ATOM     13  C   UNL     1       7.869   9.152  17.691  0.00  0.00    +0.000 C 
BRANCH  13  14
ATOM     14  C   UNL     1       8.764  10.066  18.539  0.00  0.00    +0.000 C 
ATOM     15  O   UNL     1       9.497   9.611  19.421  0.00  0.00    +0.000 OA
ATOM     16  N   UNL     1       8.739  11.420  18.232  0.00  0.00    +0.000 N 
ATOM     17  C   UNL     1       7.921  12.043  17.207  0.00  0.00    +0.000 C 
ATOM     18  C   UNL     1       9.616  12.308  18.983  0.00  0.00    +0.000 C 
ENDBRANCH  13  14
ENDBRANCH  11  13
ENDBRANCH  10  11
ENDBRANCH   7  10
ENDBRANCH   5   7
BRANCH   1  19
ATOM     19  O   UNL     1       2.070   5.587  20.703  0.00  0.00    +0.000 OA
BRANCH  19  20
ATOM     20  C   UNL     1       2.344   4.245  21.119  0.00  0.00    +0.000 C 
BRANCH  20  21
ATOM     21  C   UNL     1       1.160   3.374  20.727  0.00  0.00    +0.000 C 
BRANCH  21  22
ATOM     22  C   UNL     1       1.518   2.458  19.561  0.00  0.00    +0.000 C 
BRANCH  22  23
ATOM     23  C   UNL     1       1.168   3.110  18.228  0.00  0.00    +0.000 C 
BRANCH  23  25
ATOM     24  C   UNL     1       3.554   2.450  17.837  0.00  0.00    +0.000 C 
ATOM     25  C   UNL     1       2.419   3.351  17.387  0.00  0.00    +0.000 C 
ENDBRANCH  23  25
ENDBRANCH  22  23
ENDBRANCH  21  22
ENDBRANCH  20  21
ENDBRANCH  19  20
ENDBRANCH   1  19
TORSDOF 11
ENDMDL
