MODEL 1
REMARK VINA RESULT:      -7.3      0.000      0.000
REMARK  Name = 
REMARK  4 active torsions:
REMARK  status: ('A' for Active; 'I' for Inactive)
REMARK    1  A    between atoms: C_1  and  C_2
REMARK    2  A    between atoms: C_2  and  C_3
REMARK    3  A    between atoms: C_9  and  O_11
REMARK    4  A    between atoms: O_11  and  C_12
REMARK                            x       y       z     vdW  Elec       q    Type
REMARK                         _______ _______ _______ _____ _____    ______ ____
ROOT
ATOM      1  C   UNL     1       6.778   4.642  13.713  0.00  0.00    +0.000 C 
ATOM      2  O   UNL     1       7.571   5.468  13.260  0.00  0.00    +0.000 OA
ATOM      3  N   UNL     1       6.658   4.413  15.071  0.00  0.00    +0.000 N 
ATOM      4  C   UNL     1       7.438   5.233  16.009  0.00  0.00    +0.000 C 
ATOM      5  C   UNL     1       6.540   5.763  17.134  0.00  0.00    +0.000 C 
ATOM      6  N   UNL     1       5.815   4.660  17.764  0.00  0.00    +0.000 N 
ATOM      7  C   UNL     1       5.767   4.568  19.140  0.00  0.00    +0.000 C 
ATOM      8  O   UNL     1       6.404   5.294  19.893  0.00  0.00    +0.000 OA
ATOM      9  C   UNL     1       5.033   3.818  16.856  0.00  0.00    +0.000 C 
ATOM     10  C   UNL     1       5.902   3.316  15.693  0.00  0.00    +0.000 C 
ENDROOT
BRANCH   1  12
ATOM     11  C   UNL     1       6.597   2.969  11.835  0.00  0.00    +0.000 C 
ATOM     12  C   UNL     1       5.845   3.863  12.805  0.00  0.00    +0.000 C 
ENDBRANCH   1  12
BRANCH   7  13
ATOM     13  O   UNL     1       4.928   3.545  19.562  0.00  0.00    +0.000 OA
BRANCH  13  14
ATOM     14  C   UNL     1       3.596   3.812  19.929  0.00  0.00    +0.000 A 
ATOM     15  C   UNL     1       2.792   2.673  20.049  0.00  0.00    +0.000 A 
ATOM     16  C   UNL     1       1.428   2.813  20.289  0.00  0.00    +0.000 A 
ATOM     17  C   UNL     1       0.873   4.086  20.422  0.00  0.00    +0.000 A 
ATOM     18  C   UNL     1       1.683   5.218  20.328  0.00  0.00    +0.000 A 
ATOM     19  C   UNL     1       3.049   5.084  20.083  0.00  0.00    +0.000 A 
ENDBRANCH  13  14
ENDBRANCH   7  13
TORSDOF 3
ENDMDL
MODEL 2
REMARK VINA RESULT:      -7.3      2.104      7.069
REMARK  Name = 
REMARK  4 active torsions:
REMARK  status: ('A' for Active; 'I' for Inactive)
REMARK    1  A    between atoms: C_1  and  C_2
REMARK    2  A    between atoms: C_2  and  C_3
REMARK    3  A    between atoms: C_9  and  O_11
REMARK    4  A    between atoms: O_11  and  C_12
REMARK                            x       y       z     vdW  Elec       q    Type
REMARK                         _______ _______ _______ _____ _____    ______ ____
ROOT
ATOM      1  C   UNL     1       1.833   3.777  19.754  0.00  0.00    +0.000 C 
ATOM      2  O   UNL     1       0.823   4.412  20.057  0.00  0.00    +0.000 OA
ATOM      3  N   UNL     1       2.641   4.152  18.696  0.00  0.00    +0.000 N 
ATOM      4  C   UNL     1       2.335   5.387  17.961  0.00  0.00    +0.000 C 
ATOM      5  C   UNL     1       3.599   6.241  17.796  0.00  0.00    +0.000 C 
ATOM      6  N   UNL     1       4.674   5.444  17.206  0.00  0.00    +0.000 N 
ATOM      7  C   UNL     1       5.412   5.957  16.160  0.00  0.00    +0.000 C 
ATOM      8  O   UNL     1       5.149   7.011  15.593  0.00  0.00    +0.000 OA
ATOM      9  C   UNL     1       4.999   4.202  17.911  0.00  0.00    +0.000 C 
ATOM     10  C   UNL     1       3.739   3.353  18.129  0.00  0.00    +0.000 C 
ENDROOT
BRANCH   1  12
ATOM     11  C   UNL     1       1.664   2.545  21.947  0.00  0.00    +0.000 C 
ATOM     12  C   UNL     1       2.280   2.572  20.560  0.00  0.00    +0.000 C 
ENDBRANCH   1  12
BRANCH   7  13
ATOM     13  O   UNL     1       6.472   5.128  15.816  0.00  0.00    +0.000 OA
BRANCH  13  14
ATOM     14  C   UNL     1       6.621   4.659  14.498  0.00  0.00    +0.000 A 
ATOM     15  C   UNL     1       7.618   5.312  13.764  0.00  0.00    +0.000 A 
ATOM     16  C   UNL     1       7.781   5.022  12.412  0.00  0.00    +0.000 A 
ATOM     17  C   UNL     1       6.961   4.075  11.801  0.00  0.00    +0.000 A 
ATOM     18  C   UNL     1       5.985   3.407  12.542  0.00  0.00    +0.000 A 
ATOM     19  C   UNL     1       5.815   3.696  13.896  0.00  0.00    +0.000 A 
ENDBRANCH  13  14
ENDBRANCH   7  13
TORSDOF 3
ENDMDL
MODEL 3
REMARK VINA RESULT:      -7.2      2.098      6.970
REMARK  Name = 
REMARK  4 active torsions:
REMARK  status: ('A' for Active; 'I' for Inactive)
REMARK    1  A    between atoms: C_1  and  C_2
REMARK    2  A    between atoms: C_2  and  C_3
REMARK    3  A    between atoms: C_9  and  O_11
REMARK    4  A    between atoms: O_11  and  C_12
REMARK                            x       y       z     vdW  Elec       q    Type
REMARK                         _______ _______ _______ _____ _____    ______ ____
ROOT
ATOM      1  C   UNL     1       1.763   3.749  19.667  0.00  0.00    +0.000 C 
ATOM      2  O   UNL     1       0.795   4.418  20.033  0.00  0.00    +0.000 OA
ATOM      3  N   UNL     1       2.577   4.152  18.625  0.00  0.00    +0.000 N 
ATOM      4  C   UNL     1       2.335   5.453  17.987  0.00  0.00    +0.000 C 
ATOM      5  C   UNL     1       3.644   6.243  17.861  0.00  0.00    +0.000 C 
ATOM      6  N   UNL     1       4.663   5.431  17.197  0.00  0.00    +0.000 N 
ATOM      7  C   UNL     1       5.416   5.975  16.177  0.00  0.00    +0.000 C 
ATOM      8  O   UNL     1       5.207   7.081  15.692  0.00  0.00    +0.000 OA
ATOM      9  C   UNL     1       4.924   4.124  17.805  0.00  0.00    +0.000 C 
ATOM     10  C   UNL     1       3.619   3.335  17.984  0.00  0.00    +0.000 C 
ENDROOT
BRANCH   1  12
ATOM     11  C   UNL     1       1.953   2.555  21.880  0.00  0.00    +0.000 C 
ATOM     12  C   UNL     1       2.149   2.465  20.377  0.00  0.00    +0.000 C 
ENDBRANCH   1  12
BRANCH   7  13
ATOM     13  O   UNL     1       6.420   5.113  15.757  0.00  0.00    +0.000 OA
BRANCH  13  14
ATOM     14  C   UNL     1       6.565   4.786  14.396  0.00  0.00    +0.000 A 
ATOM     15  C   UNL     1       5.620   3.871  13.920  0.00  0.00    +0.000 A 
ATOM     16  C   UNL     1       5.731   3.377  12.622  0.00  0.00    +0.000 A 
ATOM     17  C   UNL     1       6.773   3.806  11.802  0.00  0.00    +0.000 A 
ATOM     18  C   UNL     1       7.699   4.738  12.272  0.00  0.00    +0.000 A 
ATOM     19  C   UNL     1       7.595   5.234  13.572  0.00  0.00    +0.000 A 
ENDBRANCH  13  14
ENDBRANCH   7  13
TORSDOF 3
ENDMDL
MODEL 4
REMARK VINA RESULT:      -7.1      0.192      1.111
REMARK  Name = 
REMARK  4 active torsions:
REMARK  status: ('A' for Active; 'I' for Inactive)
REMARK    1  A    between atoms: C_1  and  C_2
REMARK    2  A    between atoms: C_2  and  C_3
REMARK    3  A    between atoms: C_9  and  O_11
REMARK    4  A    between atoms: O_11  and  C_12
REMARK                            x       y       z     vdW  Elec       q    Type
REMARK                         _______ _______ _______ _____ _____    ______ ____
ROOT
ATOM      1  C   UNL     1       6.739   4.605  13.678  0.00  0.00    +0.000 C 
ATOM      2  O   UNL     1       7.514   5.450  13.230  0.00  0.00    +0.000 OA
ATOM      3  N   UNL     1       6.619   4.371  15.036  0.00  0.00    +0.000 N 
ATOM      4  C   UNL     1       7.375   5.207  15.978  0.00  0.00    +0.000 C 
ATOM      5  C   UNL     1       6.461   5.713  17.101  0.00  0.00    +0.000 C 
ATOM      6  N   UNL     1       5.760   4.592  17.726  0.00  0.00    +0.000 N 
ATOM      7  C   UNL     1       5.709   4.496  19.101  0.00  0.00    +0.000 C 
ATOM      8  O   UNL     1       6.326   5.235  19.859  0.00  0.00    +0.000 OA
ATOM      9  C   UNL     1       5.001   3.734  16.813  0.00  0.00    +0.000 C 
ATOM     10  C   UNL     1       5.886   3.254  15.653  0.00  0.00    +0.000 C 
ENDROOT
BRANCH   1  12
ATOM     11  C   UNL     1       6.600   2.853  11.870  0.00  0.00    +0.000 C 
ATOM     12  C   UNL     1       5.828   3.805  12.766  0.00  0.00    +0.000 C 
ENDBRANCH   1  12
BRANCH   7  13
ATOM     13  O   UNL     1       4.893   3.453  19.519  0.00  0.00    +0.000 OA
BRANCH  13  14
ATOM     14  C   UNL     1       3.513   3.651  19.714  0.00  0.00    +0.000 A 
ATOM     15  C   UNL     1       3.169   4.947  20.112  0.00  0.00    +0.000 A 
ATOM     16  C   UNL     1       1.850   5.237  20.452  0.00  0.00    +0.000 A 
ATOM     17  C   UNL     1       0.879   4.238  20.382  0.00  0.00    +0.000 A 
ATOM     18  C   UNL     1       1.222   2.953  19.959  0.00  0.00    +0.000 A 
ATOM     19  C   UNL     1       2.542   2.657  19.621  0.00  0.00    +0.000 A 
ENDBRANCH  13  14
ENDBRANCH   7  13
TORSDOF 3
ENDMDL
MODEL 5
REMARK VINA RESULT:      -6.8      5.360      8.540
REMARK  Name = 
REMARK  4 active torsions:
REMARK  status: ('A' for Active; 'I' for Inactive)
REMARK    1  A    between atoms: C_1  and  C_2
REMARK    2  A    between atoms: C_2  and  C_3
REMARK    3  A    between atoms: C_9  and  O_11
REMARK    4  A    between atoms: O_11  and  C_12
REMARK                            x       y       z     vdW  Elec       q    Type
REMARK                         _______ _______ _______ _____ _____    ______ ____
ROOT
ATOM      1  C   UNL     1      -1.072  11.375  21.256  0.00  0.00    +0.000 C 
ATOM      2  O   UNL     1      -1.509  12.319  20.598  0.00  0.00    +0.000 OA
ATOM      3  N   UNL     1      -0.429  10.305  20.660  0.00  0.00    +0.000 N 
ATOM      4  C   UNL     1      -0.187  10.329  19.211  0.00  0.00    +0.000 C 
ATOM      5  C   UNL     1       1.269   9.959  18.903  0.00  0.00    +0.000 C 
ATOM      6  N   UNL     1       1.616   8.692  19.546  0.00  0.00    +0.000 N 
ATOM      7  C   UNL     1       2.275   7.716  18.828  0.00  0.00    +0.000 C 
ATOM      8  O   UNL     1       2.493   7.787  17.624  0.00  0.00    +0.000 OA
ATOM      9  C   UNL     1       1.381   8.632  20.990  0.00  0.00    +0.000 C 
ATOM     10  C   UNL     1      -0.060   9.046  21.326  0.00  0.00    +0.000 C 
ENDROOT
BRANCH   1  12
ATOM     11  C   UNL     1      -2.491  11.900  23.272  0.00  0.00    +0.000 C 
ATOM     12  C   UNL     1      -1.166  11.356  22.770  0.00  0.00    +0.000 C 
ENDBRANCH   1  12
BRANCH   7  13
ATOM     13  O   UNL     1       2.644   6.642  19.628  0.00  0.00    +0.000 OA
BRANCH  13  14
ATOM     14  C   UNL     1       2.040   5.382  19.463  0.00  0.00    +0.000 A 
ATOM     15  C   UNL     1       1.539   4.825  20.644  0.00  0.00    +0.000 A 
ATOM     16  C   UNL     1       1.026   3.530  20.633  0.00  0.00    +0.000 A 
ATOM     17  C   UNL     1       1.003   2.802  19.444  0.00  0.00    +0.000 A 
ATOM     18  C   UNL     1       1.480   3.372  18.263  0.00  0.00    +0.000 A 
ATOM     19  C   UNL     1       1.997   4.667  18.269  0.00  0.00    +0.000 A 
ENDBRANCH  13  14
ENDBRANCH   7  13
TORSDOF 3
ENDMDL
MODEL 6
REMARK VINA RESULT:      -6.8      1.700      6.810
REMARK  Name = 
REMARK  4 active torsions:
REMARK  status: ('A' for Active; 'I' for Inactive)
REMARK    1  A    between atoms: C_1  and  C_2
REMARK    2  A    between atoms: C_2  and  C_3
REMARK    3  A    between atoms: C_9  and  O_11
REMARK    4  A    between atoms: O_11  and  C_12
REMARK                            x       y       z     vdW  Elec       q    Type
REMARK                         _______ _______ _______ _____ _____    ______ ____
ROOT
ATOM      1  C   UNL     1       2.301   4.023  20.168  0.00  0.00    +0.000 C 
ATOM      2  O   UNL     1       2.573   3.725  21.331  0.00  0.00    +0.000 OA
ATOM      3  N   UNL     1       3.240   4.581  19.319  0.00  0.00    +0.000 N 
ATOM      4  C   UNL     1       4.622   4.750  19.789  0.00  0.00    +0.000 C 
ATOM      5  C   UNL     1       5.613   4.216  18.747  0.00  0.00    +0.000 C 
ATOM      6  N   UNL     1       5.347   4.817  17.441  0.00  0.00    +0.000 N 
ATOM      7  C   UNL     1       6.391   5.322  16.693  0.00  0.00    +0.000 C 
ATOM      8  O   UNL     1       7.541   5.415  17.105  0.00  0.00    +0.000 OA
ATOM      9  C   UNL     1       3.976   4.672  16.946  0.00  0.00    +0.000 C 
ATOM     10  C   UNL     1       2.964   5.158  17.994  0.00  0.00    +0.000 C 
ENDROOT
BRANCH   1  12
ATOM     11  C   UNL     1       0.869   2.404  18.869  0.00  0.00    +0.000 C 
ATOM     12  C   UNL     1       0.931   3.744  19.580  0.00  0.00    +0.000 C 
ENDBRANCH   1  12
BRANCH   7  13
ATOM     13  O   UNL     1       5.977   5.728  15.431  0.00  0.00    +0.000 OA
BRANCH  13  14
ATOM     14  C   UNL     1       6.296   4.969  14.290  0.00  0.00    +0.000 A 
ATOM     15  C   UNL     1       7.448   5.392  13.621  0.00  0.00    +0.000 A 
ATOM     16  C   UNL     1       7.802   4.798  12.411  0.00  0.00    +0.000 A 
ATOM     17  C   UNL     1       7.013   3.778  11.883  0.00  0.00    +0.000 A 
ATOM     18  C   UNL     1       5.878   3.340  12.567  0.00  0.00    +0.000 A 
ATOM     19  C   UNL     1       5.518   3.934  13.776  0.00  0.00    +0.000 A 
ENDBRANCH  13  14
ENDBRANCH   7  13
TORSDOF 3
ENDMDL
MODEL 7
REMARK VINA RESULT:      -6.7      1.944      6.662
REMARK  Name = 
REMARK  4 active torsions:
REMARK  status: ('A' for Active; 'I' for Inactive)
REMARK    1  A    between atoms: C_1  and  C_2
REMARK    2  A    between atoms: C_2  and  C_3
REMARK    3  A    between atoms: C_9  and  O_11
REMARK    4  A    between atoms: O_11  and  C_12
REMARK                            x       y       z     vdW  Elec       q    Type
REMARK                         _______ _______ _______ _____ _____    ______ ____
ROOT
ATOM      1  C   UNL     1       2.030   4.403  19.496  0.00  0.00    +0.000 C 
ATOM      2  O   UNL     1       1.372   5.275  20.063  0.00  0.00    +0.000 OA
ATOM      3  N   UNL     1       3.017   4.714  18.578  0.00  0.00    +0.000 N 
ATOM      4  C   UNL     1       3.348   6.123  18.330  0.00  0.00    +0.000 C 
ATOM      5  C   UNL     1       4.867   6.336  18.383  0.00  0.00    +0.000 C 
ATOM      6  N   UNL     1       5.540   5.396  17.487  0.00  0.00    +0.000 N 
ATOM      7  C   UNL     1       6.523   5.849  16.631  0.00  0.00    +0.000 C 
ATOM      8  O   UNL     1       6.798   7.033  16.476  0.00  0.00    +0.000 OA
ATOM      9  C   UNL     1       5.226   3.982  17.703  0.00  0.00    +0.000 C 
ATOM     10  C   UNL     1       3.707   3.754  17.702  0.00  0.00    +0.000 C 
ENDROOT
BRANCH   1  12
ATOM     11  C   UNL     1       0.731   2.306  18.975  0.00  0.00    +0.000 C 
ATOM     12  C   UNL     1       1.832   2.933  19.812  0.00  0.00    +0.000 C 
ENDBRANCH   1  12
BRANCH   7  13
ATOM     13  O   UNL     1       7.145   4.807  15.957  0.00  0.00    +0.000 OA
BRANCH  13  14
ATOM     14  C   UNL     1       7.058   4.702  14.556  0.00  0.00    +0.000 A 
ATOM     15  C   UNL     1       6.179   3.712  14.106  0.00  0.00    +0.000 A 
ATOM     16  C   UNL     1       6.095   3.429  12.744  0.00  0.00    +0.000 A 
ATOM     17  C   UNL     1       6.878   4.144  11.838  0.00  0.00    +0.000 A 
ATOM     18  C   UNL     1       7.734   5.149  12.289  0.00  0.00    +0.000 A 
ATOM     19  C   UNL     1       7.824   5.434  13.652  0.00  0.00    +0.000 A 
ENDBRANCH  13  14
ENDBRANCH   7  13
TORSDOF 3
ENDMDL
MODEL 8
REMARK VINA RESULT:      -6.5      0.958      1.065
REMARK  Name = 
REMARK  4 active torsions:
REMARK  status: ('A' for Active; 'I' for Inactive)
REMARK    1  A    between atoms: C_1  and  C_2
REMARK    2  A    between atoms: C_2  and  C_3
REMARK    3  A    between atoms: C_9  and  O_11
REMARK    4  A    between atoms: O_11  and  C_12
REMARK                            x       y       z     vdW  Elec       q    Type
REMARK                         _______ _______ _______ _____ _____    ______ ____
ROOT
ATOM      1  C   UNL     1       7.405   4.931  13.384  0.00  0.00    +0.000 C 
ATOM      2  O   UNL     1       8.373   5.681  13.258  0.00  0.00    +0.000 OA
ATOM      3  N   UNL     1       6.945   4.533  14.626  0.00  0.00    +0.000 N 
ATOM      4  C   UNL     1       7.575   5.082  15.834  0.00  0.00    +0.000 C 
ATOM      5  C   UNL     1       6.509   5.578  16.818  0.00  0.00    +0.000 C 
ATOM      6  N   UNL     1       5.532   4.522  17.081  0.00  0.00    +0.000 N 
ATOM      7  C   UNL     1       5.153   4.245  18.378  0.00  0.00    +0.000 C 
ATOM      8  O   UNL     1       5.678   4.751  19.363  0.00  0.00    +0.000 OA
ATOM      9  C   UNL     1       4.889   3.948  15.896  0.00  0.00    +0.000 C 
ATOM     10  C   UNL     1       5.940   3.488  14.875  0.00  0.00    +0.000 C 
ENDROOT
BRANCH   1  12
ATOM     11  C   UNL     1       6.948   2.999  11.829  0.00  0.00    +0.000 C 
ATOM     12  C   UNL     1       6.624   4.440  12.179  0.00  0.00    +0.000 C 
ENDBRANCH   1  12
BRANCH   7  13
ATOM     13  O   UNL     1       4.124   3.314  18.431  0.00  0.00    +0.000 OA
BRANCH  13  14
ATOM     14  C   UNL     1       3.163   3.361  19.457  0.00  0.00    +0.000 A 
ATOM     15  C   UNL     1       3.482   2.590  20.580  0.00  0.00    +0.000 A 
ATOM     16  C   UNL     1       2.556   2.459  21.613  0.00  0.00    +0.000 A 
ATOM     17  C   UNL     1       1.324   3.105  21.527  0.00  0.00    +0.000 A 
ATOM     18  C   UNL     1       1.020   3.894  20.416  0.00  0.00    +0.000 A 
ATOM     19  C   UNL     1       1.942   4.026  19.378  0.00  0.00    +0.000 A 
ENDBRANCH  13  14
ENDBRANCH   7  13
TORSDOF 3
ENDMDL
MODEL 9
REMARK VINA RESULT:      -6.5      1.671      2.069
REMARK  Name = 
REMARK  4 active torsions:
REMARK  status: ('A' for Active; 'I' for Inactive)
REMARK    1  A    between atoms: C_1  and  C_2
REMARK    2  A    between atoms: C_2  and  C_3
REMARK    3  A    between atoms: C_9  and  O_11
REMARK    4  A    between atoms: O_11  and  C_12
REMARK                            x       y       z     vdW  Elec       q    Type
REMARK                         _______ _______ _______ _____ _____    ______ ____
ROOT
ATOM      1  C   UNL     1       6.834   4.804  14.501  0.00  0.00    +0.000 C 
ATOM      2  O   UNL     1       7.767   5.586  14.314  0.00  0.00    +0.000 OA
ATOM      3  N   UNL     1       6.011   4.901  15.608  0.00  0.00    +0.000 N 
ATOM      4  C   UNL     1       6.200   6.015  16.547  0.00  0.00    +0.000 C 
ATOM      5  C   UNL     1       4.857   6.688  16.859  0.00  0.00    +0.000 C 
ATOM      6  N   UNL     1       3.882   5.691  17.301  0.00  0.00    +0.000 N 
ATOM      7  C   UNL     1       3.114   5.932  18.421  0.00  0.00    +0.000 C 
ATOM      8  O   UNL     1       3.276   6.893  19.163  0.00  0.00    +0.000 OA
ATOM      9  C   UNL     1       3.675   4.564  16.389  0.00  0.00    +0.000 C 
ATOM     10  C   UNL     1       5.013   3.904  16.025  0.00  0.00    +0.000 C 
ENDROOT
BRANCH   1  12
ATOM     11  C   UNL     1       7.086   4.001  12.124  0.00  0.00    +0.000 C 
ATOM     12  C   UNL     1       6.501   3.718  13.496  0.00  0.00    +0.000 C 
ENDBRANCH   1  12
BRANCH   7  13
ATOM     13  O   UNL     1       2.153   4.948  18.613  0.00  0.00    +0.000 OA
BRANCH  13  14
ATOM     14  C   UNL     1       2.208   4.098  19.733  0.00  0.00    +0.000 A 
ATOM     15  C   UNL     1       3.408   3.391  19.862  0.00  0.00    +0.000 A 
ATOM     16  C   UNL     1       3.539   2.429  20.860  0.00  0.00    +0.000 A 
ATOM     17  C   UNL     1       2.479   2.185  21.733  0.00  0.00    +0.000 A 
ATOM     18  C   UNL     1       1.293   2.911  21.617  0.00  0.00    +0.000 A 
ATOM     19  C   UNL     1       1.155   3.873  20.617  0.00  0.00    +0.000 A 
ENDBRANCH  13  14
ENDBRANCH   7  13
TORSDOF 3
ENDMDL
