MODEL 1
REMARK VINA RESULT:      -7.4      0.000      0.000
REMARK  Name = 
REMARK  7 active torsions:
REMARK  status: ('A' for Active; 'I' for Inactive)
REMARK    1  A    between atoms: C_1  and  O_2
REMARK    2  A    between atoms: O_2  and  C_3
REMARK    3  A    between atoms: C_6  and  C_7
REMARK    4  A    between atoms: C_7  and  C_9
REMARK    5  A    between atoms: C_10  and  C_11
REMARK    6  A    between atoms: C_14  and  N_15
REMARK    7  A    between atoms: C_19  and  N_20
REMARK                            x       y       z     vdW  Elec       q    Type
REMARK                         _______ _______ _______ _____ _____    ______ ____
ROOT
ATOM      1  C   UNL     1       1.954   8.501  18.371  0.00  0.00    +0.000 C 
ATOM      2  C   UNL     1       2.234   7.219  18.660  0.00  0.00    +0.000 C 
ENDROOT
BRANCH   2   3
ATOM      3  C   UNL     1       3.240   6.462  17.903  0.00  0.00    +0.000 A 
ATOM      4  C   UNL     1       4.289   7.215  17.347  0.00  0.00    +0.000 A 
ATOM      5  C   UNL     1       5.295   6.607  16.586  0.00  0.00    +0.000 A 
ATOM      6  C   UNL     1       5.267   5.222  16.378  0.00  0.00    +0.000 A 
ATOM      7  C   UNL     1       4.245   4.442  16.930  0.00  0.00    +0.000 A 
ATOM      8  C   UNL     1       3.241   5.076  17.683  0.00  0.00    +0.000 A 
BRANCH   6   9
ATOM      9  N   UNL     1       6.309   4.586  15.562  0.00  0.00    +0.000 N 
ATOM     10  O   UNL     1       7.482   4.650  15.968  0.00  0.00    +0.000 OA
ATOM     11  O   UNL     1       5.957   4.034  14.511  0.00  0.00    +0.000 OA
ENDBRANCH   6   9
BRANCH   8  12
ATOM     12  N   UNL     1       2.185   4.233  18.216  0.00  0.00    +0.000 N 
ATOM     13  O   UNL     1       1.212   4.014  17.486  0.00  0.00    +0.000 OA
ATOM     14  O   UNL     1       2.377   3.745  19.339  0.00  0.00    +0.000 OA
ENDBRANCH   8  12
ENDBRANCH   2   3
BRANCH   1  15
ATOM     15  C   UNL     1       1.117   9.304  19.311  0.00  0.00    +0.000 C 
ATOM     16  O   UNL     1       1.463   9.465  20.478  0.00  0.00    +0.000 OA
BRANCH  15  20
ATOM     17  C   UNL     1      -2.503  11.187  17.948  0.00  0.00    +0.000 A 
ATOM     18  C   UNL     1      -1.896  11.576  19.143  0.00  0.00    +0.000 A 
ATOM     19  C   UNL     1      -0.701  10.978  19.561  0.00  0.00    +0.000 A 
ATOM     20  C   UNL     1      -0.104   9.975  18.786  0.00  0.00    +0.000 A 
ATOM     21  C   UNL     1      -0.702   9.595  17.581  0.00  0.00    +0.000 A 
ATOM     22  C   UNL     1      -1.905  10.195  17.171  0.00  0.00    +0.000 A 
BRANCH  17  24
ATOM     23  C   UNL     1      -4.441  11.238  16.597  0.00  0.00    +0.000 C 
ATOM     24  O   UNL     1      -3.685  11.811  17.659  0.00  0.00    +0.000 OA
ENDBRANCH  17  24
ENDBRANCH  15  20
ENDBRANCH   1  15
TORSDOF 6
ENDMDL
MODEL 2
REMARK VINA RESULT:      -7.4      2.336      2.875
REMARK  Name = 
REMARK  7 active torsions:
REMARK  status: ('A' for Active; 'I' for Inactive)
REMARK    1  A    between atoms: C_1  and  O_2
REMARK    2  A    between atoms: O_2  and  C_3
REMARK    3  A    between atoms: C_6  and  C_7
REMARK    4  A    between atoms: C_7  and  C_9
REMARK    5  A    between atoms: C_10  and  C_11
REMARK    6  A    between atoms: C_14  and  N_15
REMARK    7  A    between atoms: C_19  and  N_20
REMARK                            x       y       z     vdW  Elec       q    Type
REMARK                         _______ _______ _______ _____ _____    ______ ____
ROOT
ATOM      1  C   UNL     1       2.665   7.012  19.202  0.00  0.00    +0.000 C 
ATOM      2  C   UNL     1       2.582   5.887  18.472  0.00  0.00    +0.000 C 
ENDROOT
BRANCH   2   3
ATOM      3  C   UNL     1       3.635   5.508  17.520  0.00  0.00    +0.000 A 
ATOM      4  C   UNL     1       4.347   6.569  16.933  0.00  0.00    +0.000 A 
ATOM      5  C   UNL     1       5.358   6.332  15.994  0.00  0.00    +0.000 A 
ATOM      6  C   UNL     1       5.677   5.017  15.634  0.00  0.00    +0.000 A 
ATOM      7  C   UNL     1       4.997   3.938  16.209  0.00  0.00    +0.000 A 
ATOM      8  C   UNL     1       3.979   4.201  17.144  0.00  0.00    +0.000 A 
BRANCH   6   9
ATOM      9  N   UNL     1       6.722   4.769  14.632  0.00  0.00    +0.000 N 
ATOM     10  O   UNL     1       7.755   5.457  14.691  0.00  0.00    +0.000 OA
ATOM     11  O   UNL     1       6.505   3.895  13.783  0.00  0.00    +0.000 OA
ENDBRANCH   6   9
BRANCH   8  12
ATOM     12  N   UNL     1       3.282   3.054  17.698  0.00  0.00    +0.000 N 
ATOM     13  O   UNL     1       2.219   2.723  17.161  0.00  0.00    +0.000 OA
ATOM     14  O   UNL     1       3.845   2.456  18.628  0.00  0.00    +0.000 OA
ENDBRANCH   8  12
ENDBRANCH   2   3
BRANCH   1  15
ATOM     15  C   UNL     1       1.710   7.233  20.328  0.00  0.00    +0.000 C 
ATOM     16  O   UNL     1       1.466   6.337  21.130  0.00  0.00    +0.000 OA
BRANCH  15  20
ATOM     17  C   UNL     1       0.174  11.223  20.803  0.00  0.00    +0.000 A 
ATOM     18  C   UNL     1       0.629  10.772  19.564  0.00  0.00    +0.000 A 
ATOM     19  C   UNL     1       1.097   9.460  19.414  0.00  0.00    +0.000 A 
ATOM     20  C   UNL     1       1.121   8.589  20.510  0.00  0.00    +0.000 A 
ATOM     21  C   UNL     1       0.651   9.034  21.750  0.00  0.00    +0.000 A 
ATOM     22  C   UNL     1       0.189  10.354  21.894  0.00  0.00    +0.000 A 
BRANCH  17  24
ATOM     23  C   UNL     1       0.773  13.469  21.236  0.00  0.00    +0.000 C 
ATOM     24  O   UNL     1      -0.225  12.532  20.842  0.00  0.00    +0.000 OA
ENDBRANCH  17  24
ENDBRANCH  15  20
ENDBRANCH   1  15
TORSDOF 6
ENDMDL
MODEL 3
REMARK VINA RESULT:      -7.4      1.971      2.255
REMARK  Name = 
REMARK  7 active torsions:
REMARK  status: ('A' for Active; 'I' for Inactive)
REMARK    1  A    between atoms: C_1  and  O_2
REMARK    2  A    between atoms: O_2  and  C_3
REMARK    3  A    between atoms: C_6  and  C_7
REMARK    4  A    between atoms: C_7  and  C_9
REMARK    5  A    between atoms: C_10  and  C_11
REMARK    6  A    between atoms: C_14  and  N_15
REMARK    7  A    between atoms: C_19  and  N_20
REMARK                            x       y       z     vdW  Elec       q    Type
REMARK                         _______ _______ _______ _____ _____    ______ ____
ROOT
ATOM      1  C   UNL     1       2.466   7.425  18.702  0.00  0.00    +0.000 C 
ATOM      2  C   UNL     1       2.806   6.132  18.575  0.00  0.00    +0.000 C 
ENDROOT
BRANCH   2   3
ATOM      3  C   UNL     1       3.775   5.686  17.566  0.00  0.00    +0.000 A 
ATOM      4  C   UNL     1       4.529   6.697  16.945  0.00  0.00    +0.000 A 
ATOM      5  C   UNL     1       5.468   6.396  15.951  0.00  0.00    +0.000 A 
ATOM      6  C   UNL     1       5.672   5.065  15.569  0.00  0.00    +0.000 A 
ATOM      7  C   UNL     1       4.948   4.033  16.176  0.00  0.00    +0.000 A 
ATOM      8  C   UNL     1       4.004   4.360  17.166  0.00  0.00    +0.000 A 
BRANCH   6   9
ATOM      9  N   UNL     1       6.640   4.749  14.510  0.00  0.00    +0.000 N 
ATOM     10  O   UNL     1       6.340   3.857  13.699  0.00  0.00    +0.000 OA
ATOM     11  O   UNL     1       7.702   5.385  14.497  0.00  0.00    +0.000 OA
ENDBRANCH   6   9
BRANCH   8  12
ATOM     12  N   UNL     1       3.257   3.261  17.753  0.00  0.00    +0.000 N 
ATOM     13  O   UNL     1       2.191   2.948  17.212  0.00  0.00    +0.000 OA
ATOM     14  O   UNL     1       3.783   2.681  18.714  0.00  0.00    +0.000 OA
ENDBRANCH   8  12
ENDBRANCH   2   3
BRANCH   1  15
ATOM     15  C   UNL     1       1.678   7.869  19.889  0.00  0.00    +0.000 C 
ATOM     16  O   UNL     1       1.605   7.166  20.893  0.00  0.00    +0.000 OA
BRANCH  15  20
ATOM     17  C   UNL     1      -0.306  11.685  19.838  0.00  0.00    +0.000 A 
ATOM     18  C   UNL     1      -0.424  10.829  20.933  0.00  0.00    +0.000 A 
ATOM     19  C   UNL     1       0.252   9.603  20.952  0.00  0.00    +0.000 A 
ATOM     20  C   UNL     1       1.049   9.218  19.867  0.00  0.00    +0.000 A 
ATOM     21  C   UNL     1       1.181  10.082  18.775  0.00  0.00    +0.000 A 
ATOM     22  C   UNL     1       0.494  11.308  18.760  0.00  0.00    +0.000 A 
BRANCH  17  24
ATOM     23  C   UNL     1      -1.473  13.211  21.215  0.00  0.00    +0.000 C 
ATOM     24  O   UNL     1      -1.041  12.837  19.911  0.00  0.00    +0.000 OA
ENDBRANCH  17  24
ENDBRANCH  15  20
ENDBRANCH   1  15
TORSDOF 6
ENDMDL
MODEL 4
REMARK VINA RESULT:      -7.3      2.170      2.621
REMARK  Name = 
REMARK  7 active torsions:
REMARK  status: ('A' for Active; 'I' for Inactive)
REMARK    1  A    between atoms: C_1  and  O_2
REMARK    2  A    between atoms: O_2  and  C_3
REMARK    3  A    between atoms: C_6  and  C_7
REMARK    4  A    between atoms: C_7  and  C_9
REMARK    5  A    between atoms: C_10  and  C_11
REMARK    6  A    between atoms: C_14  and  N_15
REMARK    7  A    between atoms: C_19  and  N_20
REMARK                            x       y       z     vdW  Elec       q    Type
REMARK                         _______ _______ _______ _____ _____    ______ ____
ROOT
ATOM      1  C   UNL     1       2.444   7.384  18.708  0.00  0.00    +0.000 C 
ATOM      2  C   UNL     1       2.860   6.108  18.637  0.00  0.00    +0.000 C 
ENDROOT
BRANCH   2   3
ATOM      3  C   UNL     1       3.813   5.666  17.610  0.00  0.00    +0.000 A 
ATOM      4  C   UNL     1       4.587   6.675  17.011  0.00  0.00    +0.000 A 
ATOM      5  C   UNL     1       5.513   6.378  16.003  0.00  0.00    +0.000 A 
ATOM      6  C   UNL     1       5.683   5.052  15.585  0.00  0.00    +0.000 A 
ATOM      7  C   UNL     1       4.938   4.022  16.170  0.00  0.00    +0.000 A 
ATOM      8  C   UNL     1       4.007   4.346  17.174  0.00  0.00    +0.000 A 
BRANCH   6   9
ATOM      9  N   UNL     1       6.637   4.742  14.513  0.00  0.00    +0.000 N 
ATOM     10  O   UNL     1       6.334   3.840  13.713  0.00  0.00    +0.000 OA
ATOM     11  O   UNL     1       7.690   5.391  14.477  0.00  0.00    +0.000 OA
ENDBRANCH   6   9
BRANCH   8  12
ATOM     12  N   UNL     1       3.238   3.250  17.737  0.00  0.00    +0.000 N 
ATOM     13  O   UNL     1       3.635   2.770  18.805  0.00  0.00    +0.000 OA
ATOM     14  O   UNL     1       2.205   2.928  17.133  0.00  0.00    +0.000 OA
ENDBRANCH   8  12
ENDBRANCH   2   3
BRANCH   1  15
ATOM     15  C   UNL     1       1.680   7.845  19.905  0.00  0.00    +0.000 C 
ATOM     16  O   UNL     1       1.498   7.097  20.861  0.00  0.00    +0.000 OA
BRANCH  15  20
ATOM     17  C   UNL     1       0.502  11.981  19.994  0.00  0.00    +0.000 A 
ATOM     18  C   UNL     1       0.938  11.384  18.811  0.00  0.00    +0.000 A 
ATOM     19  C   UNL     1       1.289  10.028  18.787  0.00  0.00    +0.000 A 
ATOM     20  C   UNL     1       1.213   9.258  19.954  0.00  0.00    +0.000 A 
ATOM     21  C   UNL     1       0.761   9.851  21.137  0.00  0.00    +0.000 A 
ATOM     22  C   UNL     1       0.417  11.213  21.155  0.00  0.00    +0.000 A 
BRANCH  17  24
ATOM     23  C   UNL     1      -0.458  13.732  18.729  0.00  0.00    +0.000 C 
ATOM     24  O   UNL     1       0.223  13.318  19.909  0.00  0.00    +0.000 OA
ENDBRANCH  17  24
ENDBRANCH  15  20
ENDBRANCH   1  15
TORSDOF 6
ENDMDL
MODEL 5
REMARK VINA RESULT:      -7.3      1.811      3.167
REMARK  Name = 
REMARK  7 active torsions:
REMARK  status: ('A' for Active; 'I' for Inactive)
REMARK    1  A    between atoms: C_1  and  O_2
REMARK    2  A    between atoms: O_2  and  C_3
REMARK    3  A    between atoms: C_6  and  C_7
REMARK    4  A    between atoms: C_7  and  C_9
REMARK    5  A    between atoms: C_10  and  C_11
REMARK    6  A    between atoms: C_14  and  N_15
REMARK    7  A    between atoms: C_19  and  N_20
REMARK                            x       y       z     vdW  Elec       q    Type
REMARK                         _______ _______ _______ _____ _____    ______ ____
ROOT
ATOM      1  C   UNL     1       1.859   8.508  18.463  0.00  0.00    +0.000 C 
ATOM      2  C   UNL     1       3.000   7.986  17.983  0.00  0.00    +0.000 C 
ENDROOT
BRANCH   2   3
ATOM      3  C   UNL     1       3.321   6.562  18.141  0.00  0.00    +0.000 A 
ATOM      4  C   UNL     1       2.430   5.812  18.929  0.00  0.00    +0.000 A 
ATOM      5  C   UNL     1       2.643   4.449  19.169  0.00  0.00    +0.000 A 
ATOM      6  C   UNL     1       3.758   3.812  18.612  0.00  0.00    +0.000 A 
ATOM      7  C   UNL     1       4.657   4.526  17.811  0.00  0.00    +0.000 A 
ATOM      8  C   UNL     1       4.427   5.896  17.591  0.00  0.00    +0.000 A 
BRANCH   6   9
ATOM      9  N   UNL     1       3.995   2.389  18.882  0.00  0.00    +0.000 N 
ATOM     10  O   UNL     1       4.734   2.096  19.838  0.00  0.00    +0.000 OA
ATOM     11  O   UNL     1       3.454   1.565  18.133  0.00  0.00    +0.000 OA
ENDBRANCH   6   9
BRANCH   8  12
ATOM     12  N   UNL     1       5.398   6.604  16.776  0.00  0.00    +0.000 N 
ATOM     13  O   UNL     1       6.423   7.006  17.337  0.00  0.00    +0.000 OA
ATOM     14  O   UNL     1       5.149   6.691  15.564  0.00  0.00    +0.000 OA
ENDBRANCH   8  12
ENDBRANCH   2   3
BRANCH   1  15
ATOM     15  C   UNL     1       1.456   9.890  18.068  0.00  0.00    +0.000 C 
ATOM     16  O   UNL     1       2.239  10.628  17.475  0.00  0.00    +0.000 OA
BRANCH  15  20
ATOM     17  C   UNL     1      -2.586  11.236  18.660  0.00  0.00    +0.000 A 
ATOM     18  C   UNL     1      -2.277  10.306  17.666  0.00  0.00    +0.000 A 
ATOM     19  C   UNL     1      -0.962   9.852  17.504  0.00  0.00    +0.000 A 
ATOM     20  C   UNL     1       0.059  10.332  18.333  0.00  0.00    +0.000 A 
ATOM     21  C   UNL     1      -0.251  11.252  19.339  0.00  0.00    +0.000 A 
ATOM     22  C   UNL     1      -1.571  11.709  19.492  0.00  0.00    +0.000 A 
BRANCH  17  24
ATOM     23  C   UNL     1      -4.765  10.998  17.776  0.00  0.00    +0.000 C 
ATOM     24  O   UNL     1      -3.894  11.638  18.702  0.00  0.00    +0.000 OA
ENDBRANCH  17  24
ENDBRANCH  15  20
ENDBRANCH   1  15
TORSDOF 6
ENDMDL
MODEL 6
REMARK VINA RESULT:      -7.3      0.282      1.202
REMARK  Name = 
REMARK  7 active torsions:
REMARK  status: ('A' for Active; 'I' for Inactive)
REMARK    1  A    between atoms: C_1  and  O_2
REMARK    2  A    between atoms: O_2  and  C_3
REMARK    3  A    between atoms: C_6  and  C_7
REMARK    4  A    between atoms: C_7  and  C_9
REMARK    5  A    between atoms: C_10  and  C_11
REMARK    6  A    between atoms: C_14  and  N_15
REMARK    7  A    between atoms: C_19  and  N_20
REMARK                            x       y       z     vdW  Elec       q    Type
REMARK                         _______ _______ _______ _____ _____    ______ ____
ROOT
ATOM      1  C   UNL     1       1.980   8.572  18.378  0.00  0.00    +0.000 C 
ATOM      2  C   UNL     1       2.193   7.269  18.626  0.00  0.00    +0.000 C 
ENDROOT
BRANCH   2   3
ATOM      3  C   UNL     1       3.204   6.500  17.888  0.00  0.00    +0.000 A 
ATOM      4  C   UNL     1       4.258   7.244  17.330  0.00  0.00    +0.000 A 
ATOM      5  C   UNL     1       5.270   6.625  16.585  0.00  0.00    +0.000 A 
ATOM      6  C   UNL     1       5.242   5.238  16.396  0.00  0.00    +0.000 A 
ATOM      7  C   UNL     1       4.215   4.466  16.950  0.00  0.00    +0.000 A 
ATOM      8  C   UNL     1       3.205   5.111  17.687  0.00  0.00    +0.000 A 
BRANCH   6   9
ATOM      9  N   UNL     1       6.290   4.590  15.597  0.00  0.00    +0.000 N 
ATOM     10  O   UNL     1       7.463   4.685  15.995  0.00  0.00    +0.000 OA
ATOM     11  O   UNL     1       5.941   3.997  14.568  0.00  0.00    +0.000 OA
ENDBRANCH   6   9
BRANCH   8  12
ATOM     12  N   UNL     1       2.145   4.276  18.223  0.00  0.00    +0.000 N 
ATOM     13  O   UNL     1       2.265   3.889  19.391  0.00  0.00    +0.000 OA
ATOM     14  O   UNL     1       1.170   4.072  17.485  0.00  0.00    +0.000 OA
ENDBRANCH   8  12
ENDBRANCH   2   3
BRANCH   1  15
ATOM     15  C   UNL     1       1.130   9.371  19.310  0.00  0.00    +0.000 C 
ATOM     16  O   UNL     1       1.497   9.593  20.461  0.00  0.00    +0.000 OA
BRANCH  15  20
ATOM     17  C   UNL     1      -2.432  11.127  17.658  0.00  0.00    +0.000 A 
ATOM     18  C   UNL     1      -1.833  10.019  17.058  0.00  0.00    +0.000 A 
ATOM     19  C   UNL     1      -0.692   9.436  17.623  0.00  0.00    +0.000 A 
ATOM     20  C   UNL     1      -0.134   9.965  18.794  0.00  0.00    +0.000 A 
ATOM     21  C   UNL     1      -0.742  11.066  19.405  0.00  0.00    +0.000 A 
ATOM     22  C   UNL     1      -1.883  11.650  18.829  0.00  0.00    +0.000 A 
BRANCH  17  24
ATOM     23  C   UNL     1      -3.892  10.953  15.808  0.00  0.00    +0.000 C 
ATOM     24  O   UNL     1      -3.518  11.636  16.999  0.00  0.00    +0.000 OA
ENDBRANCH  17  24
ENDBRANCH  15  20
ENDBRANCH   1  15
TORSDOF 6
ENDMDL
MODEL 7
REMARK VINA RESULT:      -7.3      3.448      5.273
REMARK  Name = 
REMARK  7 active torsions:
REMARK  status: ('A' for Active; 'I' for Inactive)
REMARK    1  A    between atoms: C_1  and  O_2
REMARK    2  A    between atoms: O_2  and  C_3
REMARK    3  A    between atoms: C_6  and  C_7
REMARK    4  A    between atoms: C_7  and  C_9
REMARK    5  A    between atoms: C_10  and  C_11
REMARK    6  A    between atoms: C_14  and  N_15
REMARK    7  A    between atoms: C_19  and  N_20
REMARK                            x       y       z     vdW  Elec       q    Type
REMARK                         _______ _______ _______ _____ _____    ______ ____
ROOT
ATOM      1  C   UNL     1       3.455   3.700  17.340  0.00  0.00    +0.000 C 
ATOM      2  C   UNL     1       4.725   4.103  17.512  0.00  0.00    +0.000 C 
ENDROOT
BRANCH   2   3
ATOM      3  C   UNL     1       5.593   4.420  16.370  0.00  0.00    +0.000 A 
ATOM      4  C   UNL     1       5.087   4.091  15.100  0.00  0.00    +0.000 A 
ATOM      5  C   UNL     1       5.832   4.325  13.938  0.00  0.00    +0.000 A 
ATOM      6  C   UNL     1       7.104   4.904  14.034  0.00  0.00    +0.000 A 
ATOM      7  C   UNL     1       7.631   5.256  15.282  0.00  0.00    +0.000 A 
ATOM      8  C   UNL     1       6.868   5.003  16.435  0.00  0.00    +0.000 A 
BRANCH   6   9
ATOM      9  N   UNL     1       7.896   5.129  12.819  0.00  0.00    +0.000 N 
ATOM     10  O   UNL     1       8.852   5.921  12.890  0.00  0.00    +0.000 OA
ATOM     11  O   UNL     1       7.558   4.524  11.793  0.00  0.00    +0.000 OA
ENDBRANCH   6   9
BRANCH   8  12
ATOM     12  N   UNL     1       7.463   5.361  17.711  0.00  0.00    +0.000 N 
ATOM     13  O   UNL     1       7.303   6.521  18.105  0.00  0.00    +0.000 OA
ATOM     14  O   UNL     1       8.029   4.451  18.335  0.00  0.00    +0.000 OA
ENDBRANCH   8  12
ENDBRANCH   2   3
BRANCH   1  15
ATOM     15  C   UNL     1       2.537   3.630  18.515  0.00  0.00    +0.000 C 
ATOM     16  O   UNL     1       2.142   2.548  18.941  0.00  0.00    +0.000 OA
BRANCH  15  20
ATOM     17  C   UNL     1       1.672   7.325  20.540  0.00  0.00    +0.000 A 
ATOM     18  C   UNL     1       2.264   7.320  19.276  0.00  0.00    +0.000 A 
ATOM     19  C   UNL     1       2.511   6.112  18.613  0.00  0.00    +0.000 A 
ATOM     20  C   UNL     1       2.175   4.893  19.215  0.00  0.00    +0.000 A 
ATOM     21  C   UNL     1       1.567   4.897  20.475  0.00  0.00    +0.000 A 
ATOM     22  C   UNL     1       1.328   6.113  21.137  0.00  0.00    +0.000 A 
BRANCH  17  24
ATOM     23  C   UNL     1       0.185   8.890  21.502  0.00  0.00    +0.000 C 
ATOM     24  O   UNL     1       1.513   8.559  21.109  0.00  0.00    +0.000 OA
ENDBRANCH  17  24
ENDBRANCH  15  20
ENDBRANCH   1  15
TORSDOF 6
ENDMDL
MODEL 8
REMARK VINA RESULT:      -7.3      1.650      2.143
REMARK  Name = 
REMARK  7 active torsions:
REMARK  status: ('A' for Active; 'I' for Inactive)
REMARK    1  A    between atoms: C_1  and  O_2
REMARK    2  A    between atoms: O_2  and  C_3
REMARK    3  A    between atoms: C_6  and  C_7
REMARK    4  A    between atoms: C_7  and  C_9
REMARK    5  A    between atoms: C_10  and  C_11
REMARK    6  A    between atoms: C_14  and  N_15
REMARK    7  A    between atoms: C_19  and  N_20
REMARK                            x       y       z     vdW  Elec       q    Type
REMARK                         _______ _______ _______ _____ _____    ______ ____
ROOT
ATOM      1  C   UNL     1       2.334   7.763  18.910  0.00  0.00    +0.000 C 
ATOM      2  C   UNL     1       2.582   6.448  18.791  0.00  0.00    +0.000 C 
ENDROOT
BRANCH   2   3
ATOM      3  C   UNL     1       3.571   5.935  17.834  0.00  0.00    +0.000 A 
ATOM      4  C   UNL     1       4.452   6.885  17.288  0.00  0.00    +0.000 A 
ATOM      5  C   UNL     1       5.423   6.520  16.348  0.00  0.00    +0.000 A 
ATOM      6  C   UNL     1       5.530   5.183  15.945  0.00  0.00    +0.000 A 
ATOM      7  C   UNL     1       4.679   4.210  16.479  0.00  0.00    +0.000 A 
ATOM      8  C   UNL     1       3.705   4.602  17.415  0.00  0.00    +0.000 A 
BRANCH   6   9
ATOM      9  N   UNL     1       6.533   4.802  14.942  0.00  0.00    +0.000 N 
ATOM     10  O   UNL     1       7.556   5.502  14.852  0.00  0.00    +0.000 OA
ATOM     11  O   UNL     1       6.293   3.811  14.240  0.00  0.00    +0.000 OA
ENDBRANCH   6   9
BRANCH   8  12
ATOM     12  N   UNL     1       2.826   3.565  17.926  0.00  0.00    +0.000 N 
ATOM     13  O   UNL     1       1.803   3.320  17.276  0.00  0.00    +0.000 OA
ATOM     14  O   UNL     1       3.206   2.963  18.940  0.00  0.00    +0.000 OA
ENDBRANCH   8  12
ENDBRANCH   2   3
BRANCH   1  15
ATOM     15  C   UNL     1       1.515   8.258  20.056  0.00  0.00    +0.000 C 
ATOM     16  O   UNL     1       1.452   7.623  21.105  0.00  0.00    +0.000 OA
BRANCH  15  20
ATOM     17  C   UNL     1      -0.307  12.125  19.571  0.00  0.00    +0.000 A 
ATOM     18  C   UNL     1      -0.264  11.213  18.515  0.00  0.00    +0.000 A 
ATOM     19  C   UNL     1       0.303   9.946  18.694  0.00  0.00    +0.000 A 
ATOM     20  C   UNL     1       0.841   9.581  19.934  0.00  0.00    +0.000 A 
ATOM     21  C   UNL     1       0.785  10.487  20.998  0.00  0.00    +0.000 A 
ATOM     22  C   UNL     1       0.220  11.760  20.810  0.00  0.00    +0.000 A 
BRANCH  17  24
ATOM     23  C   UNL     1      -1.489  14.017  20.352  0.00  0.00    +0.000 C 
ATOM     24  O   UNL     1      -0.849  13.345  19.272  0.00  0.00    +0.000 OA
ENDBRANCH  17  24
ENDBRANCH  15  20
ENDBRANCH   1  15
TORSDOF 6
ENDMDL
MODEL 9
REMARK VINA RESULT:      -7.3      0.724      1.173
REMARK  Name = 
REMARK  7 active torsions:
REMARK  status: ('A' for Active; 'I' for Inactive)
REMARK    1  A    between atoms: C_1  and  O_2
REMARK    2  A    between atoms: O_2  and  C_3
REMARK    3  A    between atoms: C_6  and  C_7
REMARK    4  A    between atoms: C_7  and  C_9
REMARK    5  A    between atoms: C_10  and  C_11
REMARK    6  A    between atoms: C_14  and  N_15
REMARK    7  A    between atoms: C_19  and  N_20
REMARK                            x       y       z     vdW  Elec       q    Type
REMARK                         _______ _______ _______ _____ _____    ______ ____
ROOT
ATOM      1  C   UNL     1       2.392   8.014  18.724  0.00  0.00    +0.000 C 
ATOM      2  C   UNL     1       2.414   6.683  18.538  0.00  0.00    +0.000 C 
ENDROOT
BRANCH   2   3
ATOM      3  C   UNL     1       3.460   6.036  17.736  0.00  0.00    +0.000 A 
ATOM      4  C   UNL     1       4.452   6.884  17.214  0.00  0.00    +0.000 A 
ATOM      5  C   UNL     1       5.488   6.385  16.416  0.00  0.00    +0.000 A 
ATOM      6  C   UNL     1       5.548   5.015  16.133  0.00  0.00    +0.000 A 
ATOM      7  C   UNL     1       4.584   4.141  16.648  0.00  0.00    +0.000 A 
ATOM      8  C   UNL     1       3.548   4.666  17.440  0.00  0.00    +0.000 A 
BRANCH   6   9
ATOM      9  N   UNL     1       6.621   4.493  15.277  0.00  0.00    +0.000 N 
ATOM     10  O   UNL     1       6.292   3.884  14.244  0.00  0.00    +0.000 OA
ATOM     11  O   UNL     1       7.789   4.682  15.642  0.00  0.00    +0.000 OA
ENDBRANCH   6   9
BRANCH   8  12
ATOM     12  N   UNL     1       2.555   3.728  17.934  0.00  0.00    +0.000 N 
ATOM     13  O   UNL     1       2.758   3.219  19.042  0.00  0.00    +0.000 OA
ATOM     14  O   UNL     1       1.547   3.563  17.231  0.00  0.00    +0.000 OA
ENDBRANCH   8  12
ENDBRANCH   2   3
BRANCH   1  15
ATOM     15  C   UNL     1       1.470   8.602  19.740  0.00  0.00    +0.000 C 
ATOM     16  O   UNL     1       1.635   8.386  20.938  0.00  0.00    +0.000 OA
BRANCH  15  20
ATOM     17  C   UNL     1      -1.751  11.187  18.538  0.00  0.00    +0.000 A 
ATOM     18  C   UNL     1      -1.270  11.200  19.848  0.00  0.00    +0.000 A 
ATOM     19  C   UNL     1      -0.200  10.377  20.219  0.00  0.00    +0.000 A 
ATOM     20  C   UNL     1       0.395   9.525  19.281  0.00  0.00    +0.000 A 
ATOM     21  C   UNL     1      -0.075   9.521  17.964  0.00  0.00    +0.000 A 
ATOM     22  C   UNL     1      -1.154  10.344  17.600  0.00  0.00    +0.000 A 
BRANCH  17  24
ATOM     23  C   UNL     1      -3.802  11.487  17.401  0.00  0.00    +0.000 C 
ATOM     24  O   UNL     1      -2.823  12.002  18.298  0.00  0.00    +0.000 OA
ENDBRANCH  17  24
ENDBRANCH  15  20
ENDBRANCH   1  15
TORSDOF 6
ENDMDL
