MODEL 1
REMARK VINA RESULT:      -6.8      0.000      0.000
REMARK  Name = 
REMARK  7 active torsions:
REMARK  status: ('A' for Active; 'I' for Inactive)
REMARK    1  A    between atoms: C_2  and  C_3
REMARK    2  A    between atoms: C_3  and  O_4
REMARK    3  A    between atoms: O_4  and  C_5
REMARK    4  A    between atoms: N_13  and  C_14
REMARK    5  A    between atoms: C_14  and  C_15
REMARK    6  A    between atoms: C_15  and  S_16
REMARK    7  A    between atoms: S_16  and  C_17
REMARK                            x       y       z     vdW  Elec       q    Type
REMARK                         _______ _______ _______ _____ _____    ______ ____
ROOT
ATOM      1  O   UNL     1       2.077   8.431  18.982  0.00  0.00    +0.000 OA
ATOM      2  C   UNL     1       2.044   7.533  19.821  0.00  0.00    +0.000 C 
ATOM      3  N   UNL     1       1.660   7.745  21.129  0.00  0.00    +0.000 N 
ATOM      4  H   UNL     1       1.580   6.956  21.757  0.00  0.00    +0.000 HD
ENDROOT
BRANCH   2   5
ATOM      5  C   UNL     1       2.381   6.077  19.484  0.00  0.00    +0.000 C 
BRANCH   5   6
ATOM      6  O   UNL     1       3.785   5.865  19.407  0.00  0.00    +0.000 OA
BRANCH   6   7
ATOM      7  C   UNL     1       4.312   5.580  18.168  0.00  0.00    +0.000 A 
ATOM      8  C   UNL     1       4.638   6.549  17.210  0.00  0.00    +0.000 A 
ATOM      9  C   UNL     1       5.168   6.174  15.969  0.00  0.00    +0.000 A 
ATOM     10  C   UNL     1       5.375   4.830  15.675  0.00  0.00    +0.000 A 
ATOM     11 CL   UNL     1       6.033   4.382  14.151  0.00  0.00    +0.000 Cl
ATOM     12  C   UNL     1       5.052   3.850  16.608  0.00  0.00    +0.000 A 
ATOM     13  C   UNL     1       4.520   4.226  17.847  0.00  0.00    +0.000 A 
ATOM     14 CL   UNL     1       4.133   2.967  18.968  0.00  0.00    +0.000 Cl
ENDBRANCH   6   7
ENDBRANCH   5   6
ENDBRANCH   2   5
BRANCH   3  15
ATOM     15  C   UNL     1       1.222   9.044  21.619  0.00  0.00    +0.000 C 
BRANCH  15  16
ATOM     16  C   UNL     1      -0.228   9.389  21.256  0.00  0.00    +0.000 C 
BRANCH  16  17
ATOM     17  S   UNL     1      -0.378  11.152  20.766  0.00  0.00    +0.000 S 
BRANCH  17  18
ATOM     18  C   UNL     1      -1.297  10.994  19.245  0.00  0.00    +0.000 A 
ATOM     19  C   UNL     1      -0.945  10.051  18.271  0.00  0.00    +0.000 A 
ATOM     20  C   UNL     1      -1.716   9.913  17.113  0.00  0.00    +0.000 A 
ATOM     21  C   UNL     1      -2.843  10.712  16.928  0.00  0.00    +0.000 A 
ATOM     22 CL   UNL     1      -3.798  10.535  15.508  0.00  0.00    +0.000 Cl
ATOM     23  C   UNL     1      -3.207  11.647  17.894  0.00  0.00    +0.000 A 
ATOM     24  C   UNL     1      -2.436  11.783  19.053  0.00  0.00    +0.000 A 
ENDBRANCH  17  18
ENDBRANCH  16  17
ENDBRANCH  15  16
ENDBRANCH   3  15
TORSDOF 7
ENDMDL
MODEL 2
REMARK VINA RESULT:      -6.6      6.300      8.822
REMARK  Name = 
REMARK  7 active torsions:
REMARK  status: ('A' for Active; 'I' for Inactive)
REMARK    1  A    between atoms: C_2  and  C_3
REMARK    2  A    between atoms: C_3  and  O_4
REMARK    3  A    between atoms: O_4  and  C_5
REMARK    4  A    between atoms: N_13  and  C_14
REMARK    5  A    between atoms: C_14  and  C_15
REMARK    6  A    between atoms: C_15  and  S_16
REMARK    7  A    between atoms: S_16  and  C_17
REMARK                            x       y       z     vdW  Elec       q    Type
REMARK                         _______ _______ _______ _____ _____    ______ ____
ROOT
ATOM      1  O   UNL     1       6.621   7.767  16.937  0.00  0.00    +0.000 OA
ATOM      2  C   UNL     1       7.608   7.815  17.669  0.00  0.00    +0.000 C 
ATOM      3  N   UNL     1       7.931   6.809  18.555  0.00  0.00    +0.000 N 
ATOM      4  H   UNL     1       8.795   6.868  19.079  0.00  0.00    +0.000 HD
ENDROOT
BRANCH   2   5
ATOM      5  C   UNL     1       8.604   8.980  17.634  0.00  0.00    +0.000 C 
BRANCH   5   6
ATOM      6  O   UNL     1       8.213  10.034  18.504  0.00  0.00    +0.000 OA
BRANCH   6   7
ATOM      7  C   UNL     1       9.148  11.006  18.775  0.00  0.00    +0.000 A 
ATOM      8  C   UNL     1      10.230  10.836  19.649  0.00  0.00    +0.000 A 
ATOM      9  C   UNL     1      11.136  11.880  19.872  0.00  0.00    +0.000 A 
ATOM     10  C   UNL     1      10.969  13.101  19.225  0.00  0.00    +0.000 A 
ATOM     11 CL   UNL     1      12.093  14.372  19.502  0.00  0.00    +0.000 Cl
ATOM     12  C   UNL     1       9.899  13.295  18.359  0.00  0.00    +0.000 A 
ATOM     13  C   UNL     1       8.991  12.252  18.139  0.00  0.00    +0.000 A 
ATOM     14 CL   UNL     1       7.677  12.549  17.055  0.00  0.00    +0.000 Cl
ENDBRANCH   6   7
ENDBRANCH   5   6
ENDBRANCH   2   5
BRANCH   3  15
ATOM     15  C   UNL     1       7.155   5.584  18.672  0.00  0.00    +0.000 C 
BRANCH  15  16
ATOM     16  C   UNL     1       7.460   4.547  17.583  0.00  0.00    +0.000 C 
BRANCH  16  17
ATOM     17  S   UNL     1       6.067   4.412  16.397  0.00  0.00    +0.000 S 
BRANCH  17  18
ATOM     18  C   UNL     1       4.678   4.435  17.516  0.00  0.00    +0.000 A 
ATOM     19  C   UNL     1       3.776   5.506  17.544  0.00  0.00    +0.000 A 
ATOM     20  C   UNL     1       2.666   5.473  18.394  0.00  0.00    +0.000 A 
ATOM     21  C   UNL     1       2.451   4.366  19.212  0.00  0.00    +0.000 A 
ATOM     22 CL   UNL     1       1.079   4.320  20.250  0.00  0.00    +0.000 Cl
ATOM     23  C   UNL     1       3.336   3.291  19.188  0.00  0.00    +0.000 A 
ATOM     24  C   UNL     1       4.445   3.326  18.336  0.00  0.00    +0.000 A 
ENDBRANCH  17  18
ENDBRANCH  16  17
ENDBRANCH  15  16
ENDBRANCH   3  15
TORSDOF 7
ENDMDL
MODEL 3
REMARK VINA RESULT:      -6.6      6.434      9.043
REMARK  Name = 
REMARK  7 active torsions:
REMARK  status: ('A' for Active; 'I' for Inactive)
REMARK    1  A    between atoms: C_2  and  C_3
REMARK    2  A    between atoms: C_3  and  O_4
REMARK    3  A    between atoms: O_4  and  C_5
REMARK    4  A    between atoms: N_13  and  C_14
REMARK    5  A    between atoms: C_14  and  C_15
REMARK    6  A    between atoms: C_15  and  S_16
REMARK    7  A    between atoms: S_16  and  C_17
REMARK                            x       y       z     vdW  Elec       q    Type
REMARK                         _______ _______ _______ _____ _____    ______ ____
ROOT
ATOM      1  O   UNL     1       7.683   7.717  16.756  0.00  0.00    +0.000 OA
ATOM      2  C   UNL     1       7.955   7.599  17.949  0.00  0.00    +0.000 C 
ATOM      3  N   UNL     1       7.679   6.455  18.670  0.00  0.00    +0.000 N 
ATOM      4  H   UNL     1       7.992   6.385  19.629  0.00  0.00    +0.000 HD
ENDROOT
BRANCH   2   5
ATOM      5  C   UNL     1       8.673   8.695  18.744  0.00  0.00    +0.000 C 
BRANCH   5   6
ATOM      6  O   UNL     1       8.642   9.945  18.065  0.00  0.00    +0.000 OA
BRANCH   6   7
ATOM      7  C   UNL     1       9.269  11.007  18.674  0.00  0.00    +0.000 A 
ATOM      8  C   UNL     1      10.235  10.880  19.681  0.00  0.00    +0.000 A 
ATOM      9  C   UNL     1      10.823  12.014  20.252  0.00  0.00    +0.000 A 
ATOM     10  C   UNL     1      10.450  13.285  19.824  0.00  0.00    +0.000 A 
ATOM     11 CL   UNL     1      11.186  14.671  20.528  0.00  0.00    +0.000 Cl
ATOM     12  C   UNL     1       9.489  13.436  18.831  0.00  0.00    +0.000 A 
ATOM     13  C   UNL     1       8.899  12.301  18.262  0.00  0.00    +0.000 A 
ATOM     14 CL   UNL     1       7.706  12.547  17.035  0.00  0.00    +0.000 Cl
ENDBRANCH   6   7
ENDBRANCH   5   6
ENDBRANCH   2   5
BRANCH   3  15
ATOM     15  C   UNL     1       7.077   5.274  18.069  0.00  0.00    +0.000 C 
BRANCH  15  16
ATOM     16  C   UNL     1       5.693   5.523  17.457  0.00  0.00    +0.000 C 
BRANCH  16  17
ATOM     17  S   UNL     1       4.959   3.959  16.837  0.00  0.00    +0.000 S 
BRANCH  17  18
ATOM     18  C   UNL     1       3.904   3.524  18.208  0.00  0.00    +0.000 A 
ATOM     19  C   UNL     1       4.397   2.836  19.324  0.00  0.00    +0.000 A 
ATOM     20  C   UNL     1       3.559   2.556  20.407  0.00  0.00    +0.000 A 
ATOM     21  C   UNL     1       2.228   2.967  20.381  0.00  0.00    +0.000 A 
ATOM     22 CL   UNL     1       1.199   2.633  21.718  0.00  0.00    +0.000 Cl
ATOM     23  C   UNL     1       1.728   3.659  19.280  0.00  0.00    +0.000 A 
ATOM     24  C   UNL     1       2.568   3.940  18.198  0.00  0.00    +0.000 A 
ENDBRANCH  17  18
ENDBRANCH  16  17
ENDBRANCH  15  16
ENDBRANCH   3  15
TORSDOF 7
ENDMDL
MODEL 4
REMARK VINA RESULT:      -6.5      4.671      6.146
REMARK  Name = 
REMARK  7 active torsions:
REMARK  status: ('A' for Active; 'I' for Inactive)
REMARK    1  A    between atoms: C_2  and  C_3
REMARK    2  A    between atoms: C_3  and  O_4
REMARK    3  A    between atoms: O_4  and  C_5
REMARK    4  A    between atoms: N_13  and  C_14
REMARK    5  A    between atoms: C_14  and  C_15
REMARK    6  A    between atoms: C_15  and  S_16
REMARK    7  A    between atoms: S_16  and  C_17
REMARK                            x       y       z     vdW  Elec       q    Type
REMARK                         _______ _______ _______ _____ _____    ______ ____
ROOT
ATOM      1  O   UNL     1       5.802   6.277  18.023  0.00  0.00    +0.000 OA
ATOM      2  C   UNL     1       6.412   5.244  17.751  0.00  0.00    +0.000 C 
ATOM      3  N   UNL     1       6.058   4.011  18.258  0.00  0.00    +0.000 N 
ATOM      4  H   UNL     1       6.549   3.185  17.941  0.00  0.00    +0.000 HD
ENDROOT
BRANCH   2   5
ATOM      5  C   UNL     1       7.599   5.219  16.782  0.00  0.00    +0.000 C 
BRANCH   5   6
ATOM      6  O   UNL     1       7.277   5.826  15.537  0.00  0.00    +0.000 OA
BRANCH   6   7
ATOM      7  C   UNL     1       6.718   5.022  14.571  0.00  0.00    +0.000 A 
ATOM      8  C   UNL     1       5.536   4.289  14.743  0.00  0.00    +0.000 A 
ATOM      9  C   UNL     1       5.035   3.490  13.708  0.00  0.00    +0.000 A 
ATOM     10  C   UNL     1       5.710   3.416  12.494  0.00  0.00    +0.000 A 
ATOM     11 CL   UNL     1       5.081   2.437  11.227  0.00  0.00    +0.000 Cl
ATOM     12  C   UNL     1       6.888   4.129  12.301  0.00  0.00    +0.000 A 
ATOM     13  C   UNL     1       7.390   4.926  13.338  0.00  0.00    +0.000 A 
ATOM     14 CL   UNL     1       8.861   5.788  13.047  0.00  0.00    +0.000 Cl
ENDBRANCH   6   7
ENDBRANCH   5   6
ENDBRANCH   2   5
BRANCH   3  15
ATOM     15  C   UNL     1       4.907   3.820  19.128  0.00  0.00    +0.000 C 
BRANCH  15  16
ATOM     16  C   UNL     1       3.953   2.712  18.663  0.00  0.00    +0.000 C 
BRANCH  16  17
ATOM     17  S   UNL     1       2.484   3.422  17.823  0.00  0.00    +0.000 S 
BRANCH  17  18
ATOM     18  C   UNL     1       2.254   4.917  18.768  0.00  0.00    +0.000 A 
ATOM     19  C   UNL     1       2.577   6.174  18.242  0.00  0.00    +0.000 A 
ATOM     20  C   UNL     1       2.335   7.333  18.986  0.00  0.00    +0.000 A 
ATOM     21  C   UNL     1       1.765   7.240  20.253  0.00  0.00    +0.000 A 
ATOM     22 CL   UNL     1       1.457   8.666  21.164  0.00  0.00    +0.000 Cl
ATOM     23  C   UNL     1       1.431   5.996  20.784  0.00  0.00    +0.000 A 
ATOM     24  C   UNL     1       1.672   4.837  20.038  0.00  0.00    +0.000 A 
ENDBRANCH  17  18
ENDBRANCH  16  17
ENDBRANCH  15  16
ENDBRANCH   3  15
TORSDOF 7
ENDMDL
MODEL 5
REMARK VINA RESULT:      -6.5      6.443      8.597
REMARK  Name = 
REMARK  7 active torsions:
REMARK  status: ('A' for Active; 'I' for Inactive)
REMARK    1  A    between atoms: C_2  and  C_3
REMARK    2  A    between atoms: C_3  and  O_4
REMARK    3  A    between atoms: O_4  and  C_5
REMARK    4  A    between atoms: N_13  and  C_14
REMARK    5  A    between atoms: C_14  and  C_15
REMARK    6  A    between atoms: C_15  and  S_16
REMARK    7  A    between atoms: S_16  and  C_17
REMARK                            x       y       z     vdW  Elec       q    Type
REMARK                         _______ _______ _______ _____ _____    ______ ____
ROOT
ATOM      1  O   UNL     1       6.092   7.339  16.583  0.00  0.00    +0.000 OA
ATOM      2  C   UNL     1       6.761   6.847  17.489  0.00  0.00    +0.000 C 
ATOM      3  N   UNL     1       7.780   7.530  18.122  0.00  0.00    +0.000 N 
ATOM      4  H   UNL     1       8.248   7.103  18.911  0.00  0.00    +0.000 HD
ENDROOT
BRANCH   2   5
ATOM      5  C   UNL     1       6.498   5.441  18.038  0.00  0.00    +0.000 C 
BRANCH   5   6
ATOM      6  O   UNL     1       5.597   5.464  19.137  0.00  0.00    +0.000 OA
BRANCH   6   7
ATOM      7  C   UNL     1       4.482   4.663  19.053  0.00  0.00    +0.000 A 
ATOM      8  C   UNL     1       4.477   3.288  19.326  0.00  0.00    +0.000 A 
ATOM      9  C   UNL     1       3.298   2.543  19.212  0.00  0.00    +0.000 A 
ATOM     10  C   UNL     1       2.113   3.164  18.826  0.00  0.00    +0.000 A 
ATOM     11 CL   UNL     1       0.669   2.239  18.699  0.00  0.00    +0.000 Cl
ATOM     12  C   UNL     1       2.095   4.525  18.545  0.00  0.00    +0.000 A 
ATOM     13  C   UNL     1       3.276   5.269  18.655  0.00  0.00    +0.000 A 
ATOM     14 CL   UNL     1       3.197   6.958  18.289  0.00  0.00    +0.000 Cl
ENDBRANCH   6   7
ENDBRANCH   5   6
ENDBRANCH   2   5
BRANCH   3  15
ATOM     15  C   UNL     1       8.123   8.906  17.798  0.00  0.00    +0.000 C 
BRANCH  15  16
ATOM     16  C   UNL     1       8.973   9.604  18.868  0.00  0.00    +0.000 C 
BRANCH  16  17
ATOM     17  S   UNL     1       9.746  11.128  18.200  0.00  0.00    +0.000 S 
BRANCH  17  18
ATOM     18  C   UNL     1       9.598  12.216  19.607  0.00  0.00    +0.000 A 
ATOM     19  C   UNL     1       9.476  11.718  20.909  0.00  0.00    +0.000 A 
ATOM     20  C   UNL     1       9.416  12.594  21.997  0.00  0.00    +0.000 A 
ATOM     21  C   UNL     1       9.486  13.970  21.786  0.00  0.00    +0.000 A 
ATOM     22 CL   UNL     1       9.424  15.048  23.126  0.00  0.00    +0.000 Cl
ATOM     23  C   UNL     1       9.616  14.477  20.496  0.00  0.00    +0.000 A 
ATOM     24  C   UNL     1       9.676  13.599  19.409  0.00  0.00    +0.000 A 
ENDBRANCH  17  18
ENDBRANCH  16  17
ENDBRANCH  15  16
ENDBRANCH   3  15
TORSDOF 7
ENDMDL
MODEL 6
REMARK VINA RESULT:      -6.5      6.469      8.788
REMARK  Name = 
REMARK  7 active torsions:
REMARK  status: ('A' for Active; 'I' for Inactive)
REMARK    1  A    between atoms: C_2  and  C_3
REMARK    2  A    between atoms: C_3  and  O_4
REMARK    3  A    between atoms: O_4  and  C_5
REMARK    4  A    between atoms: N_13  and  C_14
REMARK    5  A    between atoms: C_14  and  C_15
REMARK    6  A    between atoms: C_15  and  S_16
REMARK    7  A    between atoms: S_16  and  C_17
REMARK                            x       y       z     vdW  Elec       q    Type
REMARK                         _______ _______ _______ _____ _____    ______ ____
ROOT
ATOM      1  O   UNL     1       6.663   8.049  17.077  0.00  0.00    +0.000 OA
ATOM      2  C   UNL     1       7.679   7.954  17.762  0.00  0.00    +0.000 C 
ATOM      3  N   UNL     1       7.948   6.857  18.555  0.00  0.00    +0.000 N 
ATOM      4  H   UNL     1       8.835   6.800  19.039  0.00  0.00    +0.000 HD
ENDROOT
BRANCH   2   5
ATOM      5  C   UNL     1       8.775   9.026  17.765  0.00  0.00    +0.000 C 
BRANCH   5   6
ATOM      6  O   UNL     1       8.666   9.888  18.891  0.00  0.00    +0.000 OA
BRANCH   6   7
ATOM      7  C   UNL     1       9.533  10.954  18.953  0.00  0.00    +0.000 A 
ATOM      8  C   UNL     1      10.274  11.431  17.864  0.00  0.00    +0.000 A 
ATOM      9  C   UNL     1      11.140  12.521  18.014  0.00  0.00    +0.000 A 
ATOM     10  C   UNL     1      11.272  13.144  19.251  0.00  0.00    +0.000 A 
ATOM     11 CL   UNL     1      12.332  14.488  19.420  0.00  0.00    +0.000 Cl
ATOM     12  C   UNL     1      10.551  12.684  20.348  0.00  0.00    +0.000 A 
ATOM     13  C   UNL     1       9.688  11.592  20.198  0.00  0.00    +0.000 A 
ATOM     14 CL   UNL     1       8.820  11.059  21.596  0.00  0.00    +0.000 Cl
ENDBRANCH   6   7
ENDBRANCH   5   6
ENDBRANCH   2   5
BRANCH   3  15
ATOM     15  C   UNL     1       7.069   5.700  18.619  0.00  0.00    +0.000 C 
BRANCH  15  16
ATOM     16  C   UNL     1       7.372   4.629  17.563  0.00  0.00    +0.000 C 
BRANCH  16  17
ATOM     17  S   UNL     1       6.032   4.546  16.311  0.00  0.00    +0.000 S 
BRANCH  17  18
ATOM     18  C   UNL     1       4.601   4.409  17.367  0.00  0.00    +0.000 A 
ATOM     19  C   UNL     1       4.353   3.255  18.119  0.00  0.00    +0.000 A 
ATOM     20  C   UNL     1       3.252   3.197  18.980  0.00  0.00    +0.000 A 
ATOM     21  C   UNL     1       2.402   4.294  19.095  0.00  0.00    +0.000 A 
ATOM     22 CL   UNL     1       1.054   4.228  20.162  0.00  0.00    +0.000 Cl
ATOM     23  C   UNL     1       2.643   5.451  18.358  0.00  0.00    +0.000 A 
ATOM     24  C   UNL     1       3.745   5.508  17.499  0.00  0.00    +0.000 A 
ENDBRANCH  17  18
ENDBRANCH  16  17
ENDBRANCH  15  16
ENDBRANCH   3  15
TORSDOF 7
ENDMDL
MODEL 7
REMARK VINA RESULT:      -6.4      6.277      8.430
REMARK  Name = 
REMARK  7 active torsions:
REMARK  status: ('A' for Active; 'I' for Inactive)
REMARK    1  A    between atoms: C_2  and  C_3
REMARK    2  A    between atoms: C_3  and  O_4
REMARK    3  A    between atoms: O_4  and  C_5
REMARK    4  A    between atoms: N_13  and  C_14
REMARK    5  A    between atoms: C_14  and  C_15
REMARK    6  A    between atoms: C_15  and  S_16
REMARK    7  A    between atoms: S_16  and  C_17
REMARK                            x       y       z     vdW  Elec       q    Type
REMARK                         _______ _______ _______ _____ _____    ______ ____
ROOT
ATOM      1  O   UNL     1       7.658   6.137  18.912  0.00  0.00    +0.000 OA
ATOM      2  C   UNL     1       7.366   6.568  17.798  0.00  0.00    +0.000 C 
ATOM      3  N   UNL     1       7.706   7.836  17.375  0.00  0.00    +0.000 N 
ATOM      4  H   UNL     1       7.505   8.111  16.421  0.00  0.00    +0.000 HD
ENDROOT
BRANCH   2   5
ATOM      5  C   UNL     1       6.635   5.720  16.751  0.00  0.00    +0.000 C 
BRANCH   5   6
ATOM      6  O   UNL     1       5.282   6.128  16.593  0.00  0.00    +0.000 OA
BRANCH   6   7
ATOM      7  C   UNL     1       4.309   5.274  17.059  0.00  0.00    +0.000 A 
ATOM      8  C   UNL     1       4.341   3.883  16.900  0.00  0.00    +0.000 A 
ATOM      9  C   UNL     1       3.306   3.085  17.402  0.00  0.00    +0.000 A 
ATOM     10  C   UNL     1       2.232   3.669  18.066  0.00  0.00    +0.000 A 
ATOM     11 CL   UNL     1       0.971   2.677  18.686  0.00  0.00    +0.000 Cl
ATOM     12  C   UNL     1       2.175   5.049  18.230  0.00  0.00    +0.000 A 
ATOM     13  C   UNL     1       3.209   5.846  17.725  0.00  0.00    +0.000 A 
ATOM     14 CL   UNL     1       3.086   7.557  17.953  0.00  0.00    +0.000 Cl
ENDBRANCH   6   7
ENDBRANCH   5   6
ENDBRANCH   2   5
BRANCH   3  15
ATOM     15  C   UNL     1       8.475   8.759  18.195  0.00  0.00    +0.000 C 
BRANCH  15  16
ATOM     16  C   UNL     1       8.253  10.236  17.845  0.00  0.00    +0.000 C 
BRANCH  16  17
ATOM     17  S   UNL     1       9.807  11.195  18.031  0.00  0.00    +0.000 S 
BRANCH  17  18
ATOM     18  C   UNL     1       9.456  12.106  19.524  0.00  0.00    +0.000 A 
ATOM     19  C   UNL     1       9.697  11.560  20.790  0.00  0.00    +0.000 A 
ATOM     20  C   UNL     1       9.463  12.318  21.941  0.00  0.00    +0.000 A 
ATOM     21  C   UNL     1       8.994  13.625  21.829  0.00  0.00    +0.000 A 
ATOM     22 CL   UNL     1       8.716  14.562  23.245  0.00  0.00    +0.000 Cl
ATOM     23  C   UNL     1       8.758  14.182  20.575  0.00  0.00    +0.000 A 
ATOM     24  C   UNL     1       8.994  13.423  19.424  0.00  0.00    +0.000 A 
ENDBRANCH  17  18
ENDBRANCH  16  17
ENDBRANCH  15  16
ENDBRANCH   3  15
TORSDOF 7
ENDMDL
MODEL 8
REMARK VINA RESULT:      -6.4      7.432      9.464
REMARK  Name = 
REMARK  7 active torsions:
REMARK  status: ('A' for Active; 'I' for Inactive)
REMARK    1  A    between atoms: C_2  and  C_3
REMARK    2  A    between atoms: C_3  and  O_4
REMARK    3  A    between atoms: O_4  and  C_5
REMARK    4  A    between atoms: N_13  and  C_14
REMARK    5  A    between atoms: C_14  and  C_15
REMARK    6  A    between atoms: C_15  and  S_16
REMARK    7  A    between atoms: S_16  and  C_17
REMARK                            x       y       z     vdW  Elec       q    Type
REMARK                         _______ _______ _______ _____ _____    ______ ____
ROOT
ATOM      1  O   UNL     1       9.015   8.966  19.334  0.00  0.00    +0.000 OA
ATOM      2  C   UNL     1       8.622   9.459  18.279  0.00  0.00    +0.000 C 
ATOM      3  N   UNL     1       7.884   8.751  17.352  0.00  0.00    +0.000 N 
ATOM      4  H   UNL     1       7.524   9.228  16.536  0.00  0.00    +0.000 HD
ENDROOT
BRANCH   2   5
ATOM      5  C   UNL     1       8.873  10.925  17.909  0.00  0.00    +0.000 C 
BRANCH   5   6
ATOM      6  O   UNL     1      10.262  11.220  17.837  0.00  0.00    +0.000 OA
BRANCH   6   7
ATOM      7  C   UNL     1      10.638  12.529  18.035  0.00  0.00    +0.000 A 
ATOM      8  C   UNL     1      10.771  13.474  17.009  0.00  0.00    +0.000 A 
ATOM      9  C   UNL     1      11.162  14.787  17.296  0.00  0.00    +0.000 A 
ATOM     10  C   UNL     1      11.425  15.167  18.609  0.00  0.00    +0.000 A 
ATOM     11 CL   UNL     1      11.898  16.785  18.949  0.00  0.00    +0.000 Cl
ATOM     12  C   UNL     1      11.306  14.245  19.642  0.00  0.00    +0.000 A 
ATOM     13  C   UNL     1      10.918  12.931  19.354  0.00  0.00    +0.000 A 
ATOM     14 CL   UNL     1      10.790  11.824  20.678  0.00  0.00    +0.000 Cl
ENDBRANCH   6   7
ENDBRANCH   5   6
ENDBRANCH   2   5
BRANCH   3  15
ATOM     15  C   UNL     1       7.473   7.371  17.563  0.00  0.00    +0.000 C 
BRANCH  15  16
ATOM     16  C   UNL     1       6.025   7.082  17.146  0.00  0.00    +0.000 C 
BRANCH  16  17
ATOM     17  S   UNL     1       5.795   5.301  16.769  0.00  0.00    +0.000 S 
BRANCH  17  18
ATOM     18  C   UNL     1       4.342   4.944  17.741  0.00  0.00    +0.000 A 
ATOM     19  C   UNL     1       3.368   4.041  17.299  0.00  0.00    +0.000 A 
ATOM     20  C   UNL     1       2.267   3.740  18.107  0.00  0.00    +0.000 A 
ATOM     21  C   UNL     1       2.140   4.335  19.360  0.00  0.00    +0.000 A 
ATOM     22 CL   UNL     1       0.792   3.956  20.358  0.00  0.00    +0.000 Cl
ATOM     23  C   UNL     1       3.107   5.229  19.814  0.00  0.00    +0.000 A 
ATOM     24  C   UNL     1       4.209   5.528  19.006  0.00  0.00    +0.000 A 
ENDBRANCH  17  18
ENDBRANCH  16  17
ENDBRANCH  15  16
ENDBRANCH   3  15
TORSDOF 7
ENDMDL
MODEL 9
REMARK VINA RESULT:      -6.4      2.020      2.523
REMARK  Name = 
REMARK  7 active torsions:
REMARK  status: ('A' for Active; 'I' for Inactive)
REMARK    1  A    between atoms: C_2  and  C_3
REMARK    2  A    between atoms: C_3  and  O_4
REMARK    3  A    between atoms: O_4  and  C_5
REMARK    4  A    between atoms: N_13  and  C_14
REMARK    5  A    between atoms: C_14  and  C_15
REMARK    6  A    between atoms: C_15  and  S_16
REMARK    7  A    between atoms: S_16  and  C_17
REMARK                            x       y       z     vdW  Elec       q    Type
REMARK                         _______ _______ _______ _____ _____    ______ ____
ROOT
ATOM      1  O   UNL     1       3.874   5.897  19.691  0.00  0.00    +0.000 OA
ATOM      2  C   UNL     1       3.209   5.733  18.671  0.00  0.00    +0.000 C 
ATOM      3  N   UNL     1       2.343   6.689  18.181  0.00  0.00    +0.000 N 
ATOM      4  H   UNL     1       1.878   6.530  17.296  0.00  0.00    +0.000 HD
ENDROOT
BRANCH   2   5
ATOM      5  C   UNL     1       3.313   4.467  17.813  0.00  0.00    +0.000 C 
BRANCH   5   6
ATOM      6  O   UNL     1       4.648   3.980  17.751  0.00  0.00    +0.000 OA
BRANCH   6   7
ATOM      7  C   UNL     1       5.365   4.255  16.610  0.00  0.00    +0.000 A 
ATOM      8  C   UNL     1       4.906   3.999  15.311  0.00  0.00    +0.000 A 
ATOM      9  C   UNL     1       5.702   4.305  14.201  0.00  0.00    +0.000 A 
ATOM     10  C   UNL     1       6.962   4.869  14.378  0.00  0.00    +0.000 A 
ATOM     11 CL   UNL     1       7.927   5.248  13.006  0.00  0.00    +0.000 Cl
ATOM     12  C   UNL     1       7.441   5.126  15.658  0.00  0.00    +0.000 A 
ATOM     13  C   UNL     1       6.646   4.816  16.768  0.00  0.00    +0.000 A 
ATOM     14 CL   UNL     1       7.293   5.152  18.336  0.00  0.00    +0.000 Cl
ENDBRANCH   6   7
ENDBRANCH   5   6
ENDBRANCH   2   5
BRANCH   3  15
ATOM     15  C   UNL     1       2.171   7.990  18.809  0.00  0.00    +0.000 C 
BRANCH  15  16
ATOM     16  C   UNL     1       1.681   9.083  17.851  0.00  0.00    +0.000 C 
BRANCH  16  17
ATOM     17  S   UNL     1       1.244  10.611  18.769  0.00  0.00    +0.000 S 
BRANCH  17  18
ATOM     18  C   UNL     1      -0.499  10.726  18.408  0.00  0.00    +0.000 A 
ATOM     19  C   UNL     1      -1.138   9.799  17.576  0.00  0.00    +0.000 A 
ATOM     20  C   UNL     1      -2.517   9.882  17.355  0.00  0.00    +0.000 A 
ATOM     21  C   UNL     1      -3.260  10.888  17.969  0.00  0.00    +0.000 A 
ATOM     22 CL   UNL     1      -4.957  10.984  17.705  0.00  0.00    +0.000 Cl
ATOM     23  C   UNL     1      -2.637  11.811  18.805  0.00  0.00    +0.000 A 
ATOM     24  C   UNL     1      -1.258  11.725  19.027  0.00  0.00    +0.000 A 
ENDBRANCH  17  18
ENDBRANCH  16  17
ENDBRANCH  15  16
ENDBRANCH   3  15
TORSDOF 7
ENDMDL
