MODEL 1
REMARK VINA RESULT:      -7.2      0.000      0.000
REMARK  Name = 
REMARK  4 active torsions:
REMARK  status: ('A' for Active; 'I' for Inactive)
REMARK    1  A    between atoms: P_2  and  O_3
REMARK    2  A    between atoms: P_2  and  O_4
REMARK    3  A    between atoms: P_2  and  C_5
REMARK    4  A    between atoms: C_7  and  O_8
REMARK                            x       y       z     vdW  Elec       q    Type
REMARK                         _______ _______ _______ _____ _____    ______ ____
ROOT
ATOM      1  C   UNL     1       6.144   4.661  16.992  0.00  0.00    +0.000 A 
ATOM      2  C   UNL     1       7.289   5.009  17.723  0.00  0.00    +0.000 A 
ATOM      3  C   UNL     1       7.161   5.232  19.073  0.00  0.00    +0.000 A 
ATOM      4  N   UNL     1       6.005   5.137  19.743  0.00  0.00    +0.000 NA
ATOM      5  C   UNL     1       4.908   4.776  19.063  0.00  0.00    +0.000 A 
ATOM      6  C   UNL     1       3.725   4.647  19.773  0.00  0.00    +0.000 A 
ATOM      7  C   UNL     1       2.550   4.241  19.148  0.00  0.00    +0.000 A 
ATOM      8 CL   UNL     1       1.105   4.070  20.066  0.00  0.00    +0.000 Cl
ATOM      9  C   UNL     1       2.537   3.965  17.788  0.00  0.00    +0.000 A 
ATOM     10  C   UNL     1       3.712   4.106  17.049  0.00  0.00    +0.000 A 
ATOM     11  C   UNL     1       4.913   4.513  17.673  0.00  0.00    +0.000 A 
ENDROOT
BRANCH   1  13
ATOM     12  O   UNL     1       6.301   4.112  13.663  0.00  0.00    +0.000 OA
ATOM     13  P   UNL     1       6.229   4.364  15.188  0.00  0.00    +0.000 P 
BRANCH  13  14
ATOM     14  O   UNL     1       7.836   4.708  15.237  0.00  0.00    +0.000 OA
ATOM     15  H   UNL     1       7.966   5.544  14.748  0.00  0.00    +0.000 HD
ENDBRANCH  13  14
BRANCH  13  16
ATOM     16  O   UNL     1       5.715   5.902  14.913  0.00  0.00    +0.000 OA
ATOM     17  H   UNL     1       5.531   5.966  13.954  0.00  0.00    +0.000 HD
ENDBRANCH  13  16
ENDBRANCH   1  13
BRANCH   3  18
ATOM     18  O   UNL     1       8.238   5.572  19.836  0.00  0.00    +0.000 OA
ATOM     19  H   UNL     1       8.055   5.304  20.748  0.00  0.00    +0.000 HD
ENDBRANCH   3  18
TORSDOF 4
ENDMDL
MODEL 2
REMARK VINA RESULT:      -6.6      2.298      3.082
REMARK  Name = 
REMARK  4 active torsions:
REMARK  status: ('A' for Active; 'I' for Inactive)
REMARK    1  A    between atoms: P_2  and  O_3
REMARK    2  A    between atoms: P_2  and  O_4
REMARK    3  A    between atoms: P_2  and  C_5
REMARK    4  A    between atoms: C_7  and  O_8
REMARK                            x       y       z     vdW  Elec       q    Type
REMARK                         _______ _______ _______ _____ _____    ______ ____
ROOT
ATOM      1  C   UNL     1       4.932   5.611  17.766  0.00  0.00    +0.000 A 
ATOM      2  C   UNL     1       4.466   6.859  17.329  0.00  0.00    +0.000 A 
ATOM      3  C   UNL     1       3.240   7.293  17.772  0.00  0.00    +0.000 A 
ATOM      4  N   UNL     1       2.453   6.596  18.602  0.00  0.00    +0.000 NA
ATOM      5  C   UNL     1       2.898   5.415  19.053  0.00  0.00    +0.000 A 
ATOM      6  C   UNL     1       2.091   4.718  19.938  0.00  0.00    +0.000 A 
ATOM      7  C   UNL     1       2.496   3.503  20.480  0.00  0.00    +0.000 A 
ATOM      8 CL   UNL     1       1.478   2.678  21.594  0.00  0.00    +0.000 Cl
ATOM      9  C   UNL     1       3.723   2.953  20.132  0.00  0.00    +0.000 A 
ATOM     10  C   UNL     1       4.544   3.627  19.228  0.00  0.00    +0.000 A 
ATOM     11  C   UNL     1       4.146   4.865  18.675  0.00  0.00    +0.000 A 
ENDROOT
BRANCH   1  13
ATOM     12  O   UNL     1       7.915   4.404  16.738  0.00  0.00    +0.000 OA
ATOM     13  P   UNL     1       6.548   4.957  17.209  0.00  0.00    +0.000 P 
BRANCH  13  14
ATOM     14  O   UNL     1       6.790   6.352  16.373  0.00  0.00    +0.000 OA
ATOM     15  H   UNL     1       5.909   6.694  16.122  0.00  0.00    +0.000 HD
ENDBRANCH  13  14
BRANCH  13  16
ATOM     16  O   UNL     1       5.795   4.139  15.996  0.00  0.00    +0.000 OA
ATOM     17  H   UNL     1       6.473   3.562  15.588  0.00  0.00    +0.000 HD
ENDBRANCH  13  16
ENDBRANCH   1  13
BRANCH   3  18
ATOM     18  O   UNL     1       2.735   8.497  17.382  0.00  0.00    +0.000 OA
ATOM     19  H   UNL     1       3.396   8.931  16.823  0.00  0.00    +0.000 HD
ENDBRANCH   3  18
TORSDOF 4
ENDMDL
MODEL 3
REMARK VINA RESULT:      -6.6      3.924      4.729
REMARK  Name = 
REMARK  4 active torsions:
REMARK  status: ('A' for Active; 'I' for Inactive)
REMARK    1  A    between atoms: P_2  and  O_3
REMARK    2  A    between atoms: P_2  and  O_4
REMARK    3  A    between atoms: P_2  and  C_5
REMARK    4  A    between atoms: C_7  and  O_8
REMARK                            x       y       z     vdW  Elec       q    Type
REMARK                         _______ _______ _______ _____ _____    ______ ____
ROOT
ATOM      1  C   UNL     1       4.843   4.059  17.817  0.00  0.00    +0.000 A 
ATOM      2  C   UNL     1       5.444   4.483  19.011  0.00  0.00    +0.000 A 
ATOM      3  C   UNL     1       6.685   5.070  18.947  0.00  0.00    +0.000 A 
ATOM      4  N   UNL     1       7.363   5.268  17.809  0.00  0.00    +0.000 NA
ATOM      5  C   UNL     1       6.788   4.896  16.657  0.00  0.00    +0.000 A 
ATOM      6  C   UNL     1       7.485   5.137  15.484  0.00  0.00    +0.000 A 
ATOM      7  C   UNL     1       6.942   4.814  14.244  0.00  0.00    +0.000 A 
ATOM      8 CL   UNL     1       7.827   5.149  12.807  0.00  0.00    +0.000 Cl
ATOM      9  C   UNL     1       5.686   4.229  14.158  0.00  0.00    +0.000 A 
ATOM     10  C   UNL     1       4.974   3.960  15.328  0.00  0.00    +0.000 A 
ATOM     11  C   UNL     1       5.513   4.288  16.592  0.00  0.00    +0.000 A 
ENDROOT
BRANCH   1  13
ATOM     12  O   UNL     1       1.809   2.573  17.823  0.00  0.00    +0.000 OA
ATOM     13  P   UNL     1       3.200   3.254  17.820  0.00  0.00    +0.000 P 
BRANCH  13  14
ATOM     14  O   UNL     1       3.030   3.674  19.401  0.00  0.00    +0.000 OA
ATOM     15  H   UNL     1       3.876   3.468  19.845  0.00  0.00    +0.000 HD
ENDBRANCH  13  14
BRANCH  13  16
ATOM     16  O   UNL     1       3.917   1.798  18.088  0.00  0.00    +0.000 OA
ATOM     17  H   UNL     1       4.674   1.967  18.685  0.00  0.00    +0.000 HD
ENDBRANCH  13  16
ENDBRANCH   1  13
BRANCH   3  18
ATOM     18  O   UNL     1       7.318   5.503  20.074  0.00  0.00    +0.000 OA
ATOM     19  H   UNL     1       7.701   6.372  19.886  0.00  0.00    +0.000 HD
ENDBRANCH   3  18
TORSDOF 4
ENDMDL
MODEL 4
REMARK VINA RESULT:      -6.6      3.004      3.754
REMARK  Name = 
REMARK  4 active torsions:
REMARK  status: ('A' for Active; 'I' for Inactive)
REMARK    1  A    between atoms: P_2  and  O_3
REMARK    2  A    between atoms: P_2  and  O_4
REMARK    3  A    between atoms: P_2  and  C_5
REMARK    4  A    between atoms: C_7  and  O_8
REMARK                            x       y       z     vdW  Elec       q    Type
REMARK                         _______ _______ _______ _____ _____    ______ ____
ROOT
ATOM      1  C   UNL     1       4.677   4.371  17.085  0.00  0.00    +0.000 A 
ATOM      2  C   UNL     1       4.085   3.111  17.251  0.00  0.00    +0.000 A 
ATOM      3  C   UNL     1       2.818   3.047  17.779  0.00  0.00    +0.000 A 
ATOM      4  N   UNL     1       2.104   4.118  18.148  0.00  0.00    +0.000 NA
ATOM      5  C   UNL     1       2.645   5.331  17.967  0.00  0.00    +0.000 A 
ATOM      6  C   UNL     1       1.883   6.434  18.321  0.00  0.00    +0.000 A 
ATOM      7  C   UNL     1       2.358   7.728  18.132  0.00  0.00    +0.000 A 
ATOM      8 CL   UNL     1       1.375   9.073  18.562  0.00  0.00    +0.000 Cl
ATOM      9  C   UNL     1       3.618   7.942  17.591  0.00  0.00    +0.000 A 
ATOM     10  C   UNL     1       4.410   6.847  17.244  0.00  0.00    +0.000 A 
ATOM     11  C   UNL     1       3.938   5.527  17.427  0.00  0.00    +0.000 A 
ENDROOT
BRANCH   1  13
ATOM     12  O   UNL     1       7.797   4.681  15.827  0.00  0.00    +0.000 OA
ATOM     13  P   UNL     1       6.367   4.539  16.404  0.00  0.00    +0.000 P 
BRANCH  13  14
ATOM     14  O   UNL     1       6.206   3.053  15.718  0.00  0.00    +0.000 OA
ATOM     15  H   UNL     1       6.827   3.016  14.964  0.00  0.00    +0.000 HD
ENDBRANCH  13  14
BRANCH  13  16
ATOM     16  O   UNL     1       6.992   4.020  17.834  0.00  0.00    +0.000 OA
ATOM     17  H   UNL     1       6.632   3.122  17.985  0.00  0.00    +0.000 HD
ENDBRANCH  13  16
ENDBRANCH   1  13
BRANCH   3  18
ATOM     18  O   UNL     1       2.191   1.851  17.961  0.00  0.00    +0.000 OA
ATOM     19  H   UNL     1       1.285   1.935  17.630  0.00  0.00    +0.000 HD
ENDBRANCH   3  18
TORSDOF 4
ENDMDL
MODEL 5
REMARK VINA RESULT:      -6.6      2.304      2.935
REMARK  Name = 
REMARK  4 active torsions:
REMARK  status: ('A' for Active; 'I' for Inactive)
REMARK    1  A    between atoms: P_2  and  O_3
REMARK    2  A    between atoms: P_2  and  O_4
REMARK    3  A    between atoms: P_2  and  C_5
REMARK    4  A    between atoms: C_7  and  O_8
REMARK                            x       y       z     vdW  Elec       q    Type
REMARK                         _______ _______ _______ _____ _____    ______ ____
ROOT
ATOM      1  C   UNL     1       4.842   5.699  17.029  0.00  0.00    +0.000 A 
ATOM      2  C   UNL     1       4.557   7.062  17.188  0.00  0.00    +0.000 A 
ATOM      3  C   UNL     1       3.330   7.420  17.694  0.00  0.00    +0.000 A 
ATOM      4  N   UNL     1       2.381   6.544  18.051  0.00  0.00    +0.000 NA
ATOM      5  C   UNL     1       2.651   5.237  17.933  0.00  0.00    +0.000 A 
ATOM      6  C   UNL     1       1.674   4.340  18.337  0.00  0.00    +0.000 A 
ATOM      7  C   UNL     1       1.890   2.967  18.280  0.00  0.00    +0.000 A 
ATOM      8 CL   UNL     1       0.664   1.884  18.812  0.00  0.00    +0.000 Cl
ATOM      9  C   UNL     1       3.093   2.464  17.804  0.00  0.00    +0.000 A 
ATOM     10  C   UNL     1       4.084   3.347  17.375  0.00  0.00    +0.000 A 
ATOM     11  C   UNL     1       3.879   4.744  17.431  0.00  0.00    +0.000 A 
ENDROOT
BRANCH   1  13
ATOM     12  O   UNL     1       7.803   4.672  15.769  0.00  0.00    +0.000 OA
ATOM     13  P   UNL     1       6.446   5.143  16.346  0.00  0.00    +0.000 P 
BRANCH  13  14
ATOM     14  O   UNL     1       7.087   6.604  16.742  0.00  0.00    +0.000 OA
ATOM     15  H   UNL     1       7.488   6.971  15.929  0.00  0.00    +0.000 HD
ENDBRANCH  13  14
BRANCH  13  16
ATOM     16  O   UNL     1       5.944   5.559  14.835  0.00  0.00    +0.000 OA
ATOM     17  H   UNL     1       6.703   5.399  14.237  0.00  0.00    +0.000 HD
ENDBRANCH  13  16
ENDBRANCH   1  13
BRANCH   3  18
ATOM     18  O   UNL     1       2.997   8.730  17.873  0.00  0.00    +0.000 OA
ATOM     19  H   UNL     1       3.542   9.260  17.275  0.00  0.00    +0.000 HD
ENDBRANCH   3  18
TORSDOF 4
ENDMDL
MODEL 6
REMARK VINA RESULT:      -6.6      2.879      3.326
REMARK  Name = 
REMARK  4 active torsions:
REMARK  status: ('A' for Active; 'I' for Inactive)
REMARK    1  A    between atoms: P_2  and  O_3
REMARK    2  A    between atoms: P_2  and  O_4
REMARK    3  A    between atoms: P_2  and  C_5
REMARK    4  A    between atoms: C_7  and  O_8
REMARK                            x       y       z     vdW  Elec       q    Type
REMARK                         _______ _______ _______ _____ _____    ______ ____
ROOT
ATOM      1  C   UNL     1       5.055   4.696  18.065  0.00  0.00    +0.000 A 
ATOM      2  C   UNL     1       4.867   3.570  18.879  0.00  0.00    +0.000 A 
ATOM      3  C   UNL     1       3.857   3.598  19.811  0.00  0.00    +0.000 A 
ATOM      4  N   UNL     1       3.033   4.637  19.994  0.00  0.00    +0.000 NA
ATOM      5  C   UNL     1       3.181   5.708  19.202  0.00  0.00    +0.000 A 
ATOM      6  C   UNL     1       2.300   6.764  19.378  0.00  0.00    +0.000 A 
ATOM      7  C   UNL     1       2.365   7.897  18.573  0.00  0.00    +0.000 A 
ATOM      8 CL   UNL     1       1.240   9.178  18.805  0.00  0.00    +0.000 Cl
ATOM      9  C   UNL     1       3.327   7.998  17.577  0.00  0.00    +0.000 A 
ATOM     10  C   UNL     1       4.236   6.956  17.394  0.00  0.00    +0.000 A 
ATOM     11  C   UNL     1       4.178   5.798  18.203  0.00  0.00    +0.000 A 
ENDROOT
BRANCH   1  13
ATOM     12  O   UNL     1       7.514   4.784  15.750  0.00  0.00    +0.000 OA
ATOM     13  P   UNL     1       6.387   4.744  16.811  0.00  0.00    +0.000 P 
BRANCH  13  14
ATOM     14  O   UNL     1       5.879   3.281  16.259  0.00  0.00    +0.000 OA
ATOM     15  H   UNL     1       5.245   3.452  15.535  0.00  0.00    +0.000 HD
ENDBRANCH  13  14
BRANCH  13  16
ATOM     16  O   UNL     1       7.452   4.165  17.924  0.00  0.00    +0.000 OA
ATOM     17  H   UNL     1       8.202   3.788  17.421  0.00  0.00    +0.000 HD
ENDBRANCH  13  16
ENDBRANCH   1  13
BRANCH   3  18
ATOM     18  O   UNL     1       3.625   2.532  20.629  0.00  0.00    +0.000 OA
ATOM     19  H   UNL     1       4.409   1.965  20.610  0.00  0.00    +0.000 HD
ENDBRANCH   3  18
TORSDOF 4
ENDMDL
MODEL 7
REMARK VINA RESULT:      -6.4      3.895      4.766
REMARK  Name = 
REMARK  4 active torsions:
REMARK  status: ('A' for Active; 'I' for Inactive)
REMARK    1  A    between atoms: P_2  and  O_3
REMARK    2  A    between atoms: P_2  and  O_4
REMARK    3  A    between atoms: P_2  and  C_5
REMARK    4  A    between atoms: C_7  and  O_8
REMARK                            x       y       z     vdW  Elec       q    Type
REMARK                         _______ _______ _______ _____ _____    ______ ____
ROOT
ATOM      1  C   UNL     1       5.534   4.654  18.043  0.00  0.00    +0.000 A 
ATOM      2  C   UNL     1       6.350   5.454  18.855  0.00  0.00    +0.000 A 
ATOM      3  C   UNL     1       7.445   6.061  18.288  0.00  0.00    +0.000 A 
ATOM      4  N   UNL     1       7.786   5.939  16.999  0.00  0.00    +0.000 NA
ATOM      5  C   UNL     1       6.999   5.202  16.203  0.00  0.00    +0.000 A 
ATOM      6  C   UNL     1       7.343   5.111  14.863  0.00  0.00    +0.000 A 
ATOM      7  C   UNL     1       6.558   4.395  13.965  0.00  0.00    +0.000 A 
ATOM      8 CL   UNL     1       7.004   4.324  12.305  0.00  0.00    +0.000 Cl
ATOM      9  C   UNL     1       5.411   3.744  14.398  0.00  0.00    +0.000 A 
ATOM     10  C   UNL     1       5.055   3.806  15.746  0.00  0.00    +0.000 A 
ATOM     11  C   UNL     1       5.841   4.534  16.667  0.00  0.00    +0.000 A 
ENDROOT
BRANCH   1  13
ATOM     12  O   UNL     1       2.827   3.077  19.305  0.00  0.00    +0.000 OA
ATOM     13  P   UNL     1       4.067   3.800  18.727  0.00  0.00    +0.000 P 
BRANCH  13  14
ATOM     14  O   UNL     1       3.911   5.012  19.826  0.00  0.00    +0.000 OA
ATOM     15  H   UNL     1       4.711   5.569  19.755  0.00  0.00    +0.000 HD
ENDBRANCH  13  14
BRANCH  13  16
ATOM     16  O   UNL     1       5.051   2.845  19.637  0.00  0.00    +0.000 OA
ATOM     17  H   UNL     1       4.535   2.589  20.428  0.00  0.00    +0.000 HD
ENDBRANCH  13  16
ENDBRANCH   1  13
BRANCH   3  18
ATOM     18  O   UNL     1       8.274   6.851  19.027  0.00  0.00    +0.000 OA
ATOM     19  H   UNL     1       8.733   7.450  18.422  0.00  0.00    +0.000 HD
ENDBRANCH   3  18
TORSDOF 4
ENDMDL
MODEL 8
REMARK VINA RESULT:      -6.4      3.565      4.188
REMARK  Name = 
REMARK  4 active torsions:
REMARK  status: ('A' for Active; 'I' for Inactive)
REMARK    1  A    between atoms: P_2  and  O_3
REMARK    2  A    between atoms: P_2  and  O_4
REMARK    3  A    between atoms: P_2  and  C_5
REMARK    4  A    between atoms: C_7  and  O_8
REMARK                            x       y       z     vdW  Elec       q    Type
REMARK                         _______ _______ _______ _____ _____    ______ ____
ROOT
ATOM      1  C   UNL     1       3.581   4.307  18.934  0.00  0.00    +0.000 A 
ATOM      2  C   UNL     1       3.321   3.335  19.910  0.00  0.00    +0.000 A 
ATOM      3  C   UNL     1       2.547   3.683  20.991  0.00  0.00    +0.000 A 
ATOM      4  N   UNL     1       2.019   4.900  21.175  0.00  0.00    +0.000 NA
ATOM      5  C   UNL     1       2.234   5.831  20.235  0.00  0.00    +0.000 A 
ATOM      6  C   UNL     1       1.655   7.077  20.420  0.00  0.00    +0.000 A 
ATOM      7  C   UNL     1       1.800   8.086  19.473  0.00  0.00    +0.000 A 
ATOM      8 CL   UNL     1       1.047   9.612  19.725  0.00  0.00    +0.000 Cl
ATOM      9  C   UNL     1       2.544   7.867  18.321  0.00  0.00    +0.000 A 
ATOM     10  C   UNL     1       3.152   6.627  18.123  0.00  0.00    +0.000 A 
ATOM     11  C   UNL     1       3.008   5.592  19.075  0.00  0.00    +0.000 A 
ENDROOT
BRANCH   1  13
ATOM     12  O   UNL     1       5.491   3.604  16.238  0.00  0.00    +0.000 OA
ATOM     13  P   UNL     1       4.616   3.926  17.473  0.00  0.00    +0.000 P 
BRANCH  13  14
ATOM     14  O   UNL     1       4.202   2.343  17.631  0.00  0.00    +0.000 OA
ATOM     15  H   UNL     1       5.006   1.817  17.450  0.00  0.00    +0.000 HD
ENDBRANCH  13  14
BRANCH  13  16
ATOM     16  O   UNL     1       5.949   3.870  18.436  0.00  0.00    +0.000 OA
ATOM     17  H   UNL     1       6.482   3.109  18.128  0.00  0.00    +0.000 HD
ENDBRANCH  13  16
ENDBRANCH   1  13
BRANCH   3  18
ATOM     18  O   UNL     1       2.258   2.780  21.971  0.00  0.00    +0.000 OA
ATOM     19  H   UNL     1       2.878   2.924  22.700  0.00  0.00    +0.000 HD
ENDBRANCH   3  18
TORSDOF 4
ENDMDL
MODEL 9
REMARK VINA RESULT:      -6.3      4.345      5.263
REMARK  Name = 
REMARK  4 active torsions:
REMARK  status: ('A' for Active; 'I' for Inactive)
REMARK    1  A    between atoms: P_2  and  O_3
REMARK    2  A    between atoms: P_2  and  O_4
REMARK    3  A    between atoms: P_2  and  C_5
REMARK    4  A    between atoms: C_7  and  O_8
REMARK                            x       y       z     vdW  Elec       q    Type
REMARK                         _______ _______ _______ _____ _____    ______ ____
ROOT
ATOM      1  C   UNL     1       3.154   4.019  19.534  0.00  0.00    +0.000 A 
ATOM      2  C   UNL     1       4.015   3.277  18.713  0.00  0.00    +0.000 A 
ATOM      3  C   UNL     1       4.539   3.883  17.596  0.00  0.00    +0.000 A 
ATOM      4  N   UNL     1       4.280   5.147  17.238  0.00  0.00    +0.000 NA
ATOM      5  C   UNL     1       3.483   5.878  18.029  0.00  0.00    +0.000 A 
ATOM      6  C   UNL     1       3.250   7.196  17.667  0.00  0.00    +0.000 A 
ATOM      7  C   UNL     1       2.464   8.031  18.454  0.00  0.00    +0.000 A 
ATOM      8 CL   UNL     1       2.216   9.667  17.984  0.00  0.00    +0.000 Cl
ATOM      9  C   UNL     1       1.883   7.555  19.621  0.00  0.00    +0.000 A 
ATOM     10  C   UNL     1       2.089   6.227  19.997  0.00  0.00    +0.000 A 
ATOM     11  C   UNL     1       2.889   5.370  19.208  0.00  0.00    +0.000 A 
ENDROOT
BRANCH   1  13
ATOM     12  O   UNL     1       1.768   2.652  22.295  0.00  0.00    +0.000 OA
ATOM     13  P   UNL     1       2.403   3.278  21.030  0.00  0.00    +0.000 P 
BRANCH  13  14
ATOM     14  O   UNL     1       3.755   2.361  21.217  0.00  0.00    +0.000 OA
ATOM     15  H   UNL     1       3.541   1.666  21.870  0.00  0.00    +0.000 HD
ENDBRANCH  13  14
BRANCH  13  16
ATOM     16  O   UNL     1       1.580   2.211  20.085  0.00  0.00    +0.000 OA
ATOM     17  H   UNL     1       2.001   2.242  19.201  0.00  0.00    +0.000 HD
ENDBRANCH  13  16
ENDBRANCH   1  13
BRANCH   3  18
ATOM     18  O   UNL     1       5.382   3.213  16.762  0.00  0.00    +0.000 OA
ATOM     19  H   UNL     1       5.691   3.834  16.087  0.00  0.00    +0.000 HD
ENDBRANCH   3  18
TORSDOF 4
ENDMDL
