MODEL 1
REMARK VINA RESULT:      -5.9      0.000      0.000
REMARK  Name = 
REMARK  4 active torsions:
REMARK  status: ('A' for Active; 'I' for Inactive)
REMARK    1  A    between atoms: C_1  and  C_2
REMARK    2  A    between atoms: C_7  and  O_8
REMARK    3  A    between atoms: C_9  and  C_10
REMARK    4  A    between atoms: C_10  and  O_11
REMARK                            x       y       z     vdW  Elec       q    Type
REMARK                         _______ _______ _______ _____ _____    ______ ____
ROOT
ATOM      1  C   UNL     1       7.597   7.288  17.477  0.00  0.00    +0.000 C 
ATOM      2  C   UNL     1       6.416   6.397  17.716  0.00  0.00    +0.000 A 
ATOM      3  C   UNL     1       6.450   5.489  18.778  0.00  0.00    +0.000 A 
ATOM      4  C   UNL     1       5.326   4.722  18.972  0.00  0.00    +0.000 A 
ATOM      5  C   UNL     1       4.100   5.031  18.396  0.00  0.00    +0.000 A 
ATOM      6  C   UNL     1       4.100   5.770  17.234  0.00  0.00    +0.000 A 
ATOM      7  C   UNL     1       5.294   6.389  16.867  0.00  0.00    +0.000 A 
ATOM      8  C   UNL     1       3.119   4.153  19.090  0.00  0.00    +0.000 C 
ATOM      9  C   UNL     1       4.028   2.937  19.029  0.00  0.00    +0.000 C 
ATOM     10  O   UNL     1       5.296   3.471  19.569  0.00  0.00    +0.000 OA
ENDROOT
BRANCH   7  11
ATOM     11  O   UNL     1       5.410   6.859  15.590  0.00  0.00    +0.000 OA
ATOM     12  H   UNL     1       6.373   7.023  15.460  0.00  0.00    +0.000 HD
ENDBRANCH   7  11
BRANCH   8  13
ATOM     13  C   UNL     1       1.652   4.088  18.730  0.00  0.00    +0.000 C 
BRANCH  13  14
ATOM     14  O   UNL     1       1.393   3.656  17.410  0.00  0.00    +0.000 OA
ATOM     15  H   UNL     1       1.029   2.754  17.492  0.00  0.00    +0.000 HD
ENDBRANCH  13  14
ENDBRANCH   8  13
TORSDOF 3
ENDMDL
MODEL 2
REMARK VINA RESULT:      -5.9      1.627      4.513
REMARK  Name = 
REMARK  4 active torsions:
REMARK  status: ('A' for Active; 'I' for Inactive)
REMARK    1  A    between atoms: C_1  and  C_2
REMARK    2  A    between atoms: C_7  and  O_8
REMARK    3  A    between atoms: C_9  and  C_10
REMARK    4  A    between atoms: C_10  and  O_11
REMARK                            x       y       z     vdW  Elec       q    Type
REMARK                         _______ _______ _______ _____ _____    ______ ____
ROOT
ATOM      1  C   UNL     1       1.754   2.285  19.804  0.00  0.00    +0.000 C 
ATOM      2  C   UNL     1       2.798   3.017  19.016  0.00  0.00    +0.000 A 
ATOM      3  C   UNL     1       4.077   3.176  19.559  0.00  0.00    +0.000 A 
ATOM      4  C   UNL     1       5.004   3.824  18.779  0.00  0.00    +0.000 A 
ATOM      5  C   UNL     1       4.829   4.020  17.415  0.00  0.00    +0.000 A 
ATOM      6  C   UNL     1       3.542   4.053  16.927  0.00  0.00    +0.000 A 
ATOM      7  C   UNL     1       2.524   3.616  17.773  0.00  0.00    +0.000 A 
ATOM      8  C   UNL     1       6.159   4.468  16.920  0.00  0.00    +0.000 C 
ATOM      9  C   UNL     1       6.381   5.407  18.092  0.00  0.00    +0.000 C 
ATOM     10  O   UNL     1       6.102   4.530  19.249  0.00  0.00    +0.000 OA
ENDROOT
BRANCH   7  11
ATOM     11  O   UNL     1       1.235   3.921  17.441  0.00  0.00    +0.000 OA
ATOM     12  H   UNL     1       0.977   3.257  16.761  0.00  0.00    +0.000 HD
ENDBRANCH   7  11
BRANCH   8  13
ATOM     13  C   UNL     1       6.425   4.880  15.489  0.00  0.00    +0.000 C 
BRANCH  13  14
ATOM     14  O   UNL     1       7.690   5.471  15.276  0.00  0.00    +0.000 OA
ATOM     15  H   UNL     1       8.035   5.070  14.456  0.00  0.00    +0.000 HD
ENDBRANCH  13  14
ENDBRANCH   8  13
TORSDOF 3
ENDMDL
MODEL 3
REMARK VINA RESULT:      -5.9      1.944      4.803
REMARK  Name = 
REMARK  4 active torsions:
REMARK  status: ('A' for Active; 'I' for Inactive)
REMARK    1  A    between atoms: C_1  and  C_2
REMARK    2  A    between atoms: C_7  and  O_8
REMARK    3  A    between atoms: C_9  and  C_10
REMARK    4  A    between atoms: C_10  and  O_11
REMARK                            x       y       z     vdW  Elec       q    Type
REMARK                         _______ _______ _______ _____ _____    ______ ____
ROOT
ATOM      1  C   UNL     1       1.058   3.656  19.620  0.00  0.00    +0.000 C 
ATOM      2  C   UNL     1       2.206   4.016  18.726  0.00  0.00    +0.000 A 
ATOM      3  C   UNL     1       2.688   5.328  18.728  0.00  0.00    +0.000 A 
ATOM      4  C   UNL     1       3.764   5.593  17.914  0.00  0.00    +0.000 A 
ATOM      5  C   UNL     1       4.559   4.590  17.375  0.00  0.00    +0.000 A 
ATOM      6  C   UNL     1       3.999   3.344  17.201  0.00  0.00    +0.000 A 
ATOM      7  C   UNL     1       2.777   3.098  17.826  0.00  0.00    +0.000 A 
ATOM      8  C   UNL     1       5.751   5.297  16.833  0.00  0.00    +0.000 C 
ATOM      9  C   UNL     1       4.924   6.418  16.228  0.00  0.00    +0.000 C 
ATOM     10  O   UNL     1       4.076   6.828  17.367  0.00  0.00    +0.000 OA
ENDROOT
BRANCH   7  11
ATOM     11  O   UNL     1       2.059   2.006  17.429  0.00  0.00    +0.000 OA
ATOM     12  H   UNL     1       2.585   1.599  16.702  0.00  0.00    +0.000 HD
ENDBRANCH   7  11
BRANCH   8  13
ATOM     13  C   UNL     1       6.861   4.607  16.073  0.00  0.00    +0.000 C 
BRANCH  13  14
ATOM     14  O   UNL     1       7.616   5.460  15.237  0.00  0.00    +0.000 OA
ATOM     15  H   UNL     1       7.163   6.324  15.262  0.00  0.00    +0.000 HD
ENDBRANCH  13  14
ENDBRANCH   8  13
TORSDOF 3
ENDMDL
MODEL 4
REMARK VINA RESULT:      -5.8      2.174      3.881
REMARK  Name = 
REMARK  4 active torsions:
REMARK  status: ('A' for Active; 'I' for Inactive)
REMARK    1  A    between atoms: C_1  and  C_2
REMARK    2  A    between atoms: C_7  and  O_8
REMARK    3  A    between atoms: C_9  and  C_10
REMARK    4  A    between atoms: C_10  and  O_11
REMARK                            x       y       z     vdW  Elec       q    Type
REMARK                         _______ _______ _______ _____ _____    ______ ____
ROOT
ATOM      1  C   UNL     1       2.398   6.394  19.901  0.00  0.00    +0.000 C 
ATOM      2  C   UNL     1       3.525   6.050  18.975  0.00  0.00    +0.000 A 
ATOM      3  C   UNL     1       4.463   5.090  19.369  0.00  0.00    +0.000 A 
ATOM      4  C   UNL     1       5.455   4.789  18.466  0.00  0.00    +0.000 A 
ATOM      5  C   UNL     1       5.374   5.133  17.122  0.00  0.00    +0.000 A 
ATOM      6  C   UNL     1       4.589   6.210  16.777  0.00  0.00    +0.000 A 
ATOM      7  C   UNL     1       3.719   6.706  17.747  0.00  0.00    +0.000 A 
ATOM      8  C   UNL     1       6.472   4.372  16.467  0.00  0.00    +0.000 C 
ATOM      9  C   UNL     1       7.469   4.683  17.569  0.00  0.00    +0.000 C 
ATOM     10  O   UNL     1       6.716   4.307  18.784  0.00  0.00    +0.000 OA
ENDROOT
BRANCH   7  11
ATOM     11  O   UNL     1       3.166   7.939  17.546  0.00  0.00    +0.000 OA
ATOM     12  H   UNL     1       2.273   7.894  17.959  0.00  0.00    +0.000 HD
ENDBRANCH   7  11
BRANCH   8  13
ATOM     13  C   UNL     1       6.819   4.498  15.000  0.00  0.00    +0.000 C 
BRANCH  13  14
ATOM     14  O   UNL     1       7.699   5.561  14.698  0.00  0.00    +0.000 OA
ATOM     15  H   UNL     1       7.534   5.784  13.762  0.00  0.00    +0.000 HD
ENDBRANCH  13  14
ENDBRANCH   8  13
TORSDOF 3
ENDMDL
MODEL 5
REMARK VINA RESULT:      -5.8      2.104      2.662
REMARK  Name = 
REMARK  4 active torsions:
REMARK  status: ('A' for Active; 'I' for Inactive)
REMARK    1  A    between atoms: C_1  and  C_2
REMARK    2  A    between atoms: C_7  and  O_8
REMARK    3  A    between atoms: C_9  and  C_10
REMARK    4  A    between atoms: C_10  and  O_11
REMARK                            x       y       z     vdW  Elec       q    Type
REMARK                         _______ _______ _______ _____ _____    ______ ____
ROOT
ATOM      1  C   UNL     1       5.378   6.292  15.900  0.00  0.00    +0.000 C 
ATOM      2  C   UNL     1       4.490   5.620  16.904  0.00  0.00    +0.000 A 
ATOM      3  C   UNL     1       3.726   6.405  17.773  0.00  0.00    +0.000 A 
ATOM      4  C   UNL     1       2.904   5.736  18.649  0.00  0.00    +0.000 A 
ATOM      5  C   UNL     1       2.569   4.398  18.487  0.00  0.00    +0.000 A 
ATOM      6  C   UNL     1       3.439   3.594  17.786  0.00  0.00    +0.000 A 
ATOM      7  C   UNL     1       4.446   4.222  17.056  0.00  0.00    +0.000 A 
ATOM      8  C   UNL     1       1.452   4.166  19.444  0.00  0.00    +0.000 C 
ATOM      9  C   UNL     1       2.124   4.950  20.558  0.00  0.00    +0.000 C 
ATOM     10  O   UNL     1       2.476   6.214  19.878  0.00  0.00    +0.000 OA
ENDROOT
BRANCH   7  11
ATOM     11  O   UNL     1       5.491   3.462  16.613  0.00  0.00    +0.000 OA
ATOM     12  H   UNL     1       5.140   2.543  16.560  0.00  0.00    +0.000 HD
ENDBRANCH   7  11
BRANCH   8  13
ATOM     13  C   UNL     1       0.814   2.814  19.674  0.00  0.00    +0.000 C 
BRANCH  13  14
ATOM     14  O   UNL     1       0.287   2.211  18.511  0.00  0.00    +0.000 OA
ATOM     15  H   UNL     1      -0.257   1.463  18.823  0.00  0.00    +0.000 HD
ENDBRANCH  13  14
ENDBRANCH   8  13
TORSDOF 3
ENDMDL
MODEL 6
REMARK VINA RESULT:      -5.8      2.165      3.030
REMARK  Name = 
REMARK  4 active torsions:
REMARK  status: ('A' for Active; 'I' for Inactive)
REMARK    1  A    between atoms: C_1  and  C_2
REMARK    2  A    between atoms: C_7  and  O_8
REMARK    3  A    between atoms: C_9  and  C_10
REMARK    4  A    between atoms: C_10  and  O_11
REMARK                            x       y       z     vdW  Elec       q    Type
REMARK                         _______ _______ _______ _____ _____    ______ ____
ROOT
ATOM      1  C   UNL     1       4.960   6.421  16.477  0.00  0.00    +0.000 C 
ATOM      2  C   UNL     1       4.037   5.591  17.316  0.00  0.00    +0.000 A 
ATOM      3  C   UNL     1       3.966   4.212  17.095  0.00  0.00    +0.000 A 
ATOM      4  C   UNL     1       3.129   3.496  17.916  0.00  0.00    +0.000 A 
ATOM      5  C   UNL     1       2.633   4.007  19.109  0.00  0.00    +0.000 A 
ATOM      6  C   UNL     1       2.531   5.375  19.234  0.00  0.00    +0.000 A 
ATOM      7  C   UNL     1       3.180   6.155  18.279  0.00  0.00    +0.000 A 
ATOM      8  C   UNL     1       2.044   2.834  19.811  0.00  0.00    +0.000 C 
ATOM      9  C   UNL     1       1.389   2.295  18.552  0.00  0.00    +0.000 C 
ATOM     10  O   UNL     1       2.514   2.295  17.593  0.00  0.00    +0.000 OA
ENDROOT
BRANCH   7  11
ATOM     11  O   UNL     1       2.847   7.477  18.193  0.00  0.00    +0.000 OA
ATOM     12  H   UNL     1       3.697   7.967  18.292  0.00  0.00    +0.000 HD
ENDBRANCH   7  11
BRANCH   8  13
ATOM     13  C   UNL     1       1.309   2.930  21.129  0.00  0.00    +0.000 C 
BRANCH  13  14
ATOM     14  O   UNL     1       2.145   3.126  22.252  0.00  0.00    +0.000 OA
ATOM     15  H   UNL     1       2.092   4.079  22.459  0.00  0.00    +0.000 HD
ENDBRANCH  13  14
ENDBRANCH   8  13
TORSDOF 3
ENDMDL
MODEL 7
REMARK VINA RESULT:      -5.8      3.179      4.038
REMARK  Name = 
REMARK  4 active torsions:
REMARK  status: ('A' for Active; 'I' for Inactive)
REMARK    1  A    between atoms: C_1  and  C_2
REMARK    2  A    between atoms: C_7  and  O_8
REMARK    3  A    between atoms: C_9  and  C_10
REMARK    4  A    between atoms: C_10  and  O_11
REMARK                            x       y       z     vdW  Elec       q    Type
REMARK                         _______ _______ _______ _____ _____    ______ ____
ROOT
ATOM      1  C   UNL     1       3.244   7.895  17.741  0.00  0.00    +0.000 C 
ATOM      2  C   UNL     1       2.670   6.695  18.430  0.00  0.00    +0.000 A 
ATOM      3  C   UNL     1       2.445   5.528  17.694  0.00  0.00    +0.000 A 
ATOM      4  C   UNL     1       1.950   4.447  18.385  0.00  0.00    +0.000 A 
ATOM      5  C   UNL     1       1.980   4.367  19.772  0.00  0.00    +0.000 A 
ATOM      6  C   UNL     1       2.007   5.544  20.486  0.00  0.00    +0.000 A 
ATOM      7  C   UNL     1       2.281   6.715  19.782  0.00  0.00    +0.000 A 
ATOM      8  C   UNL     1       1.642   2.951  20.080  0.00  0.00    +0.000 C 
ATOM      9  C   UNL     1       0.526   2.898  19.051  0.00  0.00    +0.000 C 
ATOM     10  O   UNL     1       1.194   3.419  17.841  0.00  0.00    +0.000 OA
ENDROOT
BRANCH   7  11
ATOM     11  O   UNL     1       2.013   7.909  20.389  0.00  0.00    +0.000 OA
ATOM     12  H   UNL     1       2.860   8.181  20.814  0.00  0.00    +0.000 HD
ENDBRANCH   7  11
BRANCH   8  13
ATOM     13  C   UNL     1       1.477   2.416  21.484  0.00  0.00    +0.000 C 
BRANCH  13  14
ATOM     14  O   UNL     1       2.586   2.640  22.329  0.00  0.00    +0.000 OA
ATOM     15  H   UNL     1       2.521   1.970  23.036  0.00  0.00    +0.000 HD
ENDBRANCH  13  14
ENDBRANCH   8  13
TORSDOF 3
ENDMDL
MODEL 8
REMARK VINA RESULT:      -5.8      1.845      4.647
REMARK  Name = 
REMARK  4 active torsions:
REMARK  status: ('A' for Active; 'I' for Inactive)
REMARK    1  A    between atoms: C_1  and  C_2
REMARK    2  A    between atoms: C_7  and  O_8
REMARK    3  A    between atoms: C_9  and  C_10
REMARK    4  A    between atoms: C_10  and  O_11
REMARK                            x       y       z     vdW  Elec       q    Type
REMARK                         _______ _______ _______ _____ _____    ______ ____
ROOT
ATOM      1  C   UNL     1       1.647   4.232  17.688  0.00  0.00    +0.000 C 
ATOM      2  C   UNL     1       3.105   4.480  17.933  0.00  0.00    +0.000 A 
ATOM      3  C   UNL     1       3.987   4.491  16.848  0.00  0.00    +0.000 A 
ATOM      4  C   UNL     1       5.306   4.757  17.126  0.00  0.00    +0.000 A 
ATOM      5  C   UNL     1       5.719   5.317  18.329  0.00  0.00    +0.000 A 
ATOM      6  C   UNL     1       4.923   5.127  19.437  0.00  0.00    +0.000 A 
ATOM      7  C   UNL     1       3.637   4.634  19.226  0.00  0.00    +0.000 A 
ATOM      8  C   UNL     1       7.136   5.711  18.100  0.00  0.00    +0.000 C 
ATOM      9  C   UNL     1       7.473   4.420  17.375  0.00  0.00    +0.000 C 
ATOM     10  O   UNL     1       6.391   4.336  16.372  0.00  0.00    +0.000 OA
ENDROOT
BRANCH   7  11
ATOM     11  O   UNL     1       2.948   4.150  20.301  0.00  0.00    +0.000 OA
ATOM     12  H   UNL     1       2.718   4.942  20.841  0.00  0.00    +0.000 HD
ENDBRANCH   7  11
BRANCH   8  13
ATOM     13  C   UNL     1       8.026   6.295  19.174  0.00  0.00    +0.000 C 
BRANCH  13  14
ATOM     14  O   UNL     1       8.106   5.520  20.352  0.00  0.00    +0.000 OA
ATOM     15  H   UNL     1       7.975   4.595  20.071  0.00  0.00    +0.000 HD
ENDBRANCH  13  14
ENDBRANCH   8  13
TORSDOF 3
ENDMDL
MODEL 9
REMARK VINA RESULT:      -5.8      2.063      3.151
REMARK  Name = 
REMARK  4 active torsions:
REMARK  status: ('A' for Active; 'I' for Inactive)
REMARK    1  A    between atoms: C_1  and  C_2
REMARK    2  A    between atoms: C_7  and  O_8
REMARK    3  A    between atoms: C_9  and  C_10
REMARK    4  A    between atoms: C_10  and  O_11
REMARK                            x       y       z     vdW  Elec       q    Type
REMARK                         _______ _______ _______ _____ _____    ______ ____
ROOT
ATOM      1  C   UNL     1       5.648   5.983  16.405  0.00  0.00    +0.000 C 
ATOM      2  C   UNL     1       4.747   5.532  17.514  0.00  0.00    +0.000 A 
ATOM      3  C   UNL     1       3.622   6.298  17.835  0.00  0.00    +0.000 A 
ATOM      4  C   UNL     1       2.812   5.819  18.837  0.00  0.00    +0.000 A 
ATOM      5  C   UNL     1       2.878   4.507  19.289  0.00  0.00    +0.000 A 
ATOM      6  C   UNL     1       4.066   3.829  19.135  0.00  0.00    +0.000 A 
ATOM      7  C   UNL     1       5.025   4.397  18.298  0.00  0.00    +0.000 A 
ATOM      8  C   UNL     1       1.661   4.332  20.129  0.00  0.00    +0.000 C 
ATOM      9  C   UNL     1       1.824   5.682  20.805  0.00  0.00    +0.000 C 
ATOM     10  O   UNL     1       1.995   6.589  19.651  0.00  0.00    +0.000 OA
ENDROOT
BRANCH   7  11
ATOM     11  O   UNL     1       6.303   3.922  18.366  0.00  0.00    +0.000 OA
ATOM     12  H   UNL     1       6.214   2.941  18.412  0.00  0.00    +0.000 HD
ENDBRANCH   7  11
BRANCH   8  13
ATOM     13  C   UNL     1       1.353   3.069  20.902  0.00  0.00    +0.000 C 
BRANCH  13  14
ATOM     14  O   UNL     1       1.994   2.981  22.158  0.00  0.00    +0.000 OA
ATOM     15  H   UNL     1       1.469   2.345  22.679  0.00  0.00    +0.000 HD
ENDBRANCH  13  14
ENDBRANCH   8  13
TORSDOF 3
ENDMDL
