MODEL 1
REMARK VINA RESULT:      -8.8      0.000      0.000
REMARK  Name = 
REMARK  8 active torsions:
REMARK  status: ('A' for Active; 'I' for Inactive)
REMARK    1  A    between atoms: C_1  and  O_2
REMARK    2  A    between atoms: O_2  and  C_3
REMARK    3  A    between atoms: C_4  and  C_5
REMARK    4  A    between atoms: C_5  and  C_7
REMARK    5  A    between atoms: C_7  and  C_8
REMARK    6  A    between atoms: C_8  and  C_9
REMARK    7  A    between atoms: N_12  and  C_13
REMARK    8  A    between atoms: C_13  and  C_14
REMARK                            x       y       z     vdW  Elec       q    Type
REMARK                         _______ _______ _______ _____ _____    ______ ____
ROOT
ATOM      1  C   UNL     1       8.050   9.149  17.698  0.00  0.00    +0.000 C 
ENDROOT
BRANCH   1   2
ATOM      2  C   UNL     1       8.863  10.133  18.517  0.00  0.00    +0.000 C 
ATOM      3  O   UNL     1       9.350   9.817  19.609  0.00  0.00    +0.000 OA
BRANCH   2   5
ATOM      4  C   UNL     1      10.284  12.169  17.928  0.00  0.00    +0.000 A 
ATOM      5  C   UNL     1       9.014  11.523  17.998  0.00  0.00    +0.000 A 
ATOM      6  C   UNL     1       7.837  12.247  17.724  0.00  0.00    +0.000 A 
ATOM      7  C   UNL     1       7.865  13.596  17.437  0.00  0.00    +0.000 A 
ATOM      8  C   UNL     1       9.111  14.229  17.444  0.00  0.00    +0.000 A 
ATOM      9  N   UNL     1       9.395  15.571  17.294  0.00  0.00    +0.000 N 
ATOM     10  C   UNL     1      10.725  15.790  17.412  0.00  0.00    +0.000 A 
ATOM     11  C   UNL     1      11.335  14.562  17.560  0.00  0.00    +0.000 A 
ATOM     12  C   UNL     1      10.313  13.558  17.649  0.00  0.00    +0.000 A 
ATOM     13  H   UNL     1       8.697  16.289  17.173  0.00  0.00    +0.000 HD
BRANCH   4  15
ATOM     14  C   UNL     1      12.159  11.686  19.287  0.00  0.00    +0.000 C 
ATOM     15  O   UNL     1      11.411  11.378  18.116  0.00  0.00    +0.000 OA
ENDBRANCH   4  15
ENDBRANCH   2   5
ENDBRANCH   1   2
BRANCH   1  16
ATOM     16  C   UNL     1       8.106   7.711  18.247  0.00  0.00    +0.000 C 
BRANCH  16  17
ATOM     17  C   UNL     1       7.399   6.707  17.304  0.00  0.00    +0.000 C 
ATOM     18  C   UNL     1       5.928   7.054  16.948  0.00  0.00    +0.000 C 
ATOM     19  C   UNL     1       4.873   6.650  18.013  0.00  0.00    +0.000 C 
ATOM     20  N   UNL     1       5.123   5.287  18.516  0.00  0.00    +0.000 NA
ATOM     21  C   UNL     1       6.465   5.274  19.112  0.00  0.00    +0.000 C 
ATOM     22  C   UNL     1       7.415   5.307  17.927  0.00  0.00    +0.000 C 
BRANCH  20  23
ATOM     23  C   UNL     1       4.122   4.722  19.440  0.00  0.00    +0.000 C 
BRANCH  23  24
ATOM     24  C   UNL     1       2.657   5.099  19.092  0.00  0.00    +0.000 C 
ATOM     25  C   UNL     1       2.112   4.402  17.837  0.00  0.00    +0.000 C 
ATOM     26  C   UNL     1       1.805   2.925  18.063  0.00  0.00    +0.000 C 
ATOM     27  C   UNL     1       0.788   2.708  19.173  0.00  0.00    +0.000 C 
ATOM     28  C   UNL     1       1.021   3.536  20.434  0.00  0.00    +0.000 C 
ATOM     29  C   UNL     1       1.649   4.918  20.241  0.00  0.00    +0.000 C 
ENDBRANCH  23  24
ENDBRANCH  20  23
ENDBRANCH  16  17
ENDBRANCH   1  16
TORSDOF 7
ENDMDL
MODEL 2
REMARK VINA RESULT:      -8.4      1.316      1.740
REMARK  Name = 
REMARK  8 active torsions:
REMARK  status: ('A' for Active; 'I' for Inactive)
REMARK    1  A    between atoms: C_1  and  O_2
REMARK    2  A    between atoms: O_2  and  C_3
REMARK    3  A    between atoms: C_4  and  C_5
REMARK    4  A    between atoms: C_5  and  C_7
REMARK    5  A    between atoms: C_7  and  C_8
REMARK    6  A    between atoms: C_8  and  C_9
REMARK    7  A    between atoms: N_12  and  C_13
REMARK    8  A    between atoms: C_13  and  C_14
REMARK                            x       y       z     vdW  Elec       q    Type
REMARK                         _______ _______ _______ _____ _____    ______ ____
ROOT
ATOM      1  C   UNL     1       8.525   9.568  18.094  0.00  0.00    +0.000 C 
ENDROOT
BRANCH   1   2
ATOM      2  C   UNL     1       9.236  10.480  19.075  0.00  0.00    +0.000 C 
ATOM      3  O   UNL     1       9.233  10.248  20.290  0.00  0.00    +0.000 OA
BRANCH   2   5
ATOM      4  C   UNL     1       9.352  13.009  18.758  0.00  0.00    +0.000 A 
ATOM      5  C   UNL     1       9.895  11.707  18.543  0.00  0.00    +0.000 A 
ATOM      6  C   UNL     1      10.995  11.534  17.681  0.00  0.00    +0.000 A 
ATOM      7  C   UNL     1      11.541  12.590  16.981  0.00  0.00    +0.000 A 
ATOM      8  C   UNL     1      10.951  13.845  17.147  0.00  0.00    +0.000 A 
ATOM      9  N   UNL     1      11.238  15.024  16.490  0.00  0.00    +0.000 N 
ATOM     10  C   UNL     1      10.408  16.010  16.900  0.00  0.00    +0.000 A 
ATOM     11  C   UNL     1       9.614  15.492  17.902  0.00  0.00    +0.000 A 
ATOM     12  C   UNL     1       9.902  14.091  18.028  0.00  0.00    +0.000 A 
ATOM     13  H   UNL     1      11.934  15.116  15.765  0.00  0.00    +0.000 HD
BRANCH   4  15
ATOM     14  C   UNL     1       8.730  13.686  20.938  0.00  0.00    +0.000 C 
ATOM     15  O   UNL     1       8.330  13.126  19.692  0.00  0.00    +0.000 OA
ENDBRANCH   4  15
ENDBRANCH   2   5
ENDBRANCH   1   2
BRANCH   1  16
ATOM     16  C   UNL     1       8.181   8.189  18.686  0.00  0.00    +0.000 C 
BRANCH  16  17
ATOM     17  C   UNL     1       7.748   7.183  17.591  0.00  0.00    +0.000 C 
ATOM     18  C   UNL     1       6.330   7.415  17.002  0.00  0.00    +0.000 C 
ATOM     19  C   UNL     1       5.157   6.851  17.850  0.00  0.00    +0.000 C 
ATOM     20  N   UNL     1       5.455   5.489  18.328  0.00  0.00    +0.000 NA
ATOM     21  C   UNL     1       6.673   5.563  19.145  0.00  0.00    +0.000 C 
ATOM     22  C   UNL     1       7.800   5.756  18.145  0.00  0.00    +0.000 C 
BRANCH  20  23
ATOM     23  C   UNL     1       4.376   4.779  19.039  0.00  0.00    +0.000 C 
BRANCH  23  24
ATOM     24  C   UNL     1       3.017   4.784  18.290  0.00  0.00    +0.000 C 
ATOM     25  C   UNL     1       2.857   3.644  17.273  0.00  0.00    +0.000 C 
ATOM     26  C   UNL     1       2.626   2.288  17.931  0.00  0.00    +0.000 C 
ATOM     27  C   UNL     1       1.388   2.276  18.814  0.00  0.00    +0.000 C 
ATOM     28  C   UNL     1       1.234   3.489  19.728  0.00  0.00    +0.000 C 
ATOM     29  C   UNL     1       1.774   4.819  19.199  0.00  0.00    +0.000 C 
ENDBRANCH  23  24
ENDBRANCH  20  23
ENDBRANCH  16  17
ENDBRANCH   1  16
TORSDOF 7
ENDMDL
MODEL 3
REMARK VINA RESULT:      -8.0      1.448      2.147
REMARK  Name = 
REMARK  8 active torsions:
REMARK  status: ('A' for Active; 'I' for Inactive)
REMARK    1  A    between atoms: C_1  and  O_2
REMARK    2  A    between atoms: O_2  and  C_3
REMARK    3  A    between atoms: C_4  and  C_5
REMARK    4  A    between atoms: C_5  and  C_7
REMARK    5  A    between atoms: C_7  and  C_8
REMARK    6  A    between atoms: C_8  and  C_9
REMARK    7  A    between atoms: N_12  and  C_13
REMARK    8  A    between atoms: C_13  and  C_14
REMARK                            x       y       z     vdW  Elec       q    Type
REMARK                         _______ _______ _______ _____ _____    ______ ____
ROOT
ATOM      1  C   UNL     1       8.574   9.567  18.194  0.00  0.00    +0.000 C 
ENDROOT
BRANCH   1   2
ATOM      2  C   UNL     1       9.239  10.525  19.164  0.00  0.00    +0.000 C 
ATOM      3  O   UNL     1       9.174  10.354  20.387  0.00  0.00    +0.000 OA
BRANCH   2   5
ATOM      4  C   UNL     1       9.431  13.044  18.809  0.00  0.00    +0.000 A 
ATOM      5  C   UNL     1       9.929  11.723  18.606  0.00  0.00    +0.000 A 
ATOM      6  C   UNL     1      11.011  11.503  17.731  0.00  0.00    +0.000 A 
ATOM      7  C   UNL     1      11.581  12.531  17.009  0.00  0.00    +0.000 A 
ATOM      8  C   UNL     1      11.033  13.807  17.165  0.00  0.00    +0.000 A 
ATOM      9  N   UNL     1      11.348  14.967  16.488  0.00  0.00    +0.000 N 
ATOM     10  C   UNL     1      10.556  15.984  16.895  0.00  0.00    +0.000 A 
ATOM     11  C   UNL     1       9.760  15.506  17.915  0.00  0.00    +0.000 A 
ATOM     12  C   UNL     1      10.005  14.098  18.057  0.00  0.00    +0.000 A 
ATOM     13  H   UNL     1      12.037  15.026  15.752  0.00  0.00    +0.000 HD
BRANCH   4  15
ATOM     14  C   UNL     1       8.857  13.790  20.980  0.00  0.00    +0.000 C 
ATOM     15  O   UNL     1       8.426  13.207  19.756  0.00  0.00    +0.000 OA
ENDBRANCH   4  15
ENDBRANCH   2   5
ENDBRANCH   1   2
BRANCH   1  16
ATOM     16  C   UNL     1       8.240   8.201  18.823  0.00  0.00    +0.000 C 
BRANCH  16  17
ATOM     17  C   UNL     1       7.863   7.150  17.749  0.00  0.00    +0.000 C 
ATOM     18  C   UNL     1       6.528   7.416  17.002  0.00  0.00    +0.000 C 
ATOM     19  C   UNL     1       5.244   6.971  17.753  0.00  0.00    +0.000 C 
ATOM     20  N   UNL     1       5.412   5.628  18.340  0.00  0.00    +0.000 NA
ATOM     21  C   UNL     1       6.542   5.692  19.276  0.00  0.00    +0.000 C 
ATOM     22  C   UNL     1       7.775   5.761  18.390  0.00  0.00    +0.000 C 
BRANCH  20  23
ATOM     23  C   UNL     1       4.227   5.023  18.975  0.00  0.00    +0.000 C 
BRANCH  23  24
ATOM     24  C   UNL     1       4.322   3.484  19.151  0.00  0.00    +0.000 C 
ATOM     25  C   UNL     1       3.609   2.952  20.403  0.00  0.00    +0.000 C 
ATOM     26  C   UNL     1       2.089   2.964  20.272  0.00  0.00    +0.000 C 
ATOM     27  C   UNL     1       1.603   2.134  19.093  0.00  0.00    +0.000 C 
ATOM     28  C   UNL     1       2.380   2.338  17.795  0.00  0.00    +0.000 C 
ATOM     29  C   UNL     1       3.870   2.660  17.931  0.00  0.00    +0.000 C 
ENDBRANCH  23  24
ENDBRANCH  20  23
ENDBRANCH  16  17
ENDBRANCH   1  16
TORSDOF 7
ENDMDL
MODEL 4
REMARK VINA RESULT:      -7.9      5.602      8.541
REMARK  Name = 
REMARK  8 active torsions:
REMARK  status: ('A' for Active; 'I' for Inactive)
REMARK    1  A    between atoms: C_1  and  O_2
REMARK    2  A    between atoms: O_2  and  C_3
REMARK    3  A    between atoms: C_4  and  C_5
REMARK    4  A    between atoms: C_5  and  C_7
REMARK    5  A    between atoms: C_7  and  C_8
REMARK    6  A    between atoms: C_8  and  C_9
REMARK    7  A    between atoms: N_12  and  C_13
REMARK    8  A    between atoms: C_13  and  C_14
REMARK                            x       y       z     vdW  Elec       q    Type
REMARK                         _______ _______ _______ _____ _____    ______ ____
ROOT
ATOM      1  C   UNL     1       1.612   4.155  18.226  0.00  0.00    +0.000 C 
ENDROOT
BRANCH   1   2
ATOM      2  C   UNL     1       2.681   3.298  17.575  0.00  0.00    +0.000 C 
ATOM      3  O   UNL     1       2.429   2.163  17.151  0.00  0.00    +0.000 OA
BRANCH   2   5
ATOM      4  C   UNL     1       4.828   4.112  18.687  0.00  0.00    +0.000 A 
ATOM      5  C   UNL     1       4.070   3.835  17.511  0.00  0.00    +0.000 A 
ATOM      6  C   UNL     1       4.564   4.214  16.247  0.00  0.00    +0.000 A 
ATOM      7  C   UNL     1       5.750   4.906  16.109  0.00  0.00    +0.000 A 
ATOM      8  C   UNL     1       6.443   5.232  17.277  0.00  0.00    +0.000 A 
ATOM      9  N   UNL     1       7.582   5.998  17.416  0.00  0.00    +0.000 N 
ATOM     10  C   UNL     1       7.915   6.123  18.721  0.00  0.00    +0.000 A 
ATOM     11  C   UNL     1       7.026   5.359  19.448  0.00  0.00    +0.000 A 
ATOM     12  C   UNL     1       6.038   4.835  18.549  0.00  0.00    +0.000 A 
ATOM     13  H   UNL     1       8.061   6.448  16.649  0.00  0.00    +0.000 HD
BRANCH   4  15
ATOM     14  C   UNL     1       4.585   2.246  20.122  0.00  0.00    +0.000 C 
ATOM     15  O   UNL     1       4.332   3.628  19.892  0.00  0.00    +0.000 OA
ENDBRANCH   4  15
ENDBRANCH   2   5
ENDBRANCH   1   2
BRANCH   1  16
ATOM     16  C   UNL     1       1.631   5.617  17.745  0.00  0.00    +0.000 C 
BRANCH  16  17
ATOM     17  C   UNL     1       2.677   6.463  18.513  0.00  0.00    +0.000 C 
ATOM     18  C   UNL     1       2.287   6.836  19.969  0.00  0.00    +0.000 C 
ATOM     19  C   UNL     1       1.335   8.054  20.113  0.00  0.00    +0.000 C 
ATOM     20  N   UNL     1       1.762   9.165  19.243  0.00  0.00    +0.000 NA
ATOM     21  C   UNL     1       1.742   8.676  17.858  0.00  0.00    +0.000 C 
ATOM     22  C   UNL     1       2.954   7.764  17.752  0.00  0.00    +0.000 C 
BRANCH  20  23
ATOM     23  C   UNL     1       1.025  10.436  19.371  0.00  0.00    +0.000 C 
BRANCH  23  24
ATOM     24  C   UNL     1      -0.440  10.269  19.857  0.00  0.00    +0.000 C 
ATOM     25  C   UNL     1      -0.769  11.055  21.135  0.00  0.00    +0.000 C 
ATOM     26  C   UNL     1      -0.892  12.556  20.896  0.00  0.00    +0.000 C 
ATOM     27  C   UNL     1      -1.967  12.893  19.874  0.00  0.00    +0.000 C 
ATOM     28  C   UNL     1      -1.964  12.022  18.620  0.00  0.00    +0.000 C 
ATOM     29  C   UNL     1      -1.515  10.569  18.796  0.00  0.00    +0.000 C 
ENDBRANCH  23  24
ENDBRANCH  20  23
ENDBRANCH  16  17
ENDBRANCH   1  16
TORSDOF 7
ENDMDL
MODEL 5
REMARK VINA RESULT:      -7.8      6.291      8.121
REMARK  Name = 
REMARK  8 active torsions:
REMARK  status: ('A' for Active; 'I' for Inactive)
REMARK    1  A    between atoms: C_1  and  O_2
REMARK    2  A    between atoms: O_2  and  C_3
REMARK    3  A    between atoms: C_4  and  C_5
REMARK    4  A    between atoms: C_5  and  C_7
REMARK    5  A    between atoms: C_7  and  C_8
REMARK    6  A    between atoms: C_8  and  C_9
REMARK    7  A    between atoms: N_12  and  C_13
REMARK    8  A    between atoms: C_13  and  C_14
REMARK                            x       y       z     vdW  Elec       q    Type
REMARK                         _______ _______ _______ _____ _____    ______ ____
ROOT
ATOM      1  C   UNL     1       1.409   8.753  17.808  0.00  0.00    +0.000 C 
ENDROOT
BRANCH   1   2
ATOM      2  C   UNL     1       1.447  10.077  18.545  0.00  0.00    +0.000 C 
ATOM      3  O   UNL     1       2.210  10.987  18.198  0.00  0.00    +0.000 OA
BRANCH   2   5
ATOM      4  C   UNL     1      -0.484  11.190  19.787  0.00  0.00    +0.000 A 
ATOM      5  C   UNL     1       0.579  10.239  19.746  0.00  0.00    +0.000 A 
ATOM      6  C   UNL     1       0.938   9.531  20.910  0.00  0.00    +0.000 A 
ATOM      7  C   UNL     1       0.324   9.769  22.122  0.00  0.00    +0.000 A 
ATOM      8  C   UNL     1      -0.665  10.755  22.159  0.00  0.00    +0.000 A 
ATOM      9  N   UNL     1      -1.347  11.248  23.253  0.00  0.00    +0.000 N 
ATOM     10  C   UNL     1      -2.192  12.236  22.879  0.00  0.00    +0.000 A 
ATOM     11  C   UNL     1      -2.125  12.340  21.506  0.00  0.00    +0.000 A 
ATOM     12  C   UNL     1      -1.105  11.446  21.034  0.00  0.00    +0.000 A 
ATOM     13  H   UNL     1      -1.190  10.948  24.204  0.00  0.00    +0.000 HD
BRANCH   4  15
ATOM     14  C   UNL     1      -0.498  13.158  18.474  0.00  0.00    +0.000 C 
ATOM     15  O   UNL     1      -0.852  11.784  18.585  0.00  0.00    +0.000 OA
ENDBRANCH   4  15
ENDBRANCH   2   5
ENDBRANCH   1   2
BRANCH   1  16
ATOM     16  C   UNL     1       2.804   8.240  17.406  0.00  0.00    +0.000 C 
BRANCH  16  17
ATOM     17  C   UNL     1       3.378   7.252  18.452  0.00  0.00    +0.000 C 
ATOM     18  C   UNL     1       4.554   6.369  17.954  0.00  0.00    +0.000 C 
ATOM     19  C   UNL     1       4.145   5.116  17.133  0.00  0.00    +0.000 C 
ATOM     20  N   UNL     1       3.018   4.410  17.770  0.00  0.00    +0.000 NA
ATOM     21  C   UNL     1       1.892   5.349  17.844  0.00  0.00    +0.000 C 
ATOM     22  C   UNL     1       2.268   6.320  18.951  0.00  0.00    +0.000 C 
BRANCH  20  23
ATOM     23  C   UNL     1       2.607   3.128  17.169  0.00  0.00    +0.000 C 
BRANCH  23  24
ATOM     24  C   UNL     1       2.419   1.980  18.197  0.00  0.00    +0.000 C 
ATOM     25  C   UNL     1       3.626   1.765  19.122  0.00  0.00    +0.000 C 
ATOM     26  C   UNL     1       3.765   2.853  20.181  0.00  0.00    +0.000 C 
ATOM     27  C   UNL     1       2.534   2.959  21.069  0.00  0.00    +0.000 C 
ATOM     28  C   UNL     1       1.199   2.922  20.329  0.00  0.00    +0.000 C 
ATOM     29  C   UNL     1       1.144   2.077  19.054  0.00  0.00    +0.000 C 
ENDBRANCH  23  24
ENDBRANCH  20  23
ENDBRANCH  16  17
ENDBRANCH   1  16
TORSDOF 7
ENDMDL
MODEL 6
REMARK VINA RESULT:      -7.7      1.594      2.264
REMARK  Name = 
REMARK  8 active torsions:
REMARK  status: ('A' for Active; 'I' for Inactive)
REMARK    1  A    between atoms: C_1  and  O_2
REMARK    2  A    between atoms: O_2  and  C_3
REMARK    3  A    between atoms: C_4  and  C_5
REMARK    4  A    between atoms: C_5  and  C_7
REMARK    5  A    between atoms: C_7  and  C_8
REMARK    6  A    between atoms: C_8  and  C_9
REMARK    7  A    between atoms: N_12  and  C_13
REMARK    8  A    between atoms: C_13  and  C_14
REMARK                            x       y       z     vdW  Elec       q    Type
REMARK                         _______ _______ _______ _____ _____    ______ ____
ROOT
ATOM      1  C   UNL     1       8.464   8.600  18.412  0.00  0.00    +0.000 C 
ENDROOT
BRANCH   1   2
ATOM      2  C   UNL     1       8.226  10.046  18.019  0.00  0.00    +0.000 C 
ATOM      3  O   UNL     1       7.334  10.359  17.221  0.00  0.00    +0.000 OA
BRANCH   2   5
ATOM      4  C   UNL     1       9.210  12.399  18.026  0.00  0.00    +0.000 A 
ATOM      5  C   UNL     1       9.139  11.085  18.575  0.00  0.00    +0.000 A 
ATOM      6  C   UNL     1      10.054  10.684  19.569  0.00  0.00    +0.000 A 
ATOM      7  C   UNL     1      11.069  11.515  19.998  0.00  0.00    +0.000 A 
ATOM      8  C   UNL     1      11.168  12.772  19.397  0.00  0.00    +0.000 A 
ATOM      9  N   UNL     1      12.142  13.734  19.570  0.00  0.00    +0.000 N 
ATOM     10  C   UNL     1      11.908  14.797  18.768  0.00  0.00    +0.000 A 
ATOM     11  C   UNL     1      10.716  14.566  18.114  0.00  0.00    +0.000 A 
ATOM     12  C   UNL     1      10.261  13.247  18.454  0.00  0.00    +0.000 A 
ATOM     13  H   UNL     1      12.946  13.626  20.172  0.00  0.00    +0.000 HD
BRANCH   4  15
ATOM     14  C   UNL     1       7.345  13.786  17.582  0.00  0.00    +0.000 C 
ATOM     15  O   UNL     1       8.222  12.765  17.119  0.00  0.00    +0.000 OA
ENDBRANCH   4  15
ENDBRANCH   2   5
ENDBRANCH   1   2
BRANCH   1  16
ATOM     16  C   UNL     1       7.445   7.627  17.792  0.00  0.00    +0.000 C 
BRANCH  16  17
ATOM     17  C   UNL     1       7.912   6.154  17.906  0.00  0.00    +0.000 C 
ATOM     18  C   UNL     1       7.281   5.178  16.877  0.00  0.00    +0.000 C 
ATOM     19  C   UNL     1       5.863   4.657  17.237  0.00  0.00    +0.000 C 
ATOM     20  N   UNL     1       5.789   4.256  18.654  0.00  0.00    +0.000 NA
ATOM     21  C   UNL     1       6.109   5.437  19.465  0.00  0.00    +0.000 C 
ATOM     22  C   UNL     1       7.610   5.619  19.310  0.00  0.00    +0.000 C 
BRANCH  20  23
ATOM     23  C   UNL     1       4.537   3.620  19.104  0.00  0.00    +0.000 C 
BRANCH  23  24
ATOM     24  C   UNL     1       3.252   4.310  18.573  0.00  0.00    +0.000 C 
ATOM     25  C   UNL     1       2.343   3.389  17.746  0.00  0.00    +0.000 C 
ATOM     26  C   UNL     1       1.590   2.375  18.600  0.00  0.00    +0.000 C 
ATOM     27  C   UNL     1       0.716   3.039  19.653  0.00  0.00    +0.000 C 
ATOM     28  C   UNL     1       1.379   4.182  20.416  0.00  0.00    +0.000 C 
ATOM     29  C   UNL     1       2.404   5.018  19.645  0.00  0.00    +0.000 C 
ENDBRANCH  23  24
ENDBRANCH  20  23
ENDBRANCH  16  17
ENDBRANCH   1  16
TORSDOF 7
ENDMDL
MODEL 7
REMARK VINA RESULT:      -7.6      6.223      8.097
REMARK  Name = 
REMARK  8 active torsions:
REMARK  status: ('A' for Active; 'I' for Inactive)
REMARK    1  A    between atoms: C_1  and  O_2
REMARK    2  A    between atoms: O_2  and  C_3
REMARK    3  A    between atoms: C_4  and  C_5
REMARK    4  A    between atoms: C_5  and  C_7
REMARK    5  A    between atoms: C_7  and  C_8
REMARK    6  A    between atoms: C_8  and  C_9
REMARK    7  A    between atoms: N_12  and  C_13
REMARK    8  A    between atoms: C_13  and  C_14
REMARK                            x       y       z     vdW  Elec       q    Type
REMARK                         _______ _______ _______ _____ _____    ______ ____
ROOT
ATOM      1  C   UNL     1       1.876   5.415  20.912  0.00  0.00    +0.000 C 
ENDROOT
BRANCH   1   2
ATOM      2  C   UNL     1       2.721   6.313  20.030  0.00  0.00    +0.000 C 
ATOM      3  O   UNL     1       3.897   6.034  19.762  0.00  0.00    +0.000 OA
BRANCH   2   5
ATOM      4  C   UNL     1       1.288   8.398  20.363  0.00  0.00    +0.000 A 
ATOM      5  C   UNL     1       2.117   7.583  19.535  0.00  0.00    +0.000 A 
ATOM      6  C   UNL     1       2.258   7.883  18.166  0.00  0.00    +0.000 A 
ATOM      7  C   UNL     1       1.568   8.921  17.575  0.00  0.00    +0.000 A 
ATOM      8  C   UNL     1       0.705   9.662  18.386  0.00  0.00    +0.000 A 
ATOM      9  N   UNL     1      -0.164  10.669  18.020  0.00  0.00    +0.000 N 
ATOM     10  C   UNL     1      -0.865  11.103  19.093  0.00  0.00    +0.000 A 
ATOM     11  C   UNL     1      -0.392  10.427  20.197  0.00  0.00    +0.000 A 
ATOM     12  C   UNL     1       0.567   9.454  19.755  0.00  0.00    +0.000 A 
ATOM     13  H   UNL     1      -0.295  10.992  17.073  0.00  0.00    +0.000 HD
BRANCH   4  15
ATOM     14  C   UNL     1       1.553   9.216  22.567  0.00  0.00    +0.000 C 
ATOM     15  O   UNL     1       1.266   8.107  21.723  0.00  0.00    +0.000 OA
ENDBRANCH   4  15
ENDBRANCH   2   5
ENDBRANCH   1   2
BRANCH   1  16
ATOM     16  C   UNL     1       0.738   4.713  20.149  0.00  0.00    +0.000 C 
BRANCH  16  17
ATOM     17  C   UNL     1       1.052   3.217  19.895  0.00  0.00    +0.000 C 
ATOM     18  C   UNL     1       2.411   2.721  20.458  0.00  0.00    +0.000 C 
ATOM     19  C   UNL     1       3.650   3.033  19.577  0.00  0.00    +0.000 C 
ATOM     20  N   UNL     1       3.379   2.736  18.158  0.00  0.00    +0.000 NA
ATOM     21  C   UNL     1       2.246   3.570  17.740  0.00  0.00    +0.000 C 
ATOM     22  C   UNL     1       1.031   2.929  18.391  0.00  0.00    +0.000 C 
BRANCH  20  23
ATOM     23  C   UNL     1       4.511   2.863  17.220  0.00  0.00    +0.000 C 
BRANCH  23  24
ATOM     24  C   UNL     1       4.682   4.287  16.627  0.00  0.00    +0.000 C 
ATOM     25  C   UNL     1       5.790   5.115  17.293  0.00  0.00    +0.000 C 
ATOM     26  C   UNL     1       7.191   4.654  16.906  0.00  0.00    +0.000 C 
ATOM     27  C   UNL     1       7.428   4.717  15.405  0.00  0.00    +0.000 C 
ATOM     28  C   UNL     1       6.291   4.168  14.548  0.00  0.00    +0.000 C 
ATOM     29  C   UNL     1       4.873   4.336  15.100  0.00  0.00    +0.000 C 
ENDBRANCH  23  24
ENDBRANCH  20  23
ENDBRANCH  16  17
ENDBRANCH   1  16
TORSDOF 7
ENDMDL
MODEL 8
REMARK VINA RESULT:      -7.6      6.227      9.054
REMARK  Name = 
REMARK  8 active torsions:
REMARK  status: ('A' for Active; 'I' for Inactive)
REMARK    1  A    between atoms: C_1  and  O_2
REMARK    2  A    between atoms: O_2  and  C_3
REMARK    3  A    between atoms: C_4  and  C_5
REMARK    4  A    between atoms: C_5  and  C_7
REMARK    5  A    between atoms: C_7  and  C_8
REMARK    6  A    between atoms: C_8  and  C_9
REMARK    7  A    between atoms: N_12  and  C_13
REMARK    8  A    between atoms: C_13  and  C_14
REMARK                            x       y       z     vdW  Elec       q    Type
REMARK                         _______ _______ _______ _____ _____    ______ ____
ROOT
ATOM      1  C   UNL     1       2.389   6.001  20.173  0.00  0.00    +0.000 C 
ENDROOT
BRANCH   1   2
ATOM      2  C   UNL     1       2.244   5.202  18.892  0.00  0.00    +0.000 C 
ATOM      3  O   UNL     1       1.330   4.383  18.742  0.00  0.00    +0.000 OA
BRANCH   2   5
ATOM      4  C   UNL     1       3.814   4.283  17.103  0.00  0.00    +0.000 A 
ATOM      5  C   UNL     1       3.274   5.386  17.829  0.00  0.00    +0.000 A 
ATOM      6  C   UNL     1       3.820   6.674  17.666  0.00  0.00    +0.000 A 
ATOM      7  C   UNL     1       4.914   6.901  16.857  0.00  0.00    +0.000 A 
ATOM      8  C   UNL     1       5.476   5.797  16.210  0.00  0.00    +0.000 A 
ATOM      9  N   UNL     1       6.619   5.741  15.441  0.00  0.00    +0.000 N 
ATOM     10  C   UNL     1       6.855   4.473  15.032  0.00  0.00    +0.000 A 
ATOM     11  C   UNL     1       5.805   3.695  15.473  0.00  0.00    +0.000 A 
ATOM     12  C   UNL     1       4.947   4.511  16.284  0.00  0.00    +0.000 A 
ATOM     13  H   UNL     1       7.222   6.530  15.260  0.00  0.00    +0.000 HD
BRANCH   4  15
ATOM     14  C   UNL     1       3.816   2.144  18.115  0.00  0.00    +0.000 C 
ATOM     15  O   UNL     1       3.170   3.057  17.235  0.00  0.00    +0.000 OA
ENDBRANCH   4  15
ENDBRANCH   2   5
ENDBRANCH   1   2
BRANCH   1  16
ATOM     16  C   UNL     1       1.207   6.953  20.432  0.00  0.00    +0.000 C 
BRANCH  16  17
ATOM     17  C   UNL     1       1.661   8.432  20.496  0.00  0.00    +0.000 C 
ATOM     18  C   UNL     1       0.711   9.384  21.272  0.00  0.00    +0.000 C 
ATOM     19  C   UNL     1      -0.518   9.895  20.472  0.00  0.00    +0.000 C 
ATOM     20  N   UNL     1      -0.128  10.319  19.115  0.00  0.00    +0.000 NA
ATOM     21  C   UNL     1       0.460   9.156  18.439  0.00  0.00    +0.000 C 
ATOM     22  C   UNL     1       1.829   8.987  19.078  0.00  0.00    +0.000 C 
BRANCH  20  23
ATOM     23  C   UNL     1      -1.172  10.948  18.285  0.00  0.00    +0.000 C 
BRANCH  23  24
ATOM     24  C   UNL     1      -2.206   9.946  17.705  0.00  0.00    +0.000 C 
ATOM     25  C   UNL     1      -3.653  10.214  18.143  0.00  0.00    +0.000 C 
ATOM     26  C   UNL     1      -4.267  11.430  17.458  0.00  0.00    +0.000 C 
ATOM     27  C   UNL     1      -4.276  11.298  15.943  0.00  0.00    +0.000 C 
ATOM     28  C   UNL     1      -2.977  10.780  15.331  0.00  0.00    +0.000 C 
ATOM     29  C   UNL     1      -2.170   9.790  16.173  0.00  0.00    +0.000 C 
ENDBRANCH  23  24
ENDBRANCH  20  23
ENDBRANCH  16  17
ENDBRANCH   1  16
TORSDOF 7
ENDMDL
MODEL 9
REMARK VINA RESULT:      -7.6      7.448     10.385
REMARK  Name = 
REMARK  8 active torsions:
REMARK  status: ('A' for Active; 'I' for Inactive)
REMARK    1  A    between atoms: C_1  and  O_2
REMARK    2  A    between atoms: O_2  and  C_3
REMARK    3  A    between atoms: C_4  and  C_5
REMARK    4  A    between atoms: C_5  and  C_7
REMARK    5  A    between atoms: C_7  and  C_8
REMARK    6  A    between atoms: C_8  and  C_9
REMARK    7  A    between atoms: N_12  and  C_13
REMARK    8  A    between atoms: C_13  and  C_14
REMARK                            x       y       z     vdW  Elec       q    Type
REMARK                         _______ _______ _______ _____ _____    ______ ____
ROOT
ATOM      1  C   UNL     1      -1.302  11.523  18.483  0.00  0.00    +0.000 C 
ENDROOT
BRANCH   1   2
ATOM      2  C   UNL     1      -1.241  12.555  19.592  0.00  0.00    +0.000 C 
ATOM      3  O   UNL     1      -0.516  13.553  19.507  0.00  0.00    +0.000 OA
BRANCH   2   5
ATOM      4  C   UNL     1      -3.400  12.714  20.942  0.00  0.00    +0.000 A 
ATOM      5  C   UNL     1      -2.038  12.306  20.828  0.00  0.00    +0.000 A 
ATOM      6  C   UNL     1      -1.358  11.791  21.949  0.00  0.00    +0.000 A 
ATOM      7  C   UNL     1      -1.957  11.719  23.190  0.00  0.00    +0.000 A 
ATOM      8  C   UNL     1      -3.267  12.191  23.300  0.00  0.00    +0.000 A 
ATOM      9  N   UNL     1      -4.041  12.323  24.435  0.00  0.00    +0.000 N 
ATOM     10  C   UNL     1      -5.241  12.867  24.130  0.00  0.00    +0.000 A 
ATOM     11  C   UNL     1      -5.289  13.021  22.760  0.00  0.00    +0.000 A 
ATOM     12  C   UNL     1      -4.011  12.655  22.219  0.00  0.00    +0.000 A 
ATOM     13  H   UNL     1      -3.726  12.097  25.367  0.00  0.00    +0.000 HD
BRANCH   4  15
ATOM     14  C   UNL     1      -4.913  12.150  19.213  0.00  0.00    +0.000 C 
ATOM     15  O   UNL     1      -4.042  13.123  19.779  0.00  0.00    +0.000 OA
ENDBRANCH   4  15
ENDBRANCH   2   5
ENDBRANCH   1   2
BRANCH   1  16
ATOM     16  C   UNL     1      -0.678  10.171  18.876  0.00  0.00    +0.000 C 
BRANCH  16  17
ATOM     17  C   UNL     1       0.836  10.301  19.179  0.00  0.00    +0.000 C 
ATOM     18  C   UNL     1       1.782   9.850  18.033  0.00  0.00    +0.000 C 
ATOM     19  C   UNL     1       2.029   8.320  17.938  0.00  0.00    +0.000 C 
ATOM     20  N   UNL     1       2.287   7.741  19.269  0.00  0.00    +0.000 NA
ATOM     21  C   UNL     1       1.108   8.006  20.103  0.00  0.00    +0.000 C 
ATOM     22  C   UNL     1       1.188   9.489  20.428  0.00  0.00    +0.000 C 
BRANCH  20  23
ATOM     23  C   UNL     1       2.666   6.316  19.317  0.00  0.00    +0.000 C 
BRANCH  23  24
ATOM     24  C   UNL     1       2.623   5.606  17.938  0.00  0.00    +0.000 C 
ATOM     25  C   UNL     1       3.973   5.024  17.491  0.00  0.00    +0.000 C 
ATOM     26  C   UNL     1       4.363   3.767  18.262  0.00  0.00    +0.000 C 
ATOM     27  C   UNL     1       3.330   2.659  18.124  0.00  0.00    +0.000 C 
ATOM     28  C   UNL     1       1.878   3.105  18.278  0.00  0.00    +0.000 C 
ATOM     29  C   UNL     1       1.541   4.520  17.799  0.00  0.00    +0.000 C 
ENDBRANCH  23  24
ENDBRANCH  20  23
ENDBRANCH  16  17
ENDBRANCH   1  16
TORSDOF 7
ENDMDL
