MODEL 1
REMARK VINA RESULT:      -8.4      0.000      0.000
REMARK  Name = 
REMARK  5 active torsions:
REMARK  status: ('A' for Active; 'I' for Inactive)
REMARK    1  A    between atoms: C_1  and  C_2
REMARK    2  A    between atoms: C_7  and  C_8
REMARK    3  A    between atoms: N_9  and  N_10
REMARK    4  A    between atoms: C_11  and  C_13
REMARK    5  A    between atoms: C_18  and  N_19
REMARK                            x       y       z     vdW  Elec       q    Type
REMARK                         _______ _______ _______ _____ _____    ______ ____
ROOT
ATOM      1  C   UNL     1       1.848   7.524  20.092  0.00  0.00    +0.000 C 
ATOM      2  N   UNL     1       1.582   8.733  19.712  0.00  0.00    +0.000 NA
ENDROOT
BRANCH   1   9
ATOM      3  C   UNL     1       6.109   3.600  14.665  0.00  0.00    +0.000 C 
ATOM      4  C   UNL     1       5.404   4.556  15.579  0.00  0.00    +0.000 A 
ATOM      5  C   UNL     1       5.575   5.935  15.450  0.00  0.00    +0.000 A 
ATOM      6  C   UNL     1       4.897   6.803  16.302  0.00  0.00    +0.000 A 
ATOM      7  C   UNL     1       4.050   6.295  17.299  0.00  0.00    +0.000 A 
ATOM      8  C   UNL     1       3.368   7.145  18.174  0.00  0.00    +0.000 A 
ATOM      9  C   UNL     1       2.555   6.612  19.175  0.00  0.00    +0.000 A 
ATOM     10  C   UNL     1       2.461   5.234  19.254  0.00  0.00    +0.000 A 
ATOM     11 CL   UNL     1       1.543   4.410  20.456  0.00  0.00    +0.000 Cl
ATOM     12  N   UNL     1       3.089   4.380  18.412  0.00  0.00    +0.000 NA
ATOM     13  C   UNL     1       3.872   4.905  17.452  0.00  0.00    +0.000 A 
ATOM     14  C   UNL     1       4.543   4.064  16.574  0.00  0.00    +0.000 A 
ENDBRANCH   1   9
BRANCH   2  15
ATOM     15  N   UNL     1       0.910   9.528  20.582  0.00  0.00    +0.000 N 
ATOM     16  C   UNL     1      -0.219  10.200  20.129  0.00  0.00    +0.000 C 
ATOM     17  O   UNL     1      -0.687  10.119  18.999  0.00  0.00    +0.000 OA
ATOM     18  H   UNL     1       1.219   9.577  21.545  0.00  0.00    +0.000 HD
BRANCH  16  19
ATOM     19  C   UNL     1      -0.860  11.121  21.101  0.00  0.00    +0.000 A 
ATOM     20  C   UNL     1      -1.428  12.326  20.653  0.00  0.00    +0.000 A 
ATOM     21  C   UNL     1      -2.104  13.169  21.541  0.00  0.00    +0.000 A 
ATOM     22  C   UNL     1      -2.241  12.814  22.883  0.00  0.00    +0.000 A 
ATOM     23  C   UNL     1      -1.701  11.615  23.345  0.00  0.00    +0.000 A 
ATOM     24  C   UNL     1      -1.014  10.780  22.450  0.00  0.00    +0.000 A 
BRANCH  24  25
ATOM     25  N   UNL     1      -0.409   9.583  23.000  0.00  0.00    +0.000 N 
ATOM     26  O   UNL     1      -0.925   8.503  22.678  0.00  0.00    +0.000 OA
ATOM     27  O   UNL     1       0.646   9.727  23.629  0.00  0.00    +0.000 OA
ENDBRANCH  24  25
ENDBRANCH  16  19
ENDBRANCH   2  15
TORSDOF 4
ENDMDL
MODEL 2
REMARK VINA RESULT:      -8.4      6.555      8.680
REMARK  Name = 
REMARK  5 active torsions:
REMARK  status: ('A' for Active; 'I' for Inactive)
REMARK    1  A    between atoms: C_1  and  C_2
REMARK    2  A    between atoms: C_7  and  C_8
REMARK    3  A    between atoms: N_9  and  N_10
REMARK    4  A    between atoms: C_11  and  C_13
REMARK    5  A    between atoms: C_18  and  N_19
REMARK                            x       y       z     vdW  Elec       q    Type
REMARK                         _______ _______ _______ _____ _____    ______ ____
ROOT
ATOM      1  C   UNL     1       7.480   7.867  17.529  0.00  0.00    +0.000 C 
ATOM      2  N   UNL     1       8.009   8.656  18.407  0.00  0.00    +0.000 NA
ENDROOT
BRANCH   1   9
ATOM      3  C   UNL     1       1.907   2.470  19.212  0.00  0.00    +0.000 C 
ATOM      4  C   UNL     1       2.777   3.598  18.742  0.00  0.00    +0.000 A 
ATOM      5  C   UNL     1       2.294   4.555  17.850  0.00  0.00    +0.000 A 
ATOM      6  C   UNL     1       3.117   5.602  17.440  0.00  0.00    +0.000 A 
ATOM      7  C   UNL     1       4.435   5.691  17.913  0.00  0.00    +0.000 A 
ATOM      8  C   UNL     1       5.283   6.725  17.508  0.00  0.00    +0.000 A 
ATOM      9  C   UNL     1       6.599   6.771  17.972  0.00  0.00    +0.000 A 
ATOM     10  C   UNL     1       7.008   5.768  18.832  0.00  0.00    +0.000 A 
ATOM     11 CL   UNL     1       8.608   5.647  19.459  0.00  0.00    +0.000 Cl
ATOM     12  N   UNL     1       6.209   4.764  19.262  0.00  0.00    +0.000 NA
ATOM     13  C   UNL     1       4.944   4.726  18.808  0.00  0.00    +0.000 A 
ATOM     14  C   UNL     1       4.094   3.707  19.216  0.00  0.00    +0.000 A 
ENDBRANCH   1   9
BRANCH   2  15
ATOM     15  N   UNL     1       8.831   9.636  17.952  0.00  0.00    +0.000 N 
ATOM     16  C   UNL     1       9.327  10.562  18.863  0.00  0.00    +0.000 C 
ATOM     17  O   UNL     1       9.104  10.558  20.068  0.00  0.00    +0.000 OA
ATOM     18  H   UNL     1       9.097   9.642  16.975  0.00  0.00    +0.000 HD
BRANCH  16  19
ATOM     19  C   UNL     1      10.148  11.658  18.292  0.00  0.00    +0.000 A 
ATOM     20  C   UNL     1      11.548  11.536  18.253  0.00  0.00    +0.000 A 
ATOM     21  C   UNL     1      12.333  12.523  17.649  0.00  0.00    +0.000 A 
ATOM     22  C   UNL     1      11.734  13.635  17.056  0.00  0.00    +0.000 A 
ATOM     23  C   UNL     1      10.347  13.767  17.068  0.00  0.00    +0.000 A 
ATOM     24  C   UNL     1       9.566  12.778  17.686  0.00  0.00    +0.000 A 
BRANCH  24  25
ATOM     25  N   UNL     1       8.135  13.004  17.733  0.00  0.00    +0.000 N 
ATOM     26  O   UNL     1       7.737  13.868  18.527  0.00  0.00    +0.000 OA
ATOM     27  O   UNL     1       7.447  12.419  16.888  0.00  0.00    +0.000 OA
ENDBRANCH  24  25
ENDBRANCH  16  19
ENDBRANCH   2  15
TORSDOF 4
ENDMDL
MODEL 3
REMARK VINA RESULT:      -8.2      4.012      8.997
REMARK  Name = 
REMARK  5 active torsions:
REMARK  status: ('A' for Active; 'I' for Inactive)
REMARK    1  A    between atoms: C_1  and  C_2
REMARK    2  A    between atoms: C_7  and  C_8
REMARK    3  A    between atoms: N_9  and  N_10
REMARK    4  A    between atoms: C_11  and  C_13
REMARK    5  A    between atoms: C_18  and  N_19
REMARK                            x       y       z     vdW  Elec       q    Type
REMARK                         _______ _______ _______ _____ _____    ______ ____
ROOT
ATOM      1  C   UNL     1       1.908   9.113  18.583  0.00  0.00    +0.000 C 
ATOM      2  N   UNL     1       2.268   8.345  17.605  0.00  0.00    +0.000 NA
ENDROOT
BRANCH   1   9
ATOM      3  C   UNL     1      -5.432  11.913  17.447  0.00  0.00    +0.000 C 
ATOM      4  C   UNL     1      -4.077  11.272  17.427  0.00  0.00    +0.000 A 
ATOM      5  C   UNL     1      -3.663  10.497  16.343  0.00  0.00    +0.000 A 
ATOM      6  C   UNL     1      -2.392   9.926  16.342  0.00  0.00    +0.000 A 
ATOM      7  C   UNL     1      -1.530  10.118  17.432  0.00  0.00    +0.000 A 
ATOM      8  C   UNL     1      -0.256   9.546  17.459  0.00  0.00    +0.000 A 
ATOM      9  C   UNL     1       0.569   9.729  18.570  0.00  0.00    +0.000 A 
ATOM     10  C   UNL     1       0.073  10.489  19.615  0.00  0.00    +0.000 A 
ATOM     11 CL   UNL     1       0.937  10.774  21.078  0.00  0.00    +0.000 Cl
ATOM     12  N   UNL     1      -1.146  11.075  19.615  0.00  0.00    +0.000 NA
ATOM     13  C   UNL     1      -1.935  10.890  18.541  0.00  0.00    +0.000 A 
ATOM     14  C   UNL     1      -3.198  11.466  18.505  0.00  0.00    +0.000 A 
ENDBRANCH   1   9
BRANCH   2  15
ATOM     15  N   UNL     1       3.518   7.819  17.651  0.00  0.00    +0.000 N 
ATOM     16  C   UNL     1       3.653   6.441  17.776  0.00  0.00    +0.000 C 
ATOM     17  O   UNL     1       2.727   5.640  17.823  0.00  0.00    +0.000 OA
ATOM     18  H   UNL     1       4.316   8.434  17.549  0.00  0.00    +0.000 HD
BRANCH  16  19
ATOM     19  C   UNL     1       5.041   5.934  17.908  0.00  0.00    +0.000 A 
ATOM     20  C   UNL     1       5.589   5.719  19.185  0.00  0.00    +0.000 A 
ATOM     21  C   UNL     1       6.866   5.170  19.330  0.00  0.00    +0.000 A 
ATOM     22  C   UNL     1       7.608   4.806  18.206  0.00  0.00    +0.000 A 
ATOM     23  C   UNL     1       7.078   4.994  16.931  0.00  0.00    +0.000 A 
ATOM     24  C   UNL     1       5.799   5.557  16.794  0.00  0.00    +0.000 A 
BRANCH  24  25
ATOM     25  N   UNL     1       5.329   5.798  15.444  0.00  0.00    +0.000 N 
ATOM     26  O   UNL     1       5.026   4.799  14.776  0.00  0.00    +0.000 OA
ATOM     27  O   UNL     1       5.139   6.976  15.119  0.00  0.00    +0.000 OA
ENDBRANCH  24  25
ENDBRANCH  16  19
ENDBRANCH   2  15
TORSDOF 4
ENDMDL
MODEL 4
REMARK VINA RESULT:      -8.0      2.975      9.201
REMARK  Name = 
REMARK  5 active torsions:
REMARK  status: ('A' for Active; 'I' for Inactive)
REMARK    1  A    between atoms: C_1  and  C_2
REMARK    2  A    between atoms: C_7  and  C_8
REMARK    3  A    between atoms: N_9  and  N_10
REMARK    4  A    between atoms: C_11  and  C_13
REMARK    5  A    between atoms: C_18  and  N_19
REMARK                            x       y       z     vdW  Elec       q    Type
REMARK                         _______ _______ _______ _____ _____    ______ ____
ROOT
ATOM      1  C   UNL     1       0.347   9.668  18.132  0.00  0.00    +0.000 C 
ATOM      2  N   UNL     1       1.298   9.022  18.725  0.00  0.00    +0.000 NA
ENDROOT
BRANCH   1   9
ATOM      3  C   UNL     1      -3.509  14.386  23.219  0.00  0.00    +0.000 C 
ATOM      4  C   UNL     1      -2.611  13.460  22.455  0.00  0.00    +0.000 A 
ATOM      5  C   UNL     1      -1.468  12.918  23.042  0.00  0.00    +0.000 A 
ATOM      6  C   UNL     1      -0.659  12.048  22.316  0.00  0.00    +0.000 A 
ATOM      7  C   UNL     1      -0.984  11.721  20.990  0.00  0.00    +0.000 A 
ATOM      8  C   UNL     1      -0.182  10.859  20.237  0.00  0.00    +0.000 A 
ATOM      9  C   UNL     1      -0.514  10.575  18.911  0.00  0.00    +0.000 A 
ATOM     10  C   UNL     1      -1.650  11.174  18.396  0.00  0.00    +0.000 A 
ATOM     11 CL   UNL     1      -2.177  10.972  16.768  0.00  0.00    +0.000 Cl
ATOM     12  N   UNL     1      -2.461  11.997  19.101  0.00  0.00    +0.000 NA
ATOM     13  C   UNL     1      -2.131  12.266  20.377  0.00  0.00    +0.000 A 
ATOM     14  C   UNL     1      -2.931  13.113  21.132  0.00  0.00    +0.000 A 
ENDBRANCH   1   9
BRANCH   2  15
ATOM     15  N   UNL     1       2.049   8.182  17.969  0.00  0.00    +0.000 N 
ATOM     16  C   UNL     1       2.676   7.110  18.594  0.00  0.00    +0.000 C 
ATOM     17  O   UNL     1       2.590   6.834  19.784  0.00  0.00    +0.000 OA
ATOM     18  H   UNL     1       2.099   8.330  16.969  0.00  0.00    +0.000 HD
BRANCH  16  19
ATOM     19  C   UNL     1       3.553   6.279  17.731  0.00  0.00    +0.000 A 
ATOM     20  C   UNL     1       4.708   6.841  17.160  0.00  0.00    +0.000 A 
ATOM     21  C   UNL     1       5.587   6.055  16.409  0.00  0.00    +0.000 A 
ATOM     22  C   UNL     1       5.340   4.693  16.234  0.00  0.00    +0.000 A 
ATOM     23  C   UNL     1       4.211   4.112  16.806  0.00  0.00    +0.000 A 
ATOM     24  C   UNL     1       3.327   4.910  17.549  0.00  0.00    +0.000 A 
BRANCH  24  25
ATOM     25  N   UNL     1       2.131   4.268  18.058  0.00  0.00    +0.000 N 
ATOM     26  O   UNL     1       1.137   4.282  17.318  0.00  0.00    +0.000 OA
ATOM     27  O   UNL     1       2.239   3.646  19.122  0.00  0.00    +0.000 OA
ENDBRANCH  24  25
ENDBRANCH  16  19
ENDBRANCH   2  15
TORSDOF 4
ENDMDL
MODEL 5
REMARK VINA RESULT:      -7.9      4.020      8.589
REMARK  Name = 
REMARK  5 active torsions:
REMARK  status: ('A' for Active; 'I' for Inactive)
REMARK    1  A    between atoms: C_1  and  C_2
REMARK    2  A    between atoms: C_7  and  C_8
REMARK    3  A    between atoms: N_9  and  N_10
REMARK    4  A    between atoms: C_11  and  C_13
REMARK    5  A    between atoms: C_18  and  N_19
REMARK                            x       y       z     vdW  Elec       q    Type
REMARK                         _______ _______ _______ _____ _____    ______ ____
ROOT
ATOM      1  C   UNL     1       1.376   9.255  17.949  0.00  0.00    +0.000 C 
ATOM      2  N   UNL     1       2.511   8.686  18.199  0.00  0.00    +0.000 NA
ENDROOT
BRANCH   1   9
ATOM      3  C   UNL     1       1.586  17.093  19.190  0.00  0.00    +0.000 C 
ATOM      4  C   UNL     1       1.798  15.640  18.888  0.00  0.00    +0.000 A 
ATOM      5  C   UNL     1       3.036  15.168  18.451  0.00  0.00    +0.000 A 
ATOM      6  C   UNL     1       3.211  13.811  18.192  0.00  0.00    +0.000 A 
ATOM      7  C   UNL     1       2.143  12.916  18.357  0.00  0.00    +0.000 A 
ATOM      8  C   UNL     1       2.290  11.552  18.093  0.00  0.00    +0.000 A 
ATOM      9  C   UNL     1       1.202  10.690  18.238  0.00  0.00    +0.000 A 
ATOM     10  C   UNL     1       0.001  11.242  18.649  0.00  0.00    +0.000 A 
ATOM     11 CL   UNL     1      -1.450  10.333  18.832  0.00  0.00    +0.000 Cl
ATOM     12  N   UNL     1      -0.173  12.553  18.934  0.00  0.00    +0.000 NA
ATOM     13  C   UNL     1       0.881  13.376  18.789  0.00  0.00    +0.000 A 
ATOM     14  C   UNL     1       0.741  14.730  19.061  0.00  0.00    +0.000 A 
ENDBRANCH   1   9
BRANCH   2  15
ATOM     15  N   UNL     1       2.615   7.358  17.936  0.00  0.00    +0.000 N 
ATOM     16  C   UNL     1       2.493   6.462  18.992  0.00  0.00    +0.000 C 
ATOM     17  O   UNL     1       2.271   6.767  20.158  0.00  0.00    +0.000 OA
ATOM     18  H   UNL     1       2.732   7.053  16.978  0.00  0.00    +0.000 HD
BRANCH  16  19
ATOM     19  C   UNL     1       2.703   5.032  18.657  0.00  0.00    +0.000 A 
ATOM     20  C   UNL     1       1.596   4.174  18.527  0.00  0.00    +0.000 A 
ATOM     21  C   UNL     1       1.768   2.843  18.137  0.00  0.00    +0.000 A 
ATOM     22  C   UNL     1       3.042   2.352  17.847  0.00  0.00    +0.000 A 
ATOM     23  C   UNL     1       4.150   3.190  17.951  0.00  0.00    +0.000 A 
ATOM     24  C   UNL     1       3.971   4.522  18.356  0.00  0.00    +0.000 A 
BRANCH  24  25
ATOM     25  N   UNL     1       5.166   5.326  18.519  0.00  0.00    +0.000 N 
ATOM     26  O   UNL     1       5.475   6.059  17.568  0.00  0.00    +0.000 OA
ATOM     27  O   UNL     1       5.698   5.319  19.636  0.00  0.00    +0.000 OA
ENDBRANCH  24  25
ENDBRANCH  16  19
ENDBRANCH   2  15
TORSDOF 4
ENDMDL
MODEL 6
REMARK VINA RESULT:      -7.8      1.689      2.118
REMARK  Name = 
REMARK  5 active torsions:
REMARK  status: ('A' for Active; 'I' for Inactive)
REMARK    1  A    between atoms: C_1  and  C_2
REMARK    2  A    between atoms: C_7  and  C_8
REMARK    3  A    between atoms: N_9  and  N_10
REMARK    4  A    between atoms: C_11  and  C_13
REMARK    5  A    between atoms: C_18  and  N_19
REMARK                            x       y       z     vdW  Elec       q    Type
REMARK                         _______ _______ _______ _____ _____    ______ ____
ROOT
ATOM      1  C   UNL     1       1.792   7.723  20.268  0.00  0.00    +0.000 C 
ATOM      2  N   UNL     1       1.481   8.907  19.848  0.00  0.00    +0.000 NA
ENDROOT
BRANCH   1   9
ATOM      3  C   UNL     1       5.914   3.630  14.858  0.00  0.00    +0.000 C 
ATOM      4  C   UNL     1       5.239   4.614  15.766  0.00  0.00    +0.000 A 
ATOM      5  C   UNL     1       5.442   5.986  15.617  0.00  0.00    +0.000 A 
ATOM      6  C   UNL     1       4.791   6.881  16.463  0.00  0.00    +0.000 A 
ATOM      7  C   UNL     1       3.941   6.406  17.474  0.00  0.00    +0.000 A 
ATOM      8  C   UNL     1       3.287   7.283  18.343  0.00  0.00    +0.000 A 
ATOM      9  C   UNL     1       2.470   6.782  19.358  0.00  0.00    +0.000 A 
ATOM     10  C   UNL     1       2.343   5.408  19.455  0.00  0.00    +0.000 A 
ATOM     11 CL   UNL     1       1.416   4.621  20.675  0.00  0.00    +0.000 Cl
ATOM     12  N   UNL     1       2.945   4.529  18.619  0.00  0.00    +0.000 NA
ATOM     13  C   UNL     1       3.732   5.022  17.646  0.00  0.00    +0.000 A 
ATOM     14  C   UNL     1       4.376   4.155  16.774  0.00  0.00    +0.000 A 
ENDBRANCH   1   9
BRANCH   2  15
ATOM     15  N   UNL     1       0.839   9.729  20.716  0.00  0.00    +0.000 N 
ATOM     16  C   UNL     1       0.211  10.863  20.214  0.00  0.00    +0.000 C 
ATOM     17  O   UNL     1       0.163  11.180  19.031  0.00  0.00    +0.000 OA
ATOM     18  H   UNL     1       0.794   9.475  21.695  0.00  0.00    +0.000 HD
BRANCH  16  19
ATOM     19  C   UNL     1      -0.399  11.767  21.220  0.00  0.00    +0.000 A 
ATOM     20  C   UNL     1      -1.504  11.332  21.972  0.00  0.00    +0.000 A 
ATOM     21  C   UNL     1      -2.044  12.139  22.979  0.00  0.00    +0.000 A 
ATOM     22  C   UNL     1      -1.476  13.381  23.266  0.00  0.00    +0.000 A 
ATOM     23  C   UNL     1      -0.369  13.824  22.545  0.00  0.00    +0.000 A 
ATOM     24  C   UNL     1       0.160  13.013  21.529  0.00  0.00    +0.000 A 
BRANCH  24  25
ATOM     25  N   UNL     1       1.265  13.555  20.762  0.00  0.00    +0.000 N 
ATOM     26  O   UNL     1       0.970  14.317  19.831  0.00  0.00    +0.000 OA
ATOM     27  O   UNL     1       2.405  13.324  21.183  0.00  0.00    +0.000 OA
ENDBRANCH  24  25
ENDBRANCH  16  19
ENDBRANCH   2  15
TORSDOF 4
ENDMDL
MODEL 7
REMARK VINA RESULT:      -7.8      3.529      9.360
REMARK  Name = 
REMARK  5 active torsions:
REMARK  status: ('A' for Active; 'I' for Inactive)
REMARK    1  A    between atoms: C_1  and  C_2
REMARK    2  A    between atoms: C_7  and  C_8
REMARK    3  A    between atoms: N_9  and  N_10
REMARK    4  A    between atoms: C_11  and  C_13
REMARK    5  A    between atoms: C_18  and  N_19
REMARK                            x       y       z     vdW  Elec       q    Type
REMARK                         _______ _______ _______ _____ _____    ______ ____
ROOT
ATOM      1  C   UNL     1       2.721   7.806  17.724  0.00  0.00    +0.000 C 
ATOM      2  N   UNL     1       3.804   7.129  17.932  0.00  0.00    +0.000 NA
ENDROOT
BRANCH   1   9
ATOM      3  C   UNL     1      -1.611  11.539  23.230  0.00  0.00    +0.000 C 
ATOM      4  C   UNL     1      -0.835  11.047  22.045  0.00  0.00    +0.000 A 
ATOM      5  C   UNL     1      -0.714  11.823  20.892  0.00  0.00    +0.000 A 
ATOM      6  C   UNL     1       0.025  11.350  19.811  0.00  0.00    +0.000 A 
ATOM      7  C   UNL     1       0.640  10.090  19.871  0.00  0.00    +0.000 A 
ATOM      8  C   UNL     1       1.377   9.589  18.795  0.00  0.00    +0.000 A 
ATOM      9  C   UNL     1       1.952   8.320  18.872  0.00  0.00    +0.000 A 
ATOM     10  C   UNL     1       1.762   7.603  20.040  0.00  0.00    +0.000 A 
ATOM     11 CL   UNL     1       2.360   6.007  20.285  0.00  0.00    +0.000 Cl
ATOM     12  N   UNL     1       1.073   8.064  21.110  0.00  0.00    +0.000 NA
ATOM     13  C   UNL     1       0.520   9.288  21.025  0.00  0.00    +0.000 A 
ATOM     14  C   UNL     1      -0.204   9.793  22.096  0.00  0.00    +0.000 A 
ENDBRANCH   1   9
BRANCH   2  15
ATOM     15  N   UNL     1       4.465   6.659  16.844  0.00  0.00    +0.000 N 
ATOM     16  C   UNL     1       4.591   5.283  16.689  0.00  0.00    +0.000 C 
ATOM     17  O   UNL     1       4.129   4.439  17.447  0.00  0.00    +0.000 OA
ATOM     18  H   UNL     1       4.808   7.315  16.153  0.00  0.00    +0.000 HD
BRANCH  16  19
ATOM     19  C   UNL     1       5.398   4.832  15.527  0.00  0.00    +0.000 A 
ATOM     20  C   UNL     1       4.761   4.255  14.415  0.00  0.00    +0.000 A 
ATOM     21  C   UNL     1       5.495   3.895  13.280  0.00  0.00    +0.000 A 
ATOM     22  C   UNL     1       6.870   4.126  13.228  0.00  0.00    +0.000 A 
ATOM     23  C   UNL     1       7.518   4.714  14.312  0.00  0.00    +0.000 A 
ATOM     24  C   UNL     1       6.777   5.062  15.452  0.00  0.00    +0.000 A 
BRANCH  24  25
ATOM     25  N   UNL     1       7.515   5.601  16.578  0.00  0.00    +0.000 N 
ATOM     26  O   UNL     1       7.621   6.835  16.630  0.00  0.00    +0.000 OA
ATOM     27  O   UNL     1       7.856   4.802  17.458  0.00  0.00    +0.000 OA
ENDBRANCH  24  25
ENDBRANCH  16  19
ENDBRANCH   2  15
TORSDOF 4
ENDMDL
MODEL 8
REMARK VINA RESULT:      -7.8      3.753      8.640
REMARK  Name = 
REMARK  5 active torsions:
REMARK  status: ('A' for Active; 'I' for Inactive)
REMARK    1  A    between atoms: C_1  and  C_2
REMARK    2  A    between atoms: C_7  and  C_8
REMARK    3  A    between atoms: N_9  and  N_10
REMARK    4  A    between atoms: C_11  and  C_13
REMARK    5  A    between atoms: C_18  and  N_19
REMARK                            x       y       z     vdW  Elec       q    Type
REMARK                         _______ _______ _______ _____ _____    ______ ____
ROOT
ATOM      1  C   UNL     1       1.393   9.457  18.690  0.00  0.00    +0.000 C 
ATOM      2  N   UNL     1       1.774   8.685  17.724  0.00  0.00    +0.000 NA
ENDROOT
BRANCH   1   9
ATOM      3  C   UNL     1      -5.917  12.259  17.373  0.00  0.00    +0.000 C 
ATOM      4  C   UNL     1      -4.561  11.618  17.387  0.00  0.00    +0.000 A 
ATOM      5  C   UNL     1      -4.123  10.838  16.317  0.00  0.00    +0.000 A 
ATOM      6  C   UNL     1      -2.854  10.266  16.347  0.00  0.00    +0.000 A 
ATOM      7  C   UNL     1      -2.017  10.461  17.456  0.00  0.00    +0.000 A 
ATOM      8  C   UNL     1      -0.744   9.888  17.515  0.00  0.00    +0.000 A 
ATOM      9  C   UNL     1       0.055  10.075  18.644  0.00  0.00    +0.000 A 
ATOM     10  C   UNL     1      -0.464  10.839  19.674  0.00  0.00    +0.000 A 
ATOM     11 CL   UNL     1       0.366  11.129  21.155  0.00  0.00    +0.000 Cl
ATOM     12  N   UNL     1      -1.683  11.426  19.643  0.00  0.00    +0.000 NA
ATOM     13  C   UNL     1      -2.446  11.238  18.552  0.00  0.00    +0.000 A 
ATOM     14  C   UNL     1      -3.707  11.814  18.485  0.00  0.00    +0.000 A 
ENDBRANCH   1   9
BRANCH   2  15
ATOM     15  N   UNL     1       3.022   8.158  17.801  0.00  0.00    +0.000 N 
ATOM     16  C   UNL     1       3.161   6.775  17.771  0.00  0.00    +0.000 C 
ATOM     17  O   UNL     1       2.241   5.973  17.653  0.00  0.00    +0.000 OA
ATOM     18  H   UNL     1       3.820   8.780  17.833  0.00  0.00    +0.000 HD
BRANCH  16  19
ATOM     19  C   UNL     1       4.540   6.257  17.946  0.00  0.00    +0.000 A 
ATOM     20  C   UNL     1       5.612   6.883  17.286  0.00  0.00    +0.000 A 
ATOM     21  C   UNL     1       6.927   6.458  17.499  0.00  0.00    +0.000 A 
ATOM     22  C   UNL     1       7.196   5.419  18.390  0.00  0.00    +0.000 A 
ATOM     23  C   UNL     1       6.151   4.796  19.068  0.00  0.00    +0.000 A 
ATOM     24  C   UNL     1       4.832   5.220  18.840  0.00  0.00    +0.000 A 
BRANCH  24  25
ATOM     25  N   UNL     1       3.779   4.488  19.517  0.00  0.00    +0.000 N 
ATOM     26  O   UNL     1       3.554   3.340  19.109  0.00  0.00    +0.000 OA
ATOM     27  O   UNL     1       3.291   5.013  20.525  0.00  0.00    +0.000 OA
ENDBRANCH  24  25
ENDBRANCH  16  19
ENDBRANCH   2  15
TORSDOF 4
ENDMDL
MODEL 9
REMARK VINA RESULT:      -7.7      3.230      8.773
REMARK  Name = 
REMARK  5 active torsions:
REMARK  status: ('A' for Active; 'I' for Inactive)
REMARK    1  A    between atoms: C_1  and  C_2
REMARK    2  A    between atoms: C_7  and  C_8
REMARK    3  A    between atoms: N_9  and  N_10
REMARK    4  A    between atoms: C_11  and  C_13
REMARK    5  A    between atoms: C_18  and  N_19
REMARK                            x       y       z     vdW  Elec       q    Type
REMARK                         _______ _______ _______ _____ _____    ______ ____
ROOT
ATOM      1  C   UNL     1       0.687   8.484  20.594  0.00  0.00    +0.000 C 
ATOM      2  N   UNL     1       1.916   8.122  20.411  0.00  0.00    +0.000 NA
ENDROOT
BRANCH   1   9
ATOM      3  C   UNL     1      -0.863  16.269  20.546  0.00  0.00    +0.000 C 
ATOM      4  C   UNL     1      -0.537  14.827  20.297  0.00  0.00    +0.000 A 
ATOM      5  C   UNL     1      -0.251  14.365  19.012  0.00  0.00    +0.000 A 
ATOM      6  C   UNL     1       0.064  13.023  18.810  0.00  0.00    +0.000 A 
ATOM      7  C   UNL     1       0.085  12.131  19.892  0.00  0.00    +0.000 A 
ATOM      8  C   UNL     1       0.387  10.779  19.713  0.00  0.00    +0.000 A 
ATOM      9  C   UNL     1       0.371   9.908  20.804  0.00  0.00    +0.000 A 
ATOM     10  C   UNL     1       0.051  10.440  22.040  0.00  0.00    +0.000 A 
ATOM     11 CL   UNL     1      -0.062   9.501  23.480  0.00  0.00    +0.000 Cl
ATOM     12  N   UNL     1      -0.226  11.747  22.256  0.00  0.00    +0.000 NA
ATOM     13  C   UNL     1      -0.211  12.578  21.197  0.00  0.00    +0.000 A 
ATOM     14  C   UNL     1      -0.500  13.924  21.373  0.00  0.00    +0.000 A 
ENDBRANCH   1   9
BRANCH   2  15
ATOM     15  N   UNL     1       2.159   6.797  20.243  0.00  0.00    +0.000 N 
ATOM     16  C   UNL     1       2.441   6.331  18.964  0.00  0.00    +0.000 C 
ATOM     17  O   UNL     1       2.517   7.027  17.958  0.00  0.00    +0.000 OA
ATOM     18  H   UNL     1       2.172   6.192  21.054  0.00  0.00    +0.000 HD
BRANCH  16  19
ATOM     19  C   UNL     1       2.611   4.863  18.831  0.00  0.00    +0.000 A 
ATOM     20  C   UNL     1       1.485   4.023  18.861  0.00  0.00    +0.000 A 
ATOM     21  C   UNL     1       1.617   2.645  18.660  0.00  0.00    +0.000 A 
ATOM     22  C   UNL     1       2.870   2.088  18.404  0.00  0.00    +0.000 A 
ATOM     23  C   UNL     1       3.997   2.905  18.351  0.00  0.00    +0.000 A 
ATOM     24  C   UNL     1       3.858   4.285  18.566  0.00  0.00    +0.000 A 
BRANCH  24  25
ATOM     25  N   UNL     1       5.074   5.076  18.574  0.00  0.00    +0.000 N 
ATOM     26  O   UNL     1       5.656   5.184  19.662  0.00  0.00    +0.000 OA
ATOM     27  O   UNL     1       5.500   5.458  17.477  0.00  0.00    +0.000 OA
ENDBRANCH  24  25
ENDBRANCH  16  19
ENDBRANCH   2  15
TORSDOF 4
ENDMDL
