MODEL 1
REMARK VINA RESULT:      -6.7      0.000      0.000
REMARK  Name = 
REMARK  8 active torsions:
REMARK  status: ('A' for Active; 'I' for Inactive)
REMARK    1  A    between atoms: C_1  and  O_2
REMARK    2  A    between atoms: O_2  and  C_3
REMARK    3  A    between atoms: C_3  and  C_4
REMARK    4  A    between atoms: C_4  and  C_5
REMARK    5  A    between atoms: C_5  and  N_6
REMARK    6  A    between atoms: N_14  and  C_15
REMARK    7  A    between atoms: C_15  and  C_16
REMARK    8  A    between atoms: C_19  and  C_20
REMARK                            x       y       z     vdW  Elec       q    Type
REMARK                         _______ _______ _______ _____ _____    ______ ____
ROOT
ATOM      1  N   UNL     1       3.727   4.359  17.108  0.00  0.00    +0.000 N 
ATOM      2  C   UNL     1       3.151   3.224  17.693  0.00  0.00    +0.000 A 
ATOM      3  O   UNL     1       3.234   2.101  17.199  0.00  0.00    +0.000 OA
ATOM      4  C   UNL     1       2.473   3.498  18.927  0.00  0.00    +0.000 A 
ATOM      5  S   UNL     1       1.635   2.312  19.804  0.00  0.00    +0.000 S 
ATOM      6  C   UNL     1       1.219   3.443  21.020  0.00  0.00    +0.000 A 
ATOM      7  C   UNL     1       1.705   4.703  20.739  0.00  0.00    +0.000 A 
ATOM      8  C   UNL     1       2.447   4.732  19.520  0.00  0.00    +0.000 A 
ATOM      9  N   UNL     1       3.126   5.800  18.931  0.00  0.00    +0.000 N 
ATOM     10  C   UNL     1       3.828   5.612  17.729  0.00  0.00    +0.000 A 
ATOM     11  O   UNL     1       4.509   6.520  17.242  0.00  0.00    +0.000 OA
ENDROOT
BRANCH   1  12
ATOM     12  C   UNL     1       4.426   4.161  15.834  0.00  0.00    +0.000 C 
BRANCH  12  13
ATOM     13  C   UNL     1       5.890   3.730  16.013  0.00  0.00    +0.000 C 
BRANCH  13  14
ATOM     14  C   UNL     1       6.852   4.727  15.377  0.00  0.00    +0.000 C 
BRANCH  14  16
ATOM     15  C   UNL     1       7.510   4.617  17.642  0.00  0.00    +0.000 C 
ATOM     16  O   UNL     1       7.732   5.229  16.379  0.00  0.00    +0.000 OA
ENDBRANCH  14  16
ENDBRANCH  13  14
ENDBRANCH  12  13
ENDBRANCH   1  12
BRANCH   9  17
ATOM     17  C   UNL     1       3.205   7.117  19.571  0.00  0.00    +0.000 C 
BRANCH  17  18
ATOM     18  C   UNL     1       2.026   8.037  19.316  0.00  0.00    +0.000 A 
ATOM     19  C   UNL     1       1.267   8.499  20.404  0.00  0.00    +0.000 A 
ATOM     20  C   UNL     1       0.287   9.482  20.232  0.00  0.00    +0.000 A 
ATOM     21  C   UNL     1       0.043  10.029  18.969  0.00  0.00    +0.000 A 
ATOM     22  C   UNL     1      -0.935  11.155  18.784  0.00  0.00    +0.000 C 
ATOM     23  C   UNL     1       0.771   9.550  17.876  0.00  0.00    +0.000 A 
ATOM     24  C   UNL     1       1.753   8.569  18.048  0.00  0.00    +0.000 A 
ENDBRANCH  17  18
ENDBRANCH   9  17
TORSDOF 6
ENDMDL
MODEL 2
REMARK VINA RESULT:      -6.6      2.758      6.408
REMARK  Name = 
REMARK  8 active torsions:
REMARK  status: ('A' for Active; 'I' for Inactive)
REMARK    1  A    between atoms: C_1  and  O_2
REMARK    2  A    between atoms: O_2  and  C_3
REMARK    3  A    between atoms: C_3  and  C_4
REMARK    4  A    between atoms: C_4  and  C_5
REMARK    5  A    between atoms: C_5  and  N_6
REMARK    6  A    between atoms: N_14  and  C_15
REMARK    7  A    between atoms: C_15  and  C_16
REMARK    8  A    between atoms: C_19  and  C_20
REMARK                            x       y       z     vdW  Elec       q    Type
REMARK                         _______ _______ _______ _____ _____    ______ ____
ROOT
ATOM      1  N   UNL     1       3.198   4.327  20.104  0.00  0.00    +0.000 N 
ATOM      2  C   UNL     1       2.399   5.473  19.995  0.00  0.00    +0.000 A 
ATOM      3  O   UNL     1       1.388   5.651  20.672  0.00  0.00    +0.000 OA
ATOM      4  C   UNL     1       2.883   6.419  19.032  0.00  0.00    +0.000 A 
ATOM      5  S   UNL     1       2.068   7.859  18.659  0.00  0.00    +0.000 S 
ATOM      6  C   UNL     1       3.284   8.311  17.542  0.00  0.00    +0.000 A 
ATOM      7  C   UNL     1       4.281   7.361  17.456  0.00  0.00    +0.000 A 
ATOM      8  C   UNL     1       4.052   6.260  18.334  0.00  0.00    +0.000 A 
ATOM      9  N   UNL     1       4.851   5.139  18.564  0.00  0.00    +0.000 N 
ATOM     10  C   UNL     1       4.455   4.172  19.502  0.00  0.00    +0.000 A 
ATOM     11  O   UNL     1       5.192   3.222  19.785  0.00  0.00    +0.000 OA
ENDROOT
BRANCH   1  12
ATOM     12  C   UNL     1       2.758   3.304  21.058  0.00  0.00    +0.000 C 
BRANCH  12  13
ATOM     13  C   UNL     1       1.468   2.592  20.622  0.00  0.00    +0.000 C 
BRANCH  13  14
ATOM     14  C   UNL     1       1.646   1.872  19.290  0.00  0.00    +0.000 C 
BRANCH  14  16
ATOM     15  C   UNL     1       2.021   3.024  17.264  0.00  0.00    +0.000 C 
ATOM     16  O   UNL     1       1.069   2.662  18.253  0.00  0.00    +0.000 OA
ENDBRANCH  14  16
ENDBRANCH  13  14
ENDBRANCH  12  13
ENDBRANCH   1  12
BRANCH   9  17
ATOM     17  C   UNL     1       6.152   4.968  17.911  0.00  0.00    +0.000 C 
BRANCH  17  18
ATOM     18  C   UNL     1       6.104   4.731  16.413  0.00  0.00    +0.000 A 
ATOM     19  C   UNL     1       7.180   5.153  15.615  0.00  0.00    +0.000 A 
ATOM     20  C   UNL     1       7.256   4.801  14.264  0.00  0.00    +0.000 A 
ATOM     21  C   UNL     1       6.260   4.016  13.677  0.00  0.00    +0.000 A 
ATOM     22  C   UNL     1       6.376   3.546  12.255  0.00  0.00    +0.000 C 
ATOM     23  C   UNL     1       5.168   3.621  14.456  0.00  0.00    +0.000 A 
ATOM     24  C   UNL     1       5.094   3.970  15.808  0.00  0.00    +0.000 A 
ENDBRANCH  17  18
ENDBRANCH   9  17
TORSDOF 6
ENDMDL
MODEL 3
REMARK VINA RESULT:      -6.4      1.508      2.206
REMARK  Name = 
REMARK  8 active torsions:
REMARK  status: ('A' for Active; 'I' for Inactive)
REMARK    1  A    between atoms: C_1  and  O_2
REMARK    2  A    between atoms: O_2  and  C_3
REMARK    3  A    between atoms: C_3  and  C_4
REMARK    4  A    between atoms: C_4  and  C_5
REMARK    5  A    between atoms: C_5  and  N_6
REMARK    6  A    between atoms: N_14  and  C_15
REMARK    7  A    between atoms: C_15  and  C_16
REMARK    8  A    between atoms: C_19  and  C_20
REMARK                            x       y       z     vdW  Elec       q    Type
REMARK                         _______ _______ _______ _____ _____    ______ ____
ROOT
ATOM      1  N   UNL     1       5.359   4.860  18.548  0.00  0.00    +0.000 N 
ATOM      2  C   UNL     1       4.737   3.685  18.990  0.00  0.00    +0.000 A 
ATOM      3  O   UNL     1       5.346   2.773  19.546  0.00  0.00    +0.000 OA
ATOM      4  C   UNL     1       3.324   3.659  18.745  0.00  0.00    +0.000 A 
ATOM      5  S   UNL     1       2.345   2.326  19.122  0.00  0.00    +0.000 S 
ATOM      6  C   UNL     1       0.947   3.137  18.560  0.00  0.00    +0.000 A 
ATOM      7  C   UNL     1       1.241   4.397  18.081  0.00  0.00    +0.000 A 
ATOM      8  C   UNL     1       2.630   4.705  18.199  0.00  0.00    +0.000 A 
ATOM      9  N   UNL     1       3.297   5.887  17.871  0.00  0.00    +0.000 N 
ATOM     10  C   UNL     1       4.679   5.999  18.094  0.00  0.00    +0.000 A 
ATOM     11  O   UNL     1       5.270   7.066  17.895  0.00  0.00    +0.000 OA
ENDROOT
BRANCH   1  12
ATOM     12  C   UNL     1       6.809   4.955  18.750  0.00  0.00    +0.000 C 
BRANCH  12  13
ATOM     13  C   UNL     1       7.610   4.733  17.457  0.00  0.00    +0.000 C 
BRANCH  13  14
ATOM     14  C   UNL     1       6.721   4.231  16.324  0.00  0.00    +0.000 C 
BRANCH  14  16
ATOM     15  C   UNL     1       6.635   4.366  13.969  0.00  0.00    +0.000 C 
ATOM     16  O   UNL     1       6.919   5.055  15.178  0.00  0.00    +0.000 OA
ENDBRANCH  14  16
ENDBRANCH  13  14
ENDBRANCH  12  13
ENDBRANCH   1  12
BRANCH   9  17
ATOM     17  C   UNL     1       2.586   7.066  17.369  0.00  0.00    +0.000 C 
BRANCH  17  18
ATOM     18  C   UNL     1       2.074   8.021  18.432  0.00  0.00    +0.000 A 
ATOM     19  C   UNL     1       1.559   9.269  18.043  0.00  0.00    +0.000 A 
ATOM     20  C   UNL     1       0.920  10.102  18.966  0.00  0.00    +0.000 A 
ATOM     21  C   UNL     1       0.778   9.709  20.300  0.00  0.00    +0.000 A 
ATOM     22  C   UNL     1       0.007  10.546  21.281  0.00  0.00    +0.000 C 
ATOM     23  C   UNL     1       1.318   8.483  20.701  0.00  0.00    +0.000 A 
ATOM     24  C   UNL     1       1.955   7.648  19.777  0.00  0.00    +0.000 A 
ENDBRANCH  17  18
ENDBRANCH   9  17
TORSDOF 6
ENDMDL
MODEL 4
REMARK VINA RESULT:      -6.3      1.300      1.617
REMARK  Name = 
REMARK  8 active torsions:
REMARK  status: ('A' for Active; 'I' for Inactive)
REMARK    1  A    between atoms: C_1  and  O_2
REMARK    2  A    between atoms: O_2  and  C_3
REMARK    3  A    between atoms: C_3  and  C_4
REMARK    4  A    between atoms: C_4  and  C_5
REMARK    5  A    between atoms: C_5  and  N_6
REMARK    6  A    between atoms: N_14  and  C_15
REMARK    7  A    between atoms: C_15  and  C_16
REMARK    8  A    between atoms: C_19  and  C_20
REMARK                            x       y       z     vdW  Elec       q    Type
REMARK                         _______ _______ _______ _____ _____    ______ ____
ROOT
ATOM      1  N   UNL     1       4.456   4.195  17.522  0.00  0.00    +0.000 N 
ATOM      2  C   UNL     1       3.644   3.072  17.732  0.00  0.00    +0.000 A 
ATOM      3  O   UNL     1       3.832   1.995  17.168  0.00  0.00    +0.000 OA
ATOM      4  C   UNL     1       2.587   3.298  18.674  0.00  0.00    +0.000 A 
ATOM      5  S   UNL     1       1.424   2.125  19.058  0.00  0.00    +0.000 S 
ATOM      6  C   UNL     1       0.667   3.176  20.177  0.00  0.00    +0.000 A 
ATOM      7  C   UNL     1       1.295   4.404  20.234  0.00  0.00    +0.000 A 
ATOM      8  C   UNL     1       2.423   4.471  19.362  0.00  0.00    +0.000 A 
ATOM      9  N   UNL     1       3.329   5.517  19.178  0.00  0.00    +0.000 N 
ATOM     10  C   UNL     1       4.401   5.371  18.283  0.00  0.00    +0.000 A 
ATOM     11  O   UNL     1       5.262   6.249  18.174  0.00  0.00    +0.000 OA
ENDROOT
BRANCH   1  12
ATOM     12  C   UNL     1       5.551   4.046  16.557  0.00  0.00    +0.000 C 
BRANCH  12  13
ATOM     13  C   UNL     1       5.369   4.917  15.305  0.00  0.00    +0.000 C 
BRANCH  13  14
ATOM     14  C   UNL     1       6.348   4.528  14.202  0.00  0.00    +0.000 C 
BRANCH  14  16
ATOM     15  C   UNL     1       6.487   3.398  12.133  0.00  0.00    +0.000 C 
ATOM     16  O   UNL     1       5.685   3.675  13.272  0.00  0.00    +0.000 OA
ENDBRANCH  14  16
ENDBRANCH  13  14
ENDBRANCH  12  13
ENDBRANCH   1  12
BRANCH   9  17
ATOM     17  C   UNL     1       3.250   6.757  19.956  0.00  0.00    +0.000 C 
BRANCH  17  18
ATOM     18  C   UNL     1       2.190   7.744  19.504  0.00  0.00    +0.000 A 
ATOM     19  C   UNL     1       1.352   8.339  20.462  0.00  0.00    +0.000 A 
ATOM     20  C   UNL     1       0.484   9.379  20.113  0.00  0.00    +0.000 A 
ATOM     21  C   UNL     1       0.434   9.851  18.799  0.00  0.00    +0.000 A 
ATOM     22  C   UNL     1      -0.418  11.032  18.428  0.00  0.00    +0.000 C 
ATOM     23  C   UNL     1       1.240   9.241  17.833  0.00  0.00    +0.000 A 
ATOM     24  C   UNL     1       2.110   8.204  18.182  0.00  0.00    +0.000 A 
ENDBRANCH  17  18
ENDBRANCH   9  17
TORSDOF 6
ENDMDL
MODEL 5
REMARK VINA RESULT:      -6.3      2.402      3.054
REMARK  Name = 
REMARK  8 active torsions:
REMARK  status: ('A' for Active; 'I' for Inactive)
REMARK    1  A    between atoms: C_1  and  O_2
REMARK    2  A    between atoms: O_2  and  C_3
REMARK    3  A    between atoms: C_3  and  C_4
REMARK    4  A    between atoms: C_4  and  C_5
REMARK    5  A    between atoms: C_5  and  N_6
REMARK    6  A    between atoms: N_14  and  C_15
REMARK    7  A    between atoms: C_15  and  C_16
REMARK    8  A    between atoms: C_19  and  C_20
REMARK                            x       y       z     vdW  Elec       q    Type
REMARK                         _______ _______ _______ _____ _____    ______ ____
ROOT
ATOM      1  N   UNL     1       5.721   5.855  17.620  0.00  0.00    +0.000 N 
ATOM      2  C   UNL     1       5.858   4.690  18.386  0.00  0.00    +0.000 A 
ATOM      3  O   UNL     1       6.948   4.181  18.641  0.00  0.00    +0.000 OA
ATOM      4  C   UNL     1       4.610   4.162  18.852  0.00  0.00    +0.000 A 
ATOM      5  S   UNL     1       4.489   2.724  19.744  0.00  0.00    +0.000 S 
ATOM      6  C   UNL     1       2.790   2.891  19.868  0.00  0.00    +0.000 A 
ATOM      7  C   UNL     1       2.336   4.022  19.222  0.00  0.00    +0.000 A 
ATOM      8  C   UNL     1       3.401   4.770  18.637  0.00  0.00    +0.000 A 
ATOM      9  N   UNL     1       3.347   5.984  17.949  0.00  0.00    +0.000 N 
ATOM     10  C   UNL     1       4.528   6.575  17.472  0.00  0.00    +0.000 A 
ATOM     11  O   UNL     1       4.510   7.691  16.941  0.00  0.00    +0.000 OA
ENDROOT
BRANCH   1  12
ATOM     12  C   UNL     1       6.956   6.447  17.093  0.00  0.00    +0.000 C 
BRANCH  12  13
ATOM     13  C   UNL     1       7.734   7.248  18.148  0.00  0.00    +0.000 C 
BRANCH  13  14
ATOM     14  C   UNL     1       8.009   8.674  17.682  0.00  0.00    +0.000 C 
BRANCH  14  16
ATOM     15  C   UNL     1       8.996  10.710  18.355  0.00  0.00    +0.000 C 
ATOM     16  O   UNL     1       8.814   9.334  18.655  0.00  0.00    +0.000 OA
ENDBRANCH  14  16
ENDBRANCH  13  14
ENDBRANCH  12  13
ENDBRANCH   1  12
BRANCH   9  17
ATOM     17  C   UNL     1       2.091   6.719  17.771  0.00  0.00    +0.000 C 
BRANCH  17  18
ATOM     18  C   UNL     1       1.824   7.809  18.793  0.00  0.00    +0.000 A 
ATOM     19  C   UNL     1       1.421   9.080  18.351  0.00  0.00    +0.000 A 
ATOM     20  C   UNL     1       0.997  10.057  19.258  0.00  0.00    +0.000 A 
ATOM     21  C   UNL     1       0.962   9.785  20.629  0.00  0.00    +0.000 A 
ATOM     22  C   UNL     1       0.416  10.786  21.607  0.00  0.00    +0.000 C 
ATOM     23  C   UNL     1       1.394   8.533  21.079  0.00  0.00    +0.000 A 
ATOM     24  C   UNL     1       1.815   7.557  20.171  0.00  0.00    +0.000 A 
ENDBRANCH  17  18
ENDBRANCH   9  17
TORSDOF 6
ENDMDL
MODEL 6
REMARK VINA RESULT:      -6.3      0.779      1.279
REMARK  Name = 
REMARK  8 active torsions:
REMARK  status: ('A' for Active; 'I' for Inactive)
REMARK    1  A    between atoms: C_1  and  O_2
REMARK    2  A    between atoms: O_2  and  C_3
REMARK    3  A    between atoms: C_3  and  C_4
REMARK    4  A    between atoms: C_4  and  C_5
REMARK    5  A    between atoms: C_5  and  N_6
REMARK    6  A    between atoms: N_14  and  C_15
REMARK    7  A    between atoms: C_15  and  C_16
REMARK    8  A    between atoms: C_19  and  C_20
REMARK                            x       y       z     vdW  Elec       q    Type
REMARK                         _______ _______ _______ _____ _____    ______ ____
ROOT
ATOM      1  N   UNL     1       3.909   4.811  17.180  0.00  0.00    +0.000 N 
ATOM      2  C   UNL     1       3.205   3.623  17.420  0.00  0.00    +0.000 A 
ATOM      3  O   UNL     1       3.368   2.603  16.754  0.00  0.00    +0.000 OA
ATOM      4  C   UNL     1       2.291   3.712  18.522  0.00  0.00    +0.000 A 
ATOM      5  S   UNL     1       1.270   2.438  18.981  0.00  0.00    +0.000 S 
ATOM      6  C   UNL     1       0.631   3.357  20.276  0.00  0.00    +0.000 A 
ATOM      7  C   UNL     1       1.188   4.618  20.334  0.00  0.00    +0.000 A 
ATOM      8  C   UNL     1       2.165   4.822  19.315  0.00  0.00    +0.000 A 
ATOM      9  N   UNL     1       2.970   5.938  19.081  0.00  0.00    +0.000 N 
ATOM     10  C   UNL     1       3.901   5.926  18.030  0.00  0.00    +0.000 A 
ATOM     11  O   UNL     1       4.684   6.868  17.864  0.00  0.00    +0.000 OA
ENDROOT
BRANCH   1  12
ATOM     12  C   UNL     1       4.852   4.804  16.058  0.00  0.00    +0.000 C 
BRANCH  12  13
ATOM     13  C   UNL     1       6.098   3.945  16.327  0.00  0.00    +0.000 C 
BRANCH  13  14
ATOM     14  C   UNL     1       7.234   4.773  16.917  0.00  0.00    +0.000 C 
BRANCH  14  16
ATOM     15  C   UNL     1       7.762   5.657  19.042  0.00  0.00    +0.000 C 
ATOM     16  O   UNL     1       7.315   4.520  18.318  0.00  0.00    +0.000 OA
ENDBRANCH  14  16
ENDBRANCH  13  14
ENDBRANCH  12  13
ENDBRANCH   1  12
BRANCH   9  17
ATOM     17  C   UNL     1       2.938   7.114  19.955  0.00  0.00    +0.000 C 
BRANCH  17  18
ATOM     18  C   UNL     1       1.951   8.196  19.557  0.00  0.00    +0.000 A 
ATOM     19  C   UNL     1       1.829   8.549  18.203  0.00  0.00    +0.000 A 
ATOM     20  C   UNL     1       0.814   9.410  17.772  0.00  0.00    +0.000 A 
ATOM     21  C   UNL     1      -0.104   9.938  18.685  0.00  0.00    +0.000 A 
ATOM     22  C   UNL     1      -1.258  10.783  18.226  0.00  0.00    +0.000 C 
ATOM     23  C   UNL     1       0.033   9.618  20.039  0.00  0.00    +0.000 A 
ATOM     24  C   UNL     1       1.045   8.755  20.469  0.00  0.00    +0.000 A 
ENDBRANCH  17  18
ENDBRANCH   9  17
TORSDOF 6
ENDMDL
MODEL 7
REMARK VINA RESULT:      -6.2      2.438      6.253
REMARK  Name = 
REMARK  8 active torsions:
REMARK  status: ('A' for Active; 'I' for Inactive)
REMARK    1  A    between atoms: C_1  and  O_2
REMARK    2  A    between atoms: O_2  and  C_3
REMARK    3  A    between atoms: C_3  and  C_4
REMARK    4  A    between atoms: C_4  and  C_5
REMARK    5  A    between atoms: C_5  and  N_6
REMARK    6  A    between atoms: N_14  and  C_15
REMARK    7  A    between atoms: C_15  and  C_16
REMARK    8  A    between atoms: C_19  and  C_20
REMARK                            x       y       z     vdW  Elec       q    Type
REMARK                         _______ _______ _______ _____ _____    ______ ____
ROOT
ATOM      1  N   UNL     1       3.782   4.411  19.718  0.00  0.00    +0.000 N 
ATOM      2  C   UNL     1       2.738   5.328  19.895  0.00  0.00    +0.000 A 
ATOM      3  O   UNL     1       1.837   5.167  20.716  0.00  0.00    +0.000 OA
ATOM      4  C   UNL     1       2.832   6.474  19.039  0.00  0.00    +0.000 A 
ATOM      5  S   UNL     1       1.662   7.702  19.004  0.00  0.00    +0.000 S 
ATOM      6  C   UNL     1       2.546   8.573  17.826  0.00  0.00    +0.000 A 
ATOM      7  C   UNL     1       3.705   7.918  17.464  0.00  0.00    +0.000 A 
ATOM      8  C   UNL     1       3.877   6.696  18.180  0.00  0.00    +0.000 A 
ATOM      9  N   UNL     1       4.936   5.788  18.126  0.00  0.00    +0.000 N 
ATOM     10  C   UNL     1       4.927   4.646  18.944  0.00  0.00    +0.000 A 
ATOM     11  O   UNL     1       5.896   3.880  18.976  0.00  0.00    +0.000 OA
ENDROOT
BRANCH   1  12
ATOM     12  C   UNL     1       3.747   3.203  20.549  0.00  0.00    +0.000 C 
BRANCH  12  13
ATOM     13  C   UNL     1       2.796   2.127  20.002  0.00  0.00    +0.000 C 
BRANCH  13  14
ATOM     14  C   UNL     1       2.986   1.917  18.504  0.00  0.00    +0.000 C 
BRANCH  14  16
ATOM     15  C   UNL     1       0.684   2.404  18.699  0.00  0.00    +0.000 C 
ATOM     16  O   UNL     1       1.799   2.315  17.823  0.00  0.00    +0.000 OA
ENDBRANCH  14  16
ENDBRANCH  13  14
ENDBRANCH  12  13
ENDBRANCH   1  12
BRANCH   9  17
ATOM     17  C   UNL     1       6.118   6.025  17.292  0.00  0.00    +0.000 C 
BRANCH  17  18
ATOM     18  C   UNL     1       6.198   5.195  16.024  0.00  0.00    +0.000 A 
ATOM     19  C   UNL     1       5.062   4.491  15.591  0.00  0.00    +0.000 A 
ATOM     20  C   UNL     1       5.039   3.859  14.343  0.00  0.00    +0.000 A 
ATOM     21  C   UNL     1       6.149   3.919  13.496  0.00  0.00    +0.000 A 
ATOM     22  C   UNL     1       6.106   3.332  12.114  0.00  0.00    +0.000 C 
ATOM     23  C   UNL     1       7.295   4.589  13.935  0.00  0.00    +0.000 A 
ATOM     24  C   UNL     1       7.317   5.223  15.181  0.00  0.00    +0.000 A 
ENDBRANCH  17  18
ENDBRANCH   9  17
TORSDOF 6
ENDMDL
MODEL 8
REMARK VINA RESULT:      -6.2      1.503      2.087
REMARK  Name = 
REMARK  8 active torsions:
REMARK  status: ('A' for Active; 'I' for Inactive)
REMARK    1  A    between atoms: C_1  and  O_2
REMARK    2  A    between atoms: O_2  and  C_3
REMARK    3  A    between atoms: C_3  and  C_4
REMARK    4  A    between atoms: C_4  and  C_5
REMARK    5  A    between atoms: C_5  and  N_6
REMARK    6  A    between atoms: N_14  and  C_15
REMARK    7  A    between atoms: C_15  and  C_16
REMARK    8  A    between atoms: C_19  and  C_20
REMARK                            x       y       z     vdW  Elec       q    Type
REMARK                         _______ _______ _______ _____ _____    ______ ____
ROOT
ATOM      1  N   UNL     1       5.333   5.081  18.634  0.00  0.00    +0.000 N 
ATOM      2  C   UNL     1       4.739   3.879  19.042  0.00  0.00    +0.000 A 
ATOM      3  O   UNL     1       5.359   2.988  19.620  0.00  0.00    +0.000 OA
ATOM      4  C   UNL     1       3.341   3.798  18.733  0.00  0.00    +0.000 A 
ATOM      5  S   UNL     1       2.400   2.425  19.059  0.00  0.00    +0.000 S 
ATOM      6  C   UNL     1       0.997   3.184  18.438  0.00  0.00    +0.000 A 
ATOM      7  C   UNL     1       1.262   4.458  17.979  0.00  0.00    +0.000 A 
ATOM      8  C   UNL     1       2.630   4.820  18.161  0.00  0.00    +0.000 A 
ATOM      9  N   UNL     1       3.265   6.030  17.870  0.00  0.00    +0.000 N 
ATOM     10  C   UNL     1       4.630   6.195  18.156  0.00  0.00    +0.000 A 
ATOM     11  O   UNL     1       5.186   7.286  17.989  0.00  0.00    +0.000 OA
ENDROOT
BRANCH   1  12
ATOM     12  C   UNL     1       6.767   5.232  18.901  0.00  0.00    +0.000 C 
BRANCH  12  13
ATOM     13  C   UNL     1       7.649   4.699  17.761  0.00  0.00    +0.000 C 
BRANCH  13  14
ATOM     14  C   UNL     1       7.356   5.411  16.445  0.00  0.00    +0.000 C 
BRANCH  14  16
ATOM     15  C   UNL     1       6.132   3.965  15.036  0.00  0.00    +0.000 C 
ATOM     16  O   UNL     1       7.416   4.464  15.381  0.00  0.00    +0.000 OA
ENDBRANCH  14  16
ENDBRANCH  13  14
ENDBRANCH  12  13
ENDBRANCH   1  12
BRANCH   9  17
ATOM     17  C   UNL     1       2.530   7.183  17.342  0.00  0.00    +0.000 C 
BRANCH  17  18
ATOM     18  C   UNL     1       1.826   8.038  18.379  0.00  0.00    +0.000 A 
ATOM     19  C   UNL     1       1.889   7.668  19.733  0.00  0.00    +0.000 A 
ATOM     20  C   UNL     1       1.407   8.516  20.735  0.00  0.00    +0.000 A 
ATOM     21  C   UNL     1       0.851   9.756  20.409  0.00  0.00    +0.000 A 
ATOM     22  C   UNL     1       0.421  10.721  21.477  0.00  0.00    +0.000 C 
ATOM     23  C   UNL     1       0.754  10.117  19.061  0.00  0.00    +0.000 A 
ATOM     24  C   UNL     1       1.239   9.270  18.060  0.00  0.00    +0.000 A 
ENDBRANCH  17  18
ENDBRANCH   9  17
TORSDOF 6
ENDMDL
MODEL 9
REMARK VINA RESULT:      -6.2      5.070      8.638
REMARK  Name = 
REMARK  8 active torsions:
REMARK  status: ('A' for Active; 'I' for Inactive)
REMARK    1  A    between atoms: C_1  and  O_2
REMARK    2  A    between atoms: O_2  and  C_3
REMARK    3  A    between atoms: C_3  and  C_4
REMARK    4  A    between atoms: C_4  and  C_5
REMARK    5  A    between atoms: C_5  and  N_6
REMARK    6  A    between atoms: N_14  and  C_15
REMARK    7  A    between atoms: C_15  and  C_16
REMARK    8  A    between atoms: C_19  and  C_20
REMARK                            x       y       z     vdW  Elec       q    Type
REMARK                         _______ _______ _______ _____ _____    ______ ____
ROOT
ATOM      1  N   UNL     1      -1.000  12.455  20.523  0.00  0.00    +0.000 N 
ATOM      2  C   UNL     1      -2.252  12.323  19.909  0.00  0.00    +0.000 A 
ATOM      3  O   UNL     1      -3.252  12.931  20.288  0.00  0.00    +0.000 OA
ATOM      4  C   UNL     1      -2.250  11.425  18.791  0.00  0.00    +0.000 A 
ATOM      5  S   UNL     1      -3.648  11.036  17.913  0.00  0.00    +0.000 S 
ATOM      6  C   UNL     1      -2.759  10.022  16.859  0.00  0.00    +0.000 A 
ATOM      7  C   UNL     1      -1.421   9.980  17.194  0.00  0.00    +0.000 A 
ATOM      8  C   UNL     1      -1.122  10.808  18.317  0.00  0.00    +0.000 A 
ATOM      9  N   UNL     1       0.113  11.062  18.916  0.00  0.00    +0.000 N 
ATOM     10  C   UNL     1       0.198  11.941  20.007  0.00  0.00    +0.000 A 
ATOM     11  O   UNL     1       1.292  12.247  20.492  0.00  0.00    +0.000 OA
ENDROOT
BRANCH   1  12
ATOM     12  C   UNL     1      -0.926  13.346  21.685  0.00  0.00    +0.000 C 
BRANCH  12  13
ATOM     13  C   UNL     1      -1.573  12.746  22.943  0.00  0.00    +0.000 C 
BRANCH  13  14
ATOM     14  C   UNL     1      -1.538  11.221  22.921  0.00  0.00    +0.000 C 
BRANCH  14  16
ATOM     15  C   UNL     1       0.079   9.502  22.983  0.00  0.00    +0.000 C 
ATOM     16  O   UNL     1      -0.304  10.776  23.479  0.00  0.00    +0.000 OA
ENDBRANCH  14  16
ENDBRANCH  13  14
ENDBRANCH  12  13
ENDBRANCH   1  12
BRANCH   9  17
ATOM     17  C   UNL     1       1.360  10.498  18.391  0.00  0.00    +0.000 C 
BRANCH  17  18
ATOM     18  C   UNL     1       1.628   9.050  18.759  0.00  0.00    +0.000 A 
ATOM     19  C   UNL     1       2.293   8.220  17.843  0.00  0.00    +0.000 A 
ATOM     20  C   UNL     1       2.714   6.937  18.207  0.00  0.00    +0.000 A 
ATOM     21  C   UNL     1       2.482   6.454  19.498  0.00  0.00    +0.000 A 
ATOM     22  C   UNL     1       3.014   5.119  19.937  0.00  0.00    +0.000 C 
ATOM     23  C   UNL     1       1.789   7.262  20.405  0.00  0.00    +0.000 A 
ATOM     24  C   UNL     1       1.372   8.545  20.042  0.00  0.00    +0.000 A 
ENDBRANCH  17  18
ENDBRANCH   9  17
TORSDOF 6
ENDMDL
