MODEL 1
REMARK VINA RESULT:      -7.5      0.000      0.000
REMARK  Name = 
REMARK  6 active torsions:
REMARK  status: ('A' for Active; 'I' for Inactive)
REMARK    1  A    between atoms: C_1  and  C_2
REMARK    2  A    between atoms: C_4  and  C_5
REMARK    3  A    between atoms: C_5  and  S_6
REMARK    4  A    between atoms: S_6  and  C_7
REMARK    5  A    between atoms: C_7  and  C_8
REMARK    6  A    between atoms: C_7  and  C_14
REMARK                            x       y       z     vdW  Elec       q    Type
REMARK                         _______ _______ _______ _____ _____    ______ ____
ROOT
ATOM      1  C   UNL     1       2.827   6.245  18.211  0.00  0.00    +0.000 C 
ENDROOT
BRANCH   1   2
ATOM      2  C   UNL     1       4.349   6.105  18.167  0.00  0.00    +0.000 A 
ATOM      3  C   UNL     1       5.072   5.399  19.141  0.00  0.00    +0.000 A 
ATOM      4  C   UNL     1       6.465   5.294  19.078  0.00  0.00    +0.000 A 
ATOM      5  C   UNL     1       7.169   5.909  18.048  0.00  0.00    +0.000 A 
ATOM      6  C   UNL     1       6.477   6.612  17.067  0.00  0.00    +0.000 A 
ATOM      7  C   UNL     1       5.079   6.704  17.124  0.00  0.00    +0.000 A 
ENDBRANCH   1   2
BRANCH   1   8
ATOM      8  C   UNL     1       2.086   5.006  18.741  0.00  0.00    +0.000 A 
ATOM      9  C   UNL     1       1.703   4.928  20.090  0.00  0.00    +0.000 A 
ATOM     10  C   UNL     1       1.148   3.752  20.609  0.00  0.00    +0.000 A 
ATOM     11  C   UNL     1       0.956   2.638  19.791  0.00  0.00    +0.000 A 
ATOM     12  C   UNL     1       1.294   2.710  18.446  0.00  0.00    +0.000 A 
ATOM     13  C   UNL     1       1.845   3.882  17.929  0.00  0.00    +0.000 A 
ENDBRANCH   1   8
BRANCH   1  14
ATOM     14  S   UNL     1       2.237   7.724  19.178  0.00  0.00    +0.000 S 
BRANCH  14  15
ATOM     15  C   UNL     1       1.976   8.949  17.872  0.00  0.00    +0.000 C 
BRANCH  15  19
ATOM     16  C   UNL     1      -2.547  10.912  18.022  0.00  0.00    +0.000 C 
ATOM     17  C   UNL     1      -1.082  10.819  18.248  0.00  0.00    +0.000 A 
ATOM     18  N   UNL     1      -0.349   9.791  17.882  0.00  0.00    +0.000 NA
ATOM     19  C   UNL     1       0.976   9.994  18.232  0.00  0.00    +0.000 A 
ATOM     20  C   UNL     1       1.220  11.197  18.873  0.00  0.00    +0.000 A 
ATOM     21  S   UNL     1      -0.235  12.087  19.030  0.00  0.00    +0.000 S 
ENDBRANCH  15  19
ENDBRANCH  14  15
ENDBRANCH   1  14
TORSDOF 5
ENDMDL
MODEL 2
REMARK VINA RESULT:      -7.5      0.166      1.062
REMARK  Name = 
REMARK  6 active torsions:
REMARK  status: ('A' for Active; 'I' for Inactive)
REMARK    1  A    between atoms: C_1  and  C_2
REMARK    2  A    between atoms: C_4  and  C_5
REMARK    3  A    between atoms: C_5  and  S_6
REMARK    4  A    between atoms: S_6  and  C_7
REMARK    5  A    between atoms: C_7  and  C_8
REMARK    6  A    between atoms: C_7  and  C_14
REMARK                            x       y       z     vdW  Elec       q    Type
REMARK                         _______ _______ _______ _____ _____    ______ ____
ROOT
ATOM      1  C   UNL     1       2.932   6.209  18.224  0.00  0.00    +0.000 C 
ENDROOT
BRANCH   1   2
ATOM      2  C   UNL     1       4.459   6.138  18.176  0.00  0.00    +0.000 A 
ATOM      3  C   UNL     1       5.210   5.394  19.099  0.00  0.00    +0.000 A 
ATOM      4  C   UNL     1       6.606   5.356  19.034  0.00  0.00    +0.000 A 
ATOM      5  C   UNL     1       7.285   6.075  18.055  0.00  0.00    +0.000 A 
ATOM      6  C   UNL     1       6.563   6.818  17.126  0.00  0.00    +0.000 A 
ATOM      7  C   UNL     1       5.163   6.844  17.184  0.00  0.00    +0.000 A 
ENDBRANCH   1   2
BRANCH   1   8
ATOM      8  C   UNL     1       2.250   4.942  18.769  0.00  0.00    +0.000 A 
ATOM      9  C   UNL     1       2.014   3.842  17.929  0.00  0.00    +0.000 A 
ATOM     10  C   UNL     1       1.278   2.740  18.382  0.00  0.00    +0.000 A 
ATOM     11  C   UNL     1       0.773   2.712  19.682  0.00  0.00    +0.000 A 
ATOM     12  C   UNL     1       1.029   3.774  20.539  0.00  0.00    +0.000 A 
ATOM     13  C   UNL     1       1.764   4.870  20.088  0.00  0.00    +0.000 A 
ENDBRANCH   1   8
BRANCH   1  14
ATOM     14  S   UNL     1       2.276   7.668  19.177  0.00  0.00    +0.000 S 
BRANCH  14  15
ATOM     15  C   UNL     1       1.881   8.836  17.854  0.00  0.00    +0.000 C 
BRANCH  15  19
ATOM     16  C   UNL     1      -2.601  10.899  17.916  0.00  0.00    +0.000 C 
ATOM     17  C   UNL     1      -1.155  10.743  18.223  0.00  0.00    +0.000 A 
ATOM     18  N   UNL     1      -0.422   9.738  17.802  0.00  0.00    +0.000 NA
ATOM     19  C   UNL     1       0.881   9.868  18.254  0.00  0.00    +0.000 A 
ATOM     20  C   UNL     1       1.108  10.994  19.028  0.00  0.00    +0.000 A 
ATOM     21  S   UNL     1      -0.335  11.904  19.182  0.00  0.00    +0.000 S 
ENDBRANCH  15  19
ENDBRANCH  14  15
ENDBRANCH   1  14
TORSDOF 5
ENDMDL
MODEL 3
REMARK VINA RESULT:      -7.5      0.214      1.494
REMARK  Name = 
REMARK  6 active torsions:
REMARK  status: ('A' for Active; 'I' for Inactive)
REMARK    1  A    between atoms: C_1  and  C_2
REMARK    2  A    between atoms: C_4  and  C_5
REMARK    3  A    between atoms: C_5  and  S_6
REMARK    4  A    between atoms: S_6  and  C_7
REMARK    5  A    between atoms: C_7  and  C_8
REMARK    6  A    between atoms: C_7  and  C_14
REMARK                            x       y       z     vdW  Elec       q    Type
REMARK                         _______ _______ _______ _____ _____    ______ ____
ROOT
ATOM      1  C   UNL     1       2.977   6.169  18.152  0.00  0.00    +0.000 C 
ENDROOT
BRANCH   1   2
ATOM      2  C   UNL     1       4.505   6.115  18.113  0.00  0.00    +0.000 A 
ATOM      3  C   UNL     1       5.257   6.704  17.084  0.00  0.00    +0.000 A 
ATOM      4  C   UNL     1       6.653   6.630  17.073  0.00  0.00    +0.000 A 
ATOM      5  C   UNL     1       7.329   5.952  18.082  0.00  0.00    +0.000 A 
ATOM      6  C   UNL     1       6.608   5.363  19.115  0.00  0.00    +0.000 A 
ATOM      7  C   UNL     1       5.209   5.449  19.133  0.00  0.00    +0.000 A 
ENDBRANCH   1   2
BRANCH   1   8
ATOM      8  C   UNL     1       2.305   4.885  18.668  0.00  0.00    +0.000 A 
ATOM      9  C   UNL     1       2.217   3.748  17.849  0.00  0.00    +0.000 A 
ATOM     10  C   UNL     1       1.492   2.623  18.263  0.00  0.00    +0.000 A 
ATOM     11  C   UNL     1       0.853   2.609  19.503  0.00  0.00    +0.000 A 
ATOM     12  C   UNL     1       0.962   3.710  20.341  0.00  0.00    +0.000 A 
ATOM     13  C   UNL     1       1.685   4.829  19.931  0.00  0.00    +0.000 A 
ENDBRANCH   1   8
BRANCH   1  14
ATOM     14  S   UNL     1       2.300   7.604  19.129  0.00  0.00    +0.000 S 
BRANCH  14  15
ATOM     15  C   UNL     1       2.109   8.872  17.853  0.00  0.00    +0.000 C 
BRANCH  15  19
ATOM     16  C   UNL     1      -2.439  10.771  18.077  0.00  0.00    +0.000 C 
ATOM     17  C   UNL     1      -0.965  10.709  18.255  0.00  0.00    +0.000 A 
ATOM     18  N   UNL     1      -0.228   9.678  17.908  0.00  0.00    +0.000 NA
ATOM     19  C   UNL     1       1.105   9.916  18.203  0.00  0.00    +0.000 A 
ATOM     20  C   UNL     1       1.351  11.149  18.783  0.00  0.00    +0.000 A 
ATOM     21  S   UNL     1      -0.113  12.024  18.952  0.00  0.00    +0.000 S 
ENDBRANCH  15  19
ENDBRANCH  14  15
ENDBRANCH   1  14
TORSDOF 5
ENDMDL
MODEL 4
REMARK VINA RESULT:      -7.4      0.160      1.053
REMARK  Name = 
REMARK  6 active torsions:
REMARK  status: ('A' for Active; 'I' for Inactive)
REMARK    1  A    between atoms: C_1  and  C_2
REMARK    2  A    between atoms: C_4  and  C_5
REMARK    3  A    between atoms: C_5  and  S_6
REMARK    4  A    between atoms: S_6  and  C_7
REMARK    5  A    between atoms: C_7  and  C_8
REMARK    6  A    between atoms: C_7  and  C_14
REMARK                            x       y       z     vdW  Elec       q    Type
REMARK                         _______ _______ _______ _____ _____    ______ ____
ROOT
ATOM      1  C   UNL     1       2.778   6.192  18.164  0.00  0.00    +0.000 C 
ENDROOT
BRANCH   1   2
ATOM      2  C   UNL     1       4.297   6.055  18.049  0.00  0.00    +0.000 A 
ATOM      3  C   UNL     1       5.007   6.445  16.903  0.00  0.00    +0.000 A 
ATOM      4  C   UNL     1       6.395   6.300  16.825  0.00  0.00    +0.000 A 
ATOM      5  C   UNL     1       7.105   5.747  17.886  0.00  0.00    +0.000 A 
ATOM      6  C   UNL     1       6.426   5.355  19.035  0.00  0.00    +0.000 A 
ATOM      7  C   UNL     1       5.036   5.513  19.118  0.00  0.00    +0.000 A 
ENDBRANCH   1   2
BRANCH   1   8
ATOM      8  C   UNL     1       2.065   4.946  18.717  0.00  0.00    +0.000 A 
ATOM      9  C   UNL     1       1.666   4.891  20.062  0.00  0.00    +0.000 A 
ATOM     10  C   UNL     1       1.137   3.714  20.605  0.00  0.00    +0.000 A 
ATOM     11  C   UNL     1       0.988   2.574  19.813  0.00  0.00    +0.000 A 
ATOM     12  C   UNL     1       1.342   2.621  18.472  0.00  0.00    +0.000 A 
ATOM     13  C   UNL     1       1.867   3.795  17.931  0.00  0.00    +0.000 A 
ENDBRANCH   1   8
BRANCH   1  14
ATOM     14  S   UNL     1       2.230   7.660  19.171  0.00  0.00    +0.000 S 
BRANCH  14  15
ATOM     15  C   UNL     1       2.096   8.952  17.912  0.00  0.00    +0.000 C 
BRANCH  15  19
ATOM     16  C   UNL     1      -2.452  10.855  18.086  0.00  0.00    +0.000 C 
ATOM     17  C   UNL     1      -0.980  10.795  18.275  0.00  0.00    +0.000 A 
ATOM     18  N   UNL     1      -0.241   9.760  17.943  0.00  0.00    +0.000 NA
ATOM     19  C   UNL     1       1.090  10.000  18.244  0.00  0.00    +0.000 A 
ATOM     20  C   UNL     1       1.333  11.239  18.813  0.00  0.00    +0.000 A 
ATOM     21  S   UNL     1      -0.132  12.116  18.964  0.00  0.00    +0.000 S 
ENDBRANCH  15  19
ENDBRANCH  14  15
ENDBRANCH   1  14
TORSDOF 5
ENDMDL
MODEL 5
REMARK VINA RESULT:      -7.4      1.283      2.226
REMARK  Name = 
REMARK  6 active torsions:
REMARK  status: ('A' for Active; 'I' for Inactive)
REMARK    1  A    between atoms: C_1  and  C_2
REMARK    2  A    between atoms: C_4  and  C_5
REMARK    3  A    between atoms: C_5  and  S_6
REMARK    4  A    between atoms: S_6  and  C_7
REMARK    5  A    between atoms: C_7  and  C_8
REMARK    6  A    between atoms: C_7  and  C_14
REMARK                            x       y       z     vdW  Elec       q    Type
REMARK                         _______ _______ _______ _____ _____    ______ ____
ROOT
ATOM      1  C   UNL     1       3.154   6.020  18.052  0.00  0.00    +0.000 C 
ENDROOT
BRANCH   1   2
ATOM      2  C   UNL     1       4.681   6.041  18.123  0.00  0.00    +0.000 A 
ATOM      3  C   UNL     1       5.476   6.659  17.145  0.00  0.00    +0.000 A 
ATOM      4  C   UNL     1       6.871   6.653  17.234  0.00  0.00    +0.000 A 
ATOM      5  C   UNL     1       7.505   6.015  18.295  0.00  0.00    +0.000 A 
ATOM      6  C   UNL     1       6.741   5.397  19.280  0.00  0.00    +0.000 A 
ATOM      7  C   UNL     1       5.342   5.415  19.196  0.00  0.00    +0.000 A 
ENDBRANCH   1   2
BRANCH   1   8
ATOM      8  C   UNL     1       2.513   4.683  18.460  0.00  0.00    +0.000 A 
ATOM      9  C   UNL     1       2.685   3.538  17.665  0.00  0.00    +0.000 A 
ATOM     10  C   UNL     1       1.998   2.353  17.957  0.00  0.00    +0.000 A 
ATOM     11  C   UNL     1       1.136   2.287  19.052  0.00  0.00    +0.000 A 
ATOM     12  C   UNL     1       0.983   3.397  19.872  0.00  0.00    +0.000 A 
ATOM     13  C   UNL     1       1.668   4.576  19.581  0.00  0.00    +0.000 A 
ENDBRANCH   1   8
BRANCH   1  14
ATOM     14  S   UNL     1       2.338   7.373  19.040  0.00  0.00    +0.000 S 
BRANCH  14  15
ATOM     15  C   UNL     1       2.071   8.648  17.786  0.00  0.00    +0.000 C 
BRANCH  15  19
ATOM     16  C   UNL     1       2.393  13.544  18.303  0.00  0.00    +0.000 C 
ATOM     17  C   UNL     1       1.892  12.166  18.546  0.00  0.00    +0.000 A 
ATOM     18  N   UNL     1       2.343  11.102  17.920  0.00  0.00    +0.000 NA
ATOM     19  C   UNL     1       1.679   9.967  18.357  0.00  0.00    +0.000 A 
ATOM     20  C   UNL     1       0.717  10.205  19.325  0.00  0.00    +0.000 A 
ATOM     21  S   UNL     1       0.652  11.877  19.694  0.00  0.00    +0.000 S 
ENDBRANCH  15  19
ENDBRANCH  14  15
ENDBRANCH   1  14
TORSDOF 5
ENDMDL
MODEL 6
REMARK VINA RESULT:      -7.4      0.988      1.031
REMARK  Name = 
REMARK  6 active torsions:
REMARK  status: ('A' for Active; 'I' for Inactive)
REMARK    1  A    between atoms: C_1  and  C_2
REMARK    2  A    between atoms: C_4  and  C_5
REMARK    3  A    between atoms: C_5  and  S_6
REMARK    4  A    between atoms: S_6  and  C_7
REMARK    5  A    between atoms: C_7  and  C_8
REMARK    6  A    between atoms: C_7  and  C_14
REMARK                            x       y       z     vdW  Elec       q    Type
REMARK                         _______ _______ _______ _____ _____    ______ ____
ROOT
ATOM      1  C   UNL     1       3.283   6.077  17.909  0.00  0.00    +0.000 C 
ENDROOT
BRANCH   1   2
ATOM      2  C   UNL     1       4.801   6.058  18.093  0.00  0.00    +0.000 A 
ATOM      3  C   UNL     1       5.426   5.384  19.154  0.00  0.00    +0.000 A 
ATOM      4  C   UNL     1       6.816   5.392  19.299  0.00  0.00    +0.000 A 
ATOM      5  C   UNL     1       7.614   6.089  18.397  0.00  0.00    +0.000 A 
ATOM      6  C   UNL     1       7.019   6.763  17.335  0.00  0.00    +0.000 A 
ATOM      7  C   UNL     1       5.626   6.742  17.182  0.00  0.00    +0.000 A 
ENDBRANCH   1   2
BRANCH   1   8
ATOM      8  C   UNL     1       2.587   4.736  18.200  0.00  0.00    +0.000 A 
ATOM      9  C   UNL     1       1.751   4.595  19.319  0.00  0.00    +0.000 A 
ATOM     10  C   UNL     1       1.221   3.346  19.664  0.00  0.00    +0.000 A 
ATOM     11  C   UNL     1       1.508   2.218  18.894  0.00  0.00    +0.000 A 
ATOM     12  C   UNL     1       2.302   2.345  17.763  0.00  0.00    +0.000 A 
ATOM     13  C   UNL     1       2.828   3.590  17.418  0.00  0.00    +0.000 A 
ENDBRANCH   1   8
BRANCH   1  14
ATOM     14  S   UNL     1       2.421   7.397  18.902  0.00  0.00    +0.000 S 
BRANCH  14  15
ATOM     15  C   UNL     1       2.109   8.666  17.651  0.00  0.00    +0.000 C 
BRANCH  15  19
ATOM     16  C   UNL     1      -1.234  11.468  19.956  0.00  0.00    +0.000 C 
ATOM     17  C   UNL     1       0.031  11.139  19.250  0.00  0.00    +0.000 A 
ATOM     18  N   UNL     1       0.345   9.932  18.835  0.00  0.00    +0.000 NA
ATOM     19  C   UNL     1       1.586   9.941  18.219  0.00  0.00    +0.000 A 
ATOM     20  C   UNL     1       2.198  11.183  18.183  0.00  0.00    +0.000 A 
ATOM     21  S   UNL     1       1.195  12.356  18.928  0.00  0.00    +0.000 S 
ENDBRANCH  15  19
ENDBRANCH  14  15
ENDBRANCH   1  14
TORSDOF 5
ENDMDL
MODEL 7
REMARK VINA RESULT:      -7.3      1.117      1.650
REMARK  Name = 
REMARK  6 active torsions:
REMARK  status: ('A' for Active; 'I' for Inactive)
REMARK    1  A    between atoms: C_1  and  C_2
REMARK    2  A    between atoms: C_4  and  C_5
REMARK    3  A    between atoms: C_5  and  S_6
REMARK    4  A    between atoms: S_6  and  C_7
REMARK    5  A    between atoms: C_7  and  C_8
REMARK    6  A    between atoms: C_7  and  C_14
REMARK                            x       y       z     vdW  Elec       q    Type
REMARK                         _______ _______ _______ _____ _____    ______ ____
ROOT
ATOM      1  C   UNL     1       2.864   6.188  18.170  0.00  0.00    +0.000 C 
ENDROOT
BRANCH   1   2
ATOM      2  C   UNL     1       4.385   6.041  18.112  0.00  0.00    +0.000 A 
ATOM      3  C   UNL     1       5.130   5.469  19.154  0.00  0.00    +0.000 A 
ATOM      4  C   UNL     1       6.521   5.355  19.074  0.00  0.00    +0.000 A 
ATOM      5  C   UNL     1       7.202   5.826  17.955  0.00  0.00    +0.000 A 
ATOM      6  C   UNL     1       6.486   6.394  16.906  0.00  0.00    +0.000 A 
ATOM      7  C   UNL     1       5.090   6.495  16.982  0.00  0.00    +0.000 A 
ENDBRANCH   1   2
BRANCH   1   8
ATOM      8  C   UNL     1       2.126   4.971  18.753  0.00  0.00    +0.000 A 
ATOM      9  C   UNL     1       1.772   4.935  20.111  0.00  0.00    +0.000 A 
ATOM     10  C   UNL     1       1.220   3.779  20.677  0.00  0.00    +0.000 A 
ATOM     11  C   UNL     1       1.003   2.643  19.896  0.00  0.00    +0.000 A 
ATOM     12  C   UNL     1       1.311   2.673  18.543  0.00  0.00    +0.000 A 
ATOM     13  C   UNL     1       1.859   3.825  17.980  0.00  0.00    +0.000 A 
ENDBRANCH   1   8
BRANCH   1  14
ATOM     14  S   UNL     1       2.291   7.702  19.093  0.00  0.00    +0.000 S 
BRANCH  14  15
ATOM     15  C   UNL     1       2.187   8.932  17.772  0.00  0.00    +0.000 C 
BRANCH  15  19
ATOM     16  C   UNL     1       2.414  13.827  18.348  0.00  0.00    +0.000 C 
ATOM     17  C   UNL     1       1.860  12.454  18.467  0.00  0.00    +0.000 A 
ATOM     18  N   UNL     1       2.437  11.385  17.966  0.00  0.00    +0.000 NA
ATOM     19  C   UNL     1       1.681  10.256  18.234  0.00  0.00    +0.000 A 
ATOM     20  C   UNL     1       0.519  10.502  18.946  0.00  0.00    +0.000 A 
ATOM     21  S   UNL     1       0.381  12.176  19.289  0.00  0.00    +0.000 S 
ENDBRANCH  15  19
ENDBRANCH  14  15
ENDBRANCH   1  14
TORSDOF 5
ENDMDL
MODEL 8
REMARK VINA RESULT:      -7.3      1.407      2.154
REMARK  Name = 
REMARK  6 active torsions:
REMARK  status: ('A' for Active; 'I' for Inactive)
REMARK    1  A    between atoms: C_1  and  C_2
REMARK    2  A    between atoms: C_4  and  C_5
REMARK    3  A    between atoms: C_5  and  S_6
REMARK    4  A    between atoms: S_6  and  C_7
REMARK    5  A    between atoms: C_7  and  C_8
REMARK    6  A    between atoms: C_7  and  C_14
REMARK                            x       y       z     vdW  Elec       q    Type
REMARK                         _______ _______ _______ _____ _____    ______ ____
ROOT
ATOM      1  C   UNL     1       3.102   6.037  18.275  0.00  0.00    +0.000 C 
ENDROOT
BRANCH   1   2
ATOM      2  C   UNL     1       4.629   6.082  18.204  0.00  0.00    +0.000 A 
ATOM      3  C   UNL     1       5.319   6.745  17.178  0.00  0.00    +0.000 A 
ATOM      4  C   UNL     1       6.716   6.762  17.137  0.00  0.00    +0.000 A 
ATOM      5  C   UNL     1       7.456   6.101  18.112  0.00  0.00    +0.000 A 
ATOM      6  C   UNL     1       6.796   5.438  19.142  0.00  0.00    +0.000 A 
ATOM      7  C   UNL     1       5.396   5.434  19.190  0.00  0.00    +0.000 A 
ENDBRANCH   1   2
BRANCH   1   8
ATOM      8  C   UNL     1       2.514   4.635  18.517  0.00  0.00    +0.000 A 
ATOM      9  C   UNL     1       2.802   3.580  17.636  0.00  0.00    +0.000 A 
ATOM     10  C   UNL     1       2.167   2.340  17.774  0.00  0.00    +0.000 A 
ATOM     11  C   UNL     1       1.244   2.127  18.798  0.00  0.00    +0.000 A 
ATOM     12  C   UNL     1       0.975   3.147  19.701  0.00  0.00    +0.000 A 
ATOM     13  C   UNL     1       1.609   4.382  19.564  0.00  0.00    +0.000 A 
ENDBRANCH   1   8
BRANCH   1  14
ATOM     14  S   UNL     1       2.373   7.191  19.543  0.00  0.00    +0.000 S 
BRANCH  14  15
ATOM     15  C   UNL     1       1.864   8.596  18.525  0.00  0.00    +0.000 C 
BRANCH  15  19
ATOM     16  C   UNL     1      -0.475  10.371  22.490  0.00  0.00    +0.000 C 
ATOM     17  C   UNL     1       0.005  10.323  21.085  0.00  0.00    +0.000 A 
ATOM     18  N   UNL     1       0.757   9.360  20.600  0.00  0.00    +0.000 NA
ATOM     19  C   UNL     1       1.044   9.597  19.265  0.00  0.00    +0.000 A 
ATOM     20  C   UNL     1       0.493  10.763  18.760  0.00  0.00    +0.000 A 
ATOM     21  S   UNL     1      -0.405  11.567  19.978  0.00  0.00    +0.000 S 
ENDBRANCH  15  19
ENDBRANCH  14  15
ENDBRANCH   1  14
TORSDOF 5
ENDMDL
MODEL 9
REMARK VINA RESULT:      -7.3      0.907      1.295
REMARK  Name = 
REMARK  6 active torsions:
REMARK  status: ('A' for Active; 'I' for Inactive)
REMARK    1  A    between atoms: C_1  and  C_2
REMARK    2  A    between atoms: C_4  and  C_5
REMARK    3  A    between atoms: C_5  and  S_6
REMARK    4  A    between atoms: S_6  and  C_7
REMARK    5  A    between atoms: C_7  and  C_8
REMARK    6  A    between atoms: C_7  and  C_14
REMARK                            x       y       z     vdW  Elec       q    Type
REMARK                         _______ _______ _______ _____ _____    ______ ____
ROOT
ATOM      1  C   UNL     1       2.794   6.262  18.235  0.00  0.00    +0.000 C 
ENDROOT
BRANCH   1   2
ATOM      2  C   UNL     1       4.316   6.133  18.168  0.00  0.00    +0.000 A 
ATOM      3  C   UNL     1       5.057   5.417  19.120  0.00  0.00    +0.000 A 
ATOM      4  C   UNL     1       6.450   5.324  19.036  0.00  0.00    +0.000 A 
ATOM      5  C   UNL     1       7.135   5.959  18.005  0.00  0.00    +0.000 A 
ATOM      6  C   UNL     1       6.424   6.673  17.046  0.00  0.00    +0.000 A 
ATOM      7  C   UNL     1       5.027   6.754  17.124  0.00  0.00    +0.000 A 
ENDBRANCH   1   2
BRANCH   1   8
ATOM      8  C   UNL     1       2.068   5.007  18.751  0.00  0.00    +0.000 A 
ATOM      9  C   UNL     1       1.668   4.918  20.094  0.00  0.00    +0.000 A 
ATOM     10  C   UNL     1       1.127   3.730  20.602  0.00  0.00    +0.000 A 
ATOM     11  C   UNL     1       0.969   2.615  19.778  0.00  0.00    +0.000 A 
ATOM     12  C   UNL     1       1.324   2.698  18.439  0.00  0.00    +0.000 A 
ATOM     13  C   UNL     1       1.860   3.882  17.933  0.00  0.00    +0.000 A 
ENDBRANCH   1   8
BRANCH   1  14
ATOM     14  S   UNL     1       2.207   7.718  19.239  0.00  0.00    +0.000 S 
BRANCH  14  15
ATOM     15  C   UNL     1       1.705   8.886  17.952  0.00  0.00    +0.000 C 
BRANCH  15  19
ATOM     16  C   UNL     1       0.201  12.613  20.813  0.00  0.00    +0.000 C 
ATOM     17  C   UNL     1       0.117  11.570  19.758  0.00  0.00    +0.000 A 
ATOM     18  N   UNL     1       1.105  10.761  19.448  0.00  0.00    +0.000 NA
ATOM     19  C   UNL     1       0.727   9.905  18.426  0.00  0.00    +0.000 A 
ATOM     20  C   UNL     1      -0.568  10.093  17.974  0.00  0.00    +0.000 A 
ATOM     21  S   UNL     1      -1.322  11.357  18.851  0.00  0.00    +0.000 S 
ENDBRANCH  15  19
ENDBRANCH  14  15
ENDBRANCH   1  14
TORSDOF 5
ENDMDL
