MODEL 1
REMARK VINA RESULT:      -6.6      0.000      0.000
REMARK  Name = 
REMARK  11 active torsions:
REMARK  status: ('A' for Active; 'I' for Inactive)
REMARK    1  A    between atoms: C_1  and  C_2
REMARK    2  A    between atoms: C_2  and  O_3
REMARK    3  A    between atoms: O_3  and  C_4
REMARK    4  A    between atoms: C_4  and  C_6
REMARK    5  A    between atoms: C_6  and  O_7
REMARK    6  A    between atoms: O_7  and  C_8
REMARK    7  A    between atoms: C_11  and  C_12
REMARK    8  A    between atoms: C_12  and  C_14
REMARK    9  A    between atoms: C_14  and  C_15
REMARK   10  A    between atoms: C_16  and  C_17
REMARK   11  A    between atoms: C_18  and  C_19
REMARK                            x       y       z     vdW  Elec       q    Type
REMARK                         _______ _______ _______ _____ _____    ______ ____
ROOT
ATOM      1  C   UNL     1       4.056   4.388  16.742  0.00  0.00    +0.000 A 
ATOM      2  C   UNL     1       3.546   3.184  17.217  0.00  0.00    +0.000 A 
ATOM      3  C   UNL     1       2.752   3.159  18.366  0.00  0.00    +0.000 A 
ATOM      4  C   UNL     1       2.449   4.336  19.072  0.00  0.00    +0.000 A 
ATOM      5  C   UNL     1       2.983   5.570  18.624  0.00  0.00    +0.000 A 
ATOM      6  C   UNL     1       2.733   6.878  19.340  0.00  0.00    +0.000 C 
ATOM      7  C   UNL     1       3.791   5.587  17.445  0.00  0.00    +0.000 A 
ATOM      8  C   UNL     1       4.381   6.874  16.906  0.00  0.00    +0.000 C 
ENDROOT
BRANCH   4   9
ATOM      9  C   UNL     1       1.599   4.209  20.305  0.00  0.00    +0.000 C 
ATOM     10  O   UNL     1       0.415   4.551  20.281  0.00  0.00    +0.000 OA
BRANCH   9  11
ATOM     11  C   UNL     1       2.236   3.722  21.597  0.00  0.00    +0.000 C 
ATOM     12  C   UNL     1       1.738   2.331  21.967  0.00  0.00    +0.000 C 
ENDBRANCH   9  11
ENDBRANCH   4   9
BRANCH   1  13
ATOM     13  O   UNL     1       4.881   4.487  15.651  0.00  0.00    +0.000 OA
BRANCH  13  14
ATOM     14  C   UNL     1       6.108   3.758  15.667  0.00  0.00    +0.000 C 
BRANCH  14  15
ATOM     15  C   UNL     1       7.283   4.726  15.765  0.00  0.00    +0.000 C 
ATOM     16  O   UNL     1       7.564   5.582  14.933  0.00  0.00    +0.000 OA
BRANCH  15  17
ATOM     17  O   UNL     1       8.032   4.436  16.867  0.00  0.00    +0.000 OA
BRANCH  17  19
ATOM     18  C   UNL     1       7.668   6.174  18.454  0.00  0.00    +0.000 C 
ATOM     19  C   UNL     1       7.390   4.720  18.120  0.00  0.00    +0.000 C 
ENDBRANCH  17  19
ENDBRANCH  15  17
ENDBRANCH  14  15
ENDBRANCH  13  14
ENDBRANCH   1  13
TORSDOF 7
ENDMDL
MODEL 2
REMARK VINA RESULT:      -6.5      1.447      2.475
REMARK  Name = 
REMARK  11 active torsions:
REMARK  status: ('A' for Active; 'I' for Inactive)
REMARK    1  A    between atoms: C_1  and  C_2
REMARK    2  A    between atoms: C_2  and  O_3
REMARK    3  A    between atoms: O_3  and  C_4
REMARK    4  A    between atoms: C_4  and  C_6
REMARK    5  A    between atoms: C_6  and  O_7
REMARK    6  A    between atoms: O_7  and  C_8
REMARK    7  A    between atoms: C_11  and  C_12
REMARK    8  A    between atoms: C_12  and  C_14
REMARK    9  A    between atoms: C_14  and  C_15
REMARK   10  A    between atoms: C_16  and  C_17
REMARK   11  A    between atoms: C_18  and  C_19
REMARK                            x       y       z     vdW  Elec       q    Type
REMARK                         _______ _______ _______ _____ _____    ______ ____
ROOT
ATOM      1  C   UNL     1       3.921   5.610  17.238  0.00  0.00    +0.000 A 
ATOM      2  C   UNL     1       2.886   6.161  17.988  0.00  0.00    +0.000 A 
ATOM      3  C   UNL     1       2.014   5.334  18.701  0.00  0.00    +0.000 A 
ATOM      4  C   UNL     1       2.152   3.936  18.681  0.00  0.00    +0.000 A 
ATOM      5  C   UNL     1       3.179   3.351  17.900  0.00  0.00    +0.000 A 
ATOM      6  C   UNL     1       3.379   1.856  17.797  0.00  0.00    +0.000 C 
ATOM      7  C   UNL     1       4.070   4.204  17.177  0.00  0.00    +0.000 A 
ATOM      8  C   UNL     1       5.196   3.644  16.334  0.00  0.00    +0.000 C 
ENDROOT
BRANCH   4   9
ATOM      9  C   UNL     1       1.158   3.127  19.468  0.00  0.00    +0.000 C 
ATOM     10  O   UNL     1       0.297   2.465  18.887  0.00  0.00    +0.000 OA
BRANCH   9  11
ATOM     11  C   UNL     1       1.184   3.198  20.987  0.00  0.00    +0.000 C 
ATOM     12  C   UNL     1       2.530   2.741  21.535  0.00  0.00    +0.000 C 
ENDBRANCH   9  11
ENDBRANCH   4   9
BRANCH   1  13
ATOM     13  O   UNL     1       4.785   6.352  16.475  0.00  0.00    +0.000 OA
BRANCH  13  14
ATOM     14  C   UNL     1       5.648   7.273  17.140  0.00  0.00    +0.000 C 
BRANCH  14  15
ATOM     15  C   UNL     1       7.085   6.764  17.089  0.00  0.00    +0.000 C 
ATOM     16  O   UNL     1       7.585   6.153  16.150  0.00  0.00    +0.000 OA
BRANCH  15  17
ATOM     17  O   UNL     1       7.704   7.002  18.281  0.00  0.00    +0.000 OA
BRANCH  17  19
ATOM     18  C   UNL     1       6.650   5.274  19.537  0.00  0.00    +0.000 C 
ATOM     19  C   UNL     1       7.980   5.827  19.058  0.00  0.00    +0.000 C 
ENDBRANCH  17  19
ENDBRANCH  15  17
ENDBRANCH  14  15
ENDBRANCH  13  14
ENDBRANCH   1  13
TORSDOF 7
ENDMDL
MODEL 3
REMARK VINA RESULT:      -6.4      1.652      5.787
REMARK  Name = 
REMARK  11 active torsions:
REMARK  status: ('A' for Active; 'I' for Inactive)
REMARK    1  A    between atoms: C_1  and  C_2
REMARK    2  A    between atoms: C_2  and  O_3
REMARK    3  A    between atoms: O_3  and  C_4
REMARK    4  A    between atoms: C_4  and  C_6
REMARK    5  A    between atoms: C_6  and  O_7
REMARK    6  A    between atoms: O_7  and  C_8
REMARK    7  A    between atoms: C_11  and  C_12
REMARK    8  A    between atoms: C_12  and  C_14
REMARK    9  A    between atoms: C_14  and  C_15
REMARK   10  A    between atoms: C_16  and  C_17
REMARK   11  A    between atoms: C_18  and  C_19
REMARK                            x       y       z     vdW  Elec       q    Type
REMARK                         _______ _______ _______ _____ _____    ______ ____
ROOT
ATOM      1  C   UNL     1       2.908   4.708  17.651  0.00  0.00    +0.000 A 
ATOM      2  C   UNL     1       3.454   3.536  17.137  0.00  0.00    +0.000 A 
ATOM      3  C   UNL     1       4.750   3.532  16.615  0.00  0.00    +0.000 A 
ATOM      4  C   UNL     1       5.532   4.699  16.590  0.00  0.00    +0.000 A 
ATOM      5  C   UNL     1       4.985   5.911  17.079  0.00  0.00    +0.000 A 
ATOM      6  C   UNL     1       5.744   7.219  17.061  0.00  0.00    +0.000 C 
ATOM      7  C   UNL     1       3.660   5.906  17.616  0.00  0.00    +0.000 A 
ATOM      8  C   UNL     1       3.022   7.164  18.167  0.00  0.00    +0.000 C 
ENDROOT
BRANCH   4   9
ATOM      9  C   UNL     1       6.910   4.601  15.996  0.00  0.00    +0.000 C 
ATOM     10  O   UNL     1       7.882   4.371  16.717  0.00  0.00    +0.000 OA
BRANCH   9  11
ATOM     11  C   UNL     1       7.095   4.861  14.509  0.00  0.00    +0.000 C 
ATOM     12  C   UNL     1       6.224   3.930  13.674  0.00  0.00    +0.000 C 
ENDBRANCH   9  11
ENDBRANCH   4   9
BRANCH   1  13
ATOM     13  O   UNL     1       1.628   4.801  18.135  0.00  0.00    +0.000 OA
BRANCH  13  14
ATOM     14  C   UNL     1       1.352   4.240  19.418  0.00  0.00    +0.000 C 
BRANCH  14  15
ATOM     15  C   UNL     1       1.075   2.747  19.279  0.00  0.00    +0.000 C 
ATOM     16  O   UNL     1       0.243   2.249  18.528  0.00  0.00    +0.000 OA
BRANCH  15  17
ATOM     17  O   UNL     1       1.822   2.051  20.183  0.00  0.00    +0.000 OA
BRANCH  17  19
ATOM     18  C   UNL     1       4.186   2.248  20.395  0.00  0.00    +0.000 C 
ATOM     19  C   UNL     1       2.849   2.819  20.830  0.00  0.00    +0.000 C 
ENDBRANCH  17  19
ENDBRANCH  15  17
ENDBRANCH  14  15
ENDBRANCH  13  14
ENDBRANCH   1  13
TORSDOF 7
ENDMDL
MODEL 4
REMARK VINA RESULT:      -6.3      1.506      1.782
REMARK  Name = 
REMARK  11 active torsions:
REMARK  status: ('A' for Active; 'I' for Inactive)
REMARK    1  A    between atoms: C_1  and  C_2
REMARK    2  A    between atoms: C_2  and  O_3
REMARK    3  A    between atoms: O_3  and  C_4
REMARK    4  A    between atoms: C_4  and  C_6
REMARK    5  A    between atoms: C_6  and  O_7
REMARK    6  A    between atoms: O_7  and  C_8
REMARK    7  A    between atoms: C_11  and  C_12
REMARK    8  A    between atoms: C_12  and  C_14
REMARK    9  A    between atoms: C_14  and  C_15
REMARK   10  A    between atoms: C_16  and  C_17
REMARK   11  A    between atoms: C_18  and  C_19
REMARK                            x       y       z     vdW  Elec       q    Type
REMARK                         _______ _______ _______ _____ _____    ______ ____
ROOT
ATOM      1  C   UNL     1       4.549   4.785  16.460  0.00  0.00    +0.000 A 
ATOM      2  C   UNL     1       4.573   3.399  16.572  0.00  0.00    +0.000 A 
ATOM      3  C   UNL     1       4.084   2.776  17.723  0.00  0.00    +0.000 A 
ATOM      4  C   UNL     1       3.561   3.523  18.793  0.00  0.00    +0.000 A 
ATOM      5  C   UNL     1       3.555   4.937  18.713  0.00  0.00    +0.000 A 
ATOM      6  C   UNL     1       3.040   5.818  19.829  0.00  0.00    +0.000 C 
ATOM      7  C   UNL     1       4.053   5.566  17.530  0.00  0.00    +0.000 A 
ATOM      8  C   UNL     1       4.063   7.073  17.376  0.00  0.00    +0.000 C 
ENDROOT
BRANCH   4   9
ATOM      9  C   UNL     1       3.071   2.766  19.996  0.00  0.00    +0.000 C 
ATOM     10  O   UNL     1       3.874   2.281  20.795  0.00  0.00    +0.000 OA
BRANCH   9  11
ATOM     11  C   UNL     1       1.576   2.546  20.173  0.00  0.00    +0.000 C 
ATOM     12  C   UNL     1       1.154   2.771  21.619  0.00  0.00    +0.000 C 
ENDBRANCH   9  11
ENDBRANCH   4   9
BRANCH   1  13
ATOM     13  O   UNL     1       5.054   5.469  15.384  0.00  0.00    +0.000 OA
BRANCH  13  14
ATOM     14  C   UNL     1       6.358   5.123  14.919  0.00  0.00    +0.000 C 
BRANCH  14  15
ATOM     15  C   UNL     1       7.374   5.311  16.042  0.00  0.00    +0.000 C 
ATOM     16  O   UNL     1       7.890   4.405  16.686  0.00  0.00    +0.000 OA
BRANCH  15  17
ATOM     17  O   UNL     1       7.550   6.641  16.289  0.00  0.00    +0.000 OA
BRANCH  17  19
ATOM     18  C   UNL     1       7.931   8.470  17.765  0.00  0.00    +0.000 C 
ATOM     19  C   UNL     1       7.621   6.988  17.681  0.00  0.00    +0.000 C 
ENDBRANCH  17  19
ENDBRANCH  15  17
ENDBRANCH  14  15
ENDBRANCH  13  14
ENDBRANCH   1  13
TORSDOF 7
ENDMDL
MODEL 5
REMARK VINA RESULT:      -6.3      1.599      5.943
REMARK  Name = 
REMARK  11 active torsions:
REMARK  status: ('A' for Active; 'I' for Inactive)
REMARK    1  A    between atoms: C_1  and  C_2
REMARK    2  A    between atoms: C_2  and  O_3
REMARK    3  A    between atoms: O_3  and  C_4
REMARK    4  A    between atoms: C_4  and  C_6
REMARK    5  A    between atoms: C_6  and  O_7
REMARK    6  A    between atoms: O_7  and  C_8
REMARK    7  A    between atoms: C_11  and  C_12
REMARK    8  A    between atoms: C_12  and  C_14
REMARK    9  A    between atoms: C_14  and  C_15
REMARK   10  A    between atoms: C_16  and  C_17
REMARK   11  A    between atoms: C_18  and  C_19
REMARK                            x       y       z     vdW  Elec       q    Type
REMARK                         _______ _______ _______ _____ _____    ______ ____
ROOT
ATOM      1  C   UNL     1       3.671   5.259  19.495  0.00  0.00    +0.000 A 
ATOM      2  C   UNL     1       4.685   4.307  19.468  0.00  0.00    +0.000 A 
ATOM      3  C   UNL     1       5.635   4.317  18.443  0.00  0.00    +0.000 A 
ATOM      4  C   UNL     1       5.594   5.278  17.418  0.00  0.00    +0.000 A 
ATOM      5  C   UNL     1       4.552   6.238  17.409  0.00  0.00    +0.000 A 
ATOM      6  C   UNL     1       4.415   7.287  16.328  0.00  0.00    +0.000 C 
ATOM      7  C   UNL     1       3.587   6.223  18.463  0.00  0.00    +0.000 A 
ATOM      8  C   UNL     1       2.457   7.229  18.519  0.00  0.00    +0.000 C 
ENDROOT
BRANCH   4   9
ATOM      9  C   UNL     1       6.651   5.202  16.351  0.00  0.00    +0.000 C 
ATOM     10  O   UNL     1       7.495   6.093  16.249  0.00  0.00    +0.000 OA
BRANCH   9  11
ATOM     11  C   UNL     1       6.618   4.051  15.358  0.00  0.00    +0.000 C 
ATOM     12  C   UNL     1       5.569   4.287  14.277  0.00  0.00    +0.000 C 
ENDBRANCH   9  11
ENDBRANCH   4   9
BRANCH   1  13
ATOM     13  O   UNL     1       2.677   5.283  20.439  0.00  0.00    +0.000 OA
BRANCH  13  14
ATOM     14  C   UNL     1       1.517   4.481  20.215  0.00  0.00    +0.000 C 
BRANCH  14  15
ATOM     15  C   UNL     1       1.691   3.124  20.890  0.00  0.00    +0.000 C 
ATOM     16  O   UNL     1       1.704   2.934  22.101  0.00  0.00    +0.000 OA
BRANCH  15  17
ATOM     17  O   UNL     1       1.925   2.165  19.949  0.00  0.00    +0.000 OA
BRANCH  17  19
ATOM     18  C   UNL     1       2.467   2.220  17.630  0.00  0.00    +0.000 C 
ATOM     19  C   UNL     1       1.371   2.448  18.654  0.00  0.00    +0.000 C 
ENDBRANCH  17  19
ENDBRANCH  15  17
ENDBRANCH  14  15
ENDBRANCH  13  14
ENDBRANCH   1  13
TORSDOF 7
ENDMDL
MODEL 6
REMARK VINA RESULT:      -6.2      1.347      1.468
REMARK  Name = 
REMARK  11 active torsions:
REMARK  status: ('A' for Active; 'I' for Inactive)
REMARK    1  A    between atoms: C_1  and  C_2
REMARK    2  A    between atoms: C_2  and  O_3
REMARK    3  A    between atoms: O_3  and  C_4
REMARK    4  A    between atoms: C_4  and  C_6
REMARK    5  A    between atoms: C_6  and  O_7
REMARK    6  A    between atoms: O_7  and  C_8
REMARK    7  A    between atoms: C_11  and  C_12
REMARK    8  A    between atoms: C_12  and  C_14
REMARK    9  A    between atoms: C_14  and  C_15
REMARK   10  A    between atoms: C_16  and  C_17
REMARK   11  A    between atoms: C_18  and  C_19
REMARK                            x       y       z     vdW  Elec       q    Type
REMARK                         _______ _______ _______ _____ _____    ______ ____
ROOT
ATOM      1  C   UNL     1       4.312   4.123  16.953  0.00  0.00    +0.000 A 
ATOM      2  C   UNL     1       4.277   2.786  17.339  0.00  0.00    +0.000 A 
ATOM      3  C   UNL     1       3.719   2.420  18.566  0.00  0.00    +0.000 A 
ATOM      4  C   UNL     1       3.185   3.381  19.442  0.00  0.00    +0.000 A 
ATOM      5  C   UNL     1       3.237   4.751  19.084  0.00  0.00    +0.000 A 
ATOM      6  C   UNL     1       2.714   5.852  19.979  0.00  0.00    +0.000 C 
ATOM      7  C   UNL     1       3.805   5.116  17.824  0.00  0.00    +0.000 A 
ATOM      8  C   UNL     1       3.880   6.561  17.376  0.00  0.00    +0.000 C 
ENDROOT
BRANCH   4   9
ATOM      9  C   UNL     1       2.619   2.894  20.747  0.00  0.00    +0.000 C 
ATOM     10  O   UNL     1       3.366   2.462  21.626  0.00  0.00    +0.000 OA
BRANCH   9  11
ATOM     11  C   UNL     1       1.110   2.875  20.938  0.00  0.00    +0.000 C 
ATOM     12  C   UNL     1       0.386   2.852  19.598  0.00  0.00    +0.000 C 
ENDBRANCH   9  11
ENDBRANCH   4   9
BRANCH   1  13
ATOM     13  O   UNL     1       4.885   4.563  15.788  0.00  0.00    +0.000 OA
BRANCH  13  14
ATOM     14  C   UNL     1       6.238   4.196  15.523  0.00  0.00    +0.000 C 
BRANCH  14  15
ATOM     15  C   UNL     1       7.182   5.116  16.291  0.00  0.00    +0.000 C 
ATOM     16  O   UNL     1       7.539   6.229  15.922  0.00  0.00    +0.000 OA
BRANCH  15  17
ATOM     17  O   UNL     1       7.648   4.479  17.403  0.00  0.00    +0.000 OA
BRANCH  17  19
ATOM     18  C   UNL     1       6.846   5.439  19.430  0.00  0.00    +0.000 C 
ATOM     19  C   UNL     1       8.026   5.350  18.480  0.00  0.00    +0.000 C 
ENDBRANCH  17  19
ENDBRANCH  15  17
ENDBRANCH  14  15
ENDBRANCH  13  14
ENDBRANCH   1  13
TORSDOF 7
ENDMDL
MODEL 7
REMARK VINA RESULT:      -6.2      1.551      2.417
REMARK  Name = 
REMARK  11 active torsions:
REMARK  status: ('A' for Active; 'I' for Inactive)
REMARK    1  A    between atoms: C_1  and  C_2
REMARK    2  A    between atoms: C_2  and  O_3
REMARK    3  A    between atoms: O_3  and  C_4
REMARK    4  A    between atoms: C_4  and  C_6
REMARK    5  A    between atoms: C_6  and  O_7
REMARK    6  A    between atoms: O_7  and  C_8
REMARK    7  A    between atoms: C_11  and  C_12
REMARK    8  A    between atoms: C_12  and  C_14
REMARK    9  A    between atoms: C_14  and  C_15
REMARK   10  A    between atoms: C_16  and  C_17
REMARK   11  A    between atoms: C_18  and  C_19
REMARK                            x       y       z     vdW  Elec       q    Type
REMARK                         _______ _______ _______ _____ _____    ______ ____
ROOT
ATOM      1  C   UNL     1       5.296   4.742  18.185  0.00  0.00    +0.000 A 
ATOM      2  C   UNL     1       5.164   3.483  18.762  0.00  0.00    +0.000 A 
ATOM      3  C   UNL     1       3.900   2.978  19.075  0.00  0.00    +0.000 A 
ATOM      4  C   UNL     1       2.733   3.720  18.821  0.00  0.00    +0.000 A 
ATOM      5  C   UNL     1       2.844   5.017  18.263  0.00  0.00    +0.000 A 
ATOM      6  C   UNL     1       1.645   5.895  17.986  0.00  0.00    +0.000 C 
ATOM      7  C   UNL     1       4.142   5.524  17.942  0.00  0.00    +0.000 A 
ATOM      8  C   UNL     1       4.329   6.897  17.331  0.00  0.00    +0.000 C 
ENDROOT
BRANCH   4   9
ATOM      9  C   UNL     1       1.418   3.100  19.203  0.00  0.00    +0.000 C 
ATOM     10  O   UNL     1       0.743   2.507  18.360  0.00  0.00    +0.000 OA
BRANCH   9  11
ATOM     11  C   UNL     1       0.900   3.279  20.622  0.00  0.00    +0.000 C 
ATOM     12  C   UNL     1       2.040   3.566  21.591  0.00  0.00    +0.000 C 
ENDBRANCH   9  11
ENDBRANCH   4   9
BRANCH   1  13
ATOM     13  O   UNL     1       6.503   5.324  17.896  0.00  0.00    +0.000 OA
BRANCH  13  14
ATOM     14  C   UNL     1       7.460   4.559  17.166  0.00  0.00    +0.000 C 
BRANCH  14  15
ATOM     15  C   UNL     1       7.257   4.771  15.669  0.00  0.00    +0.000 C 
ATOM     16  O   UNL     1       7.650   5.744  15.034  0.00  0.00    +0.000 OA
BRANCH  15  17
ATOM     17  O   UNL     1       6.490   3.766  15.158  0.00  0.00    +0.000 OA
BRANCH  17  19
ATOM     18  C   UNL     1       6.017   3.539  12.835  0.00  0.00    +0.000 C 
ATOM     19  C   UNL     1       5.567   4.175  14.136  0.00  0.00    +0.000 C 
ENDBRANCH  17  19
ENDBRANCH  15  17
ENDBRANCH  14  15
ENDBRANCH  13  14
ENDBRANCH   1  13
TORSDOF 7
ENDMDL
MODEL 8
REMARK VINA RESULT:      -6.1      1.536      1.930
REMARK  Name = 
REMARK  11 active torsions:
REMARK  status: ('A' for Active; 'I' for Inactive)
REMARK    1  A    between atoms: C_1  and  C_2
REMARK    2  A    between atoms: C_2  and  O_3
REMARK    3  A    between atoms: O_3  and  C_4
REMARK    4  A    between atoms: C_4  and  C_6
REMARK    5  A    between atoms: C_6  and  O_7
REMARK    6  A    between atoms: O_7  and  C_8
REMARK    7  A    between atoms: C_11  and  C_12
REMARK    8  A    between atoms: C_12  and  C_14
REMARK    9  A    between atoms: C_14  and  C_15
REMARK   10  A    between atoms: C_16  and  C_17
REMARK   11  A    between atoms: C_18  and  C_19
REMARK                            x       y       z     vdW  Elec       q    Type
REMARK                         _______ _______ _______ _____ _____    ______ ____
ROOT
ATOM      1  C   UNL     1       4.516   4.581  17.091  0.00  0.00    +0.000 A 
ATOM      2  C   UNL     1       4.319   3.207  17.186  0.00  0.00    +0.000 A 
ATOM      3  C   UNL     1       3.240   2.698  17.912  0.00  0.00    +0.000 A 
ATOM      4  C   UNL     1       2.331   3.548  18.564  0.00  0.00    +0.000 A 
ATOM      5  C   UNL     1       2.529   4.950  18.507  0.00  0.00    +0.000 A 
ATOM      6  C   UNL     1       1.618   5.935  19.204  0.00  0.00    +0.000 C 
ATOM      7  C   UNL     1       3.633   5.463  17.758  0.00  0.00    +0.000 A 
ATOM      8  C   UNL     1       3.894   6.951  17.646  0.00  0.00    +0.000 C 
ENDROOT
BRANCH   4   9
ATOM      9  C   UNL     1       1.207   2.909  19.332  0.00  0.00    +0.000 C 
ATOM     10  O   UNL     1       0.349   2.250  18.744  0.00  0.00    +0.000 OA
BRANCH   9  11
ATOM     11  C   UNL     1       1.107   3.146  20.831  0.00  0.00    +0.000 C 
ATOM     12  C   UNL     1       2.375   2.697  21.546  0.00  0.00    +0.000 C 
ENDBRANCH   9  11
ENDBRANCH   4   9
BRANCH   1  13
ATOM     13  O   UNL     1       5.578   5.154  16.439  0.00  0.00    +0.000 OA
BRANCH  13  14
ATOM     14  C   UNL     1       6.893   4.735  16.799  0.00  0.00    +0.000 C 
BRANCH  14  15
ATOM     15  C   UNL     1       7.296   5.380  18.122  0.00  0.00    +0.000 C 
ATOM     16  O   UNL     1       6.887   5.041  19.226  0.00  0.00    +0.000 OA
BRANCH  15  17
ATOM     17  O   UNL     1       8.105   6.453  17.886  0.00  0.00    +0.000 OA
BRANCH  17  19
ATOM     18  C   UNL     1       8.219   8.830  17.980  0.00  0.00    +0.000 C 
ATOM     19  C   UNL     1       7.417   7.645  17.476  0.00  0.00    +0.000 C 
ENDBRANCH  17  19
ENDBRANCH  15  17
ENDBRANCH  14  15
ENDBRANCH  13  14
ENDBRANCH   1  13
TORSDOF 7
ENDMDL
MODEL 9
REMARK VINA RESULT:      -6.1      1.557      2.501
REMARK  Name = 
REMARK  11 active torsions:
REMARK  status: ('A' for Active; 'I' for Inactive)
REMARK    1  A    between atoms: C_1  and  C_2
REMARK    2  A    between atoms: C_2  and  O_3
REMARK    3  A    between atoms: O_3  and  C_4
REMARK    4  A    between atoms: C_4  and  C_6
REMARK    5  A    between atoms: C_6  and  O_7
REMARK    6  A    between atoms: O_7  and  C_8
REMARK    7  A    between atoms: C_11  and  C_12
REMARK    8  A    between atoms: C_12  and  C_14
REMARK    9  A    between atoms: C_14  and  C_15
REMARK   10  A    between atoms: C_16  and  C_17
REMARK   11  A    between atoms: C_18  and  C_19
REMARK                            x       y       z     vdW  Elec       q    Type
REMARK                         _______ _______ _______ _____ _____    ______ ____
ROOT
ATOM      1  C   UNL     1       4.459   4.976  16.765  0.00  0.00    +0.000 A 
ATOM      2  C   UNL     1       4.348   3.589  16.763  0.00  0.00    +0.000 A 
ATOM      3  C   UNL     1       3.453   2.952  17.627  0.00  0.00    +0.000 A 
ATOM      4  C   UNL     1       2.648   3.684  18.516  0.00  0.00    +0.000 A 
ATOM      5  C   UNL     1       2.766   5.095  18.557  0.00  0.00    +0.000 A 
ATOM      6  C   UNL     1       1.962   5.958  19.503  0.00  0.00    +0.000 C 
ATOM      7  C   UNL     1       3.681   5.739  17.667  0.00  0.00    +0.000 A 
ATOM      8  C   UNL     1       3.846   7.245  17.650  0.00  0.00    +0.000 C 
ENDROOT
BRANCH   4   9
ATOM      9  C   UNL     1       1.725   2.911  19.417  0.00  0.00    +0.000 C 
ATOM     10  O   UNL     1       0.532   2.795  19.132  0.00  0.00    +0.000 OA
BRANCH   9  11
ATOM     11  C   UNL     1       2.268   2.339  20.717  0.00  0.00    +0.000 C 
ATOM     12  C   UNL     1       2.010   3.283  21.884  0.00  0.00    +0.000 C 
ENDBRANCH   9  11
ENDBRANCH   4   9
BRANCH   1  13
ATOM     13  O   UNL     1       5.347   5.668  15.983  0.00  0.00    +0.000 OA
BRANCH  13  14
ATOM     14  C   UNL     1       6.709   5.242  15.973  0.00  0.00    +0.000 C 
BRANCH  14  15
ATOM     15  C   UNL     1       7.130   4.893  14.549  0.00  0.00    +0.000 C 
ATOM     16  O   UNL     1       7.827   5.596  13.826  0.00  0.00    +0.000 OA
BRANCH  15  17
ATOM     17  O   UNL     1       6.537   3.727  14.163  0.00  0.00    +0.000 OA
BRANCH  17  19
ATOM     18  C   UNL     1       6.477   2.951  11.912  0.00  0.00    +0.000 C 
ATOM     19  C   UNL     1       5.778   3.813  12.946  0.00  0.00    +0.000 C 
ENDBRANCH  17  19
ENDBRANCH  15  17
ENDBRANCH  14  15
ENDBRANCH  13  14
ENDBRANCH   1  13
TORSDOF 7
ENDMDL
