MODEL 1
REMARK VINA RESULT:      -8.5      0.000      0.000
REMARK  Name = 
REMARK  7 active torsions:
REMARK  status: ('A' for Active; 'I' for Inactive)
REMARK    1  A    between atoms: C_5  and  C_6
REMARK    2  A    between atoms: C_6  and  O_7
REMARK    3  A    between atoms: O_7  and  C_8
REMARK    4  A    between atoms: C_8  and  C_9
REMARK    5  A    between atoms: N_12  and  C_13
REMARK    6  A    between atoms: C_13  and  C_14
REMARK    7  A    between atoms: C_17  and  C_18
REMARK                            x       y       z     vdW  Elec       q    Type
REMARK                         _______ _______ _______ _____ _____    ______ ____
ROOT
ATOM      1  C   UNL     1       0.737   9.590  19.697  0.00  0.00    +0.000 C 
ATOM      2  C   UNL     1       1.820   9.597  18.588  0.00  0.00    +0.000 C 
ATOM      3  C   UNL     1       2.087   8.118  18.240  0.00  0.00    +0.000 C 
ATOM      4  N   UNL     1       2.518   7.317  19.401  0.00  0.00    +0.000 NA
ATOM      5  C   UNL     1       1.656   7.504  20.604  0.00  0.00    +0.000 C 
ATOM      6  C   UNL     1       1.365   8.951  20.914  0.00  0.00    +0.000 C 
ENDROOT
BRANCH   1   7
ATOM      7  C   UNL     1       0.082  10.911  20.074  0.00  0.00    +0.000 C 
BRANCH   7   8
ATOM      8  O   UNL     1      -1.328  10.674  19.938  0.00  0.00    +0.000 OA
BRANCH   8   9
ATOM      9  C   UNL     1      -1.992  11.712  19.243  0.00  0.00    +0.000 C 
BRANCH   9  14
ATOM     10  F   UNL     1      -4.216   9.882  14.339  0.00  0.00    +0.000 F 
ATOM     11  C   UNL     1      -3.681  10.277  15.522  0.00  0.00    +0.000 A 
ATOM     12  C   UNL     1      -4.374  11.189  16.328  0.00  0.00    +0.000 A 
ATOM     13  C   UNL     1      -3.814  11.624  17.531  0.00  0.00    +0.000 A 
ATOM     14  C   UNL     1      -2.571  11.162  17.958  0.00  0.00    +0.000 A 
ATOM     15  C   UNL     1      -1.883  10.208  17.160  0.00  0.00    +0.000 A 
ATOM     16  C   UNL     1      -2.446   9.776  15.943  0.00  0.00    +0.000 A 
ENDBRANCH   9  14
ENDBRANCH   8   9
ENDBRANCH   7   8
ENDBRANCH   1   7
BRANCH   4  17
ATOM     17  C   UNL     1       2.561   5.868  19.061  0.00  0.00    +0.000 C 
BRANCH  17  18
ATOM     18  C   UNL     1       3.482   5.538  17.894  0.00  0.00    +0.000 A 
ATOM     19  C   UNL     1       3.541   4.230  17.393  0.00  0.00    +0.000 A 
ATOM     20  C   UNL     1       4.321   3.928  16.287  0.00  0.00    +0.000 A 
ATOM     21  C   UNL     1       5.081   4.931  15.652  0.00  0.00    +0.000 A 
ATOM     22  C   UNL     1       5.067   6.228  16.186  0.00  0.00    +0.000 A 
ATOM     23  C   UNL     1       4.276   6.536  17.285  0.00  0.00    +0.000 A 
BRANCH  21  24
ATOM     24  C   UNL     1       5.847   4.633  14.422  0.00  0.00    +0.000 A 
ATOM     25  C   UNL     1       7.097   5.242  14.198  0.00  0.00    +0.000 A 
ATOM     26  C   UNL     1       7.834   4.944  13.052  0.00  0.00    +0.000 A 
ATOM     27  C   UNL     1       7.318   4.054  12.104  0.00  0.00    +0.000 A 
ATOM     28  C   UNL     1       6.081   3.447  12.315  0.00  0.00    +0.000 A 
ATOM     29  C   UNL     1       5.351   3.720  13.473  0.00  0.00    +0.000 A 
ENDBRANCH  21  24
ENDBRANCH  17  18
ENDBRANCH   4  17
TORSDOF 7
ENDMDL
MODEL 2
REMARK VINA RESULT:      -8.5      4.286     10.653
REMARK  Name = 
REMARK  7 active torsions:
REMARK  status: ('A' for Active; 'I' for Inactive)
REMARK    1  A    between atoms: C_5  and  C_6
REMARK    2  A    between atoms: C_6  and  O_7
REMARK    3  A    between atoms: O_7  and  C_8
REMARK    4  A    between atoms: C_8  and  C_9
REMARK    5  A    between atoms: N_12  and  C_13
REMARK    6  A    between atoms: C_13  and  C_14
REMARK    7  A    between atoms: C_17  and  C_18
REMARK                            x       y       z     vdW  Elec       q    Type
REMARK                         _______ _______ _______ _____ _____    ______ ____
ROOT
ATOM      1  C   UNL     1       2.718   5.026  18.481  0.00  0.00    +0.000 C 
ATOM      2  C   UNL     1       2.374   6.433  17.927  0.00  0.00    +0.000 C 
ATOM      3  C   UNL     1       2.478   7.401  19.124  0.00  0.00    +0.000 C 
ATOM      4  N   UNL     1       1.591   7.038  20.243  0.00  0.00    +0.000 NA
ATOM      5  C   UNL     1       1.679   5.599  20.628  0.00  0.00    +0.000 C 
ATOM      6  C   UNL     1       1.618   4.659  19.451  0.00  0.00    +0.000 C 
ENDROOT
BRANCH   1   7
ATOM      7  C   UNL     1       2.944   3.894  17.488  0.00  0.00    +0.000 C 
BRANCH   7   8
ATOM      8  O   UNL     1       4.316   3.514  17.670  0.00  0.00    +0.000 OA
BRANCH   8   9
ATOM      9  C   UNL     1       5.162   4.013  16.651  0.00  0.00    +0.000 C 
BRANCH   9  14
ATOM     10  F   UNL     1       8.674   7.955  18.763  0.00  0.00    +0.000 F 
ATOM     11  C   UNL     1       7.802   7.041  18.268  0.00  0.00    +0.000 A 
ATOM     12  C   UNL     1       7.829   5.725  18.748  0.00  0.00    +0.000 A 
ATOM     13  C   UNL     1       6.956   4.772  18.220  0.00  0.00    +0.000 A 
ATOM     14  C   UNL     1       6.043   5.102  17.222  0.00  0.00    +0.000 A 
ATOM     15  C   UNL     1       5.988   6.445  16.760  0.00  0.00    +0.000 A 
ATOM     16  C   UNL     1       6.876   7.404  17.288  0.00  0.00    +0.000 A 
ENDBRANCH   9  14
ENDBRANCH   8   9
ENDBRANCH   7   8
ENDBRANCH   1   7
BRANCH   4  17
ATOM     17  C   UNL     1       1.878   7.874  21.442  0.00  0.00    +0.000 C 
BRANCH  17  18
ATOM     18  C   UNL     1       0.894   9.019  21.642  0.00  0.00    +0.000 A 
ATOM     19  C   UNL     1       0.433   9.751  20.538  0.00  0.00    +0.000 A 
ATOM     20  C   UNL     1      -0.516  10.749  20.695  0.00  0.00    +0.000 A 
ATOM     21  C   UNL     1      -1.027  11.056  21.973  0.00  0.00    +0.000 A 
ATOM     22  C   UNL     1      -0.527  10.363  23.085  0.00  0.00    +0.000 A 
ATOM     23  C   UNL     1       0.414   9.353  22.929  0.00  0.00    +0.000 A 
BRANCH  21  24
ATOM     24  C   UNL     1      -2.102  12.061  22.135  0.00  0.00    +0.000 A 
ATOM     25  C   UNL     1      -2.861  12.104  23.321  0.00  0.00    +0.000 A 
ATOM     26  C   UNL     1      -3.857  13.066  23.488  0.00  0.00    +0.000 A 
ATOM     27  C   UNL     1      -4.123  13.979  22.461  0.00  0.00    +0.000 A 
ATOM     28  C   UNL     1      -3.379  13.943  21.284  0.00  0.00    +0.000 A 
ATOM     29  C   UNL     1      -2.362  13.001  21.122  0.00  0.00    +0.000 A 
ENDBRANCH  21  24
ENDBRANCH  17  18
ENDBRANCH   4  17
TORSDOF 7
ENDMDL
MODEL 3
REMARK VINA RESULT:      -8.4      4.298     10.736
REMARK  Name = 
REMARK  7 active torsions:
REMARK  status: ('A' for Active; 'I' for Inactive)
REMARK    1  A    between atoms: C_5  and  C_6
REMARK    2  A    between atoms: C_6  and  O_7
REMARK    3  A    between atoms: O_7  and  C_8
REMARK    4  A    between atoms: C_8  and  C_9
REMARK    5  A    between atoms: N_12  and  C_13
REMARK    6  A    between atoms: C_13  and  C_14
REMARK    7  A    between atoms: C_17  and  C_18
REMARK                            x       y       z     vdW  Elec       q    Type
REMARK                         _______ _______ _______ _____ _____    ______ ____
ROOT
ATOM      1  C   UNL     1       2.706   4.968  18.837  0.00  0.00    +0.000 C 
ATOM      2  C   UNL     1       2.407   6.322  18.144  0.00  0.00    +0.000 C 
ATOM      3  C   UNL     1       2.487   7.396  19.249  0.00  0.00    +0.000 C 
ATOM      4  N   UNL     1       1.556   7.152  20.365  0.00  0.00    +0.000 NA
ATOM      5  C   UNL     1       1.604   5.754  20.884  0.00  0.00    +0.000 C 
ATOM      6  C   UNL     1       1.567   4.709  19.797  0.00  0.00    +0.000 C 
ENDROOT
BRANCH   1   7
ATOM      7  C   UNL     1       2.945   3.746  17.962  0.00  0.00    +0.000 C 
BRANCH   7   8
ATOM      8  O   UNL     1       3.690   4.239  16.838  0.00  0.00    +0.000 OA
BRANCH   8   9
ATOM      9  C   UNL     1       5.026   3.772  16.819  0.00  0.00    +0.000 C 
BRANCH   9  14
ATOM     10  F   UNL     1       8.644   7.701  18.771  0.00  0.00    +0.000 F 
ATOM     11  C   UNL     1       7.751   6.796  18.298  0.00  0.00    +0.000 A 
ATOM     12  C   UNL     1       7.404   5.688  19.081  0.00  0.00    +0.000 A 
ATOM     13  C   UNL     1       6.511   4.735  18.586  0.00  0.00    +0.000 A 
ATOM     14  C   UNL     1       5.944   4.865  17.321  0.00  0.00    +0.000 A 
ATOM     15  C   UNL     1       6.265   6.008  16.540  0.00  0.00    +0.000 A 
ATOM     16  C   UNL     1       7.173   6.964  17.037  0.00  0.00    +0.000 A 
ENDBRANCH   9  14
ENDBRANCH   8   9
ENDBRANCH   7   8
ENDBRANCH   1   7
BRANCH   4  17
ATOM     17  C   UNL     1       1.816   8.091  21.490  0.00  0.00    +0.000 C 
BRANCH  17  18
ATOM     18  C   UNL     1       0.728   9.138  21.681  0.00  0.00    +0.000 A 
ATOM     19  C   UNL     1       0.083   9.265  22.920  0.00  0.00    +0.000 A 
ATOM     20  C   UNL     1      -0.860  10.259  23.131  0.00  0.00    +0.000 A 
ATOM     21  C   UNL     1      -1.198  11.156  22.097  0.00  0.00    +0.000 A 
ATOM     22  C   UNL     1      -0.595  10.996  20.841  0.00  0.00    +0.000 A 
ATOM     23  C   UNL     1       0.360  10.010  20.631  0.00  0.00    +0.000 A 
BRANCH  21  24
ATOM     24  C   UNL     1      -2.140  12.271  22.343  0.00  0.00    +0.000 A 
ATOM     25  C   UNL     1      -2.159  13.387  21.484  0.00  0.00    +0.000 A 
ATOM     26  C   UNL     1      -3.062  14.428  21.697  0.00  0.00    +0.000 A 
ATOM     27  C   UNL     1      -3.939  14.377  22.786  0.00  0.00    +0.000 A 
ATOM     28  C   UNL     1      -3.927  13.278  23.642  0.00  0.00    +0.000 A 
ATOM     29  C   UNL     1      -3.044  12.220  23.419  0.00  0.00    +0.000 A 
ENDBRANCH  21  24
ENDBRANCH  17  18
ENDBRANCH   4  17
TORSDOF 7
ENDMDL
MODEL 4
REMARK VINA RESULT:      -8.3      3.890     10.329
REMARK  Name = 
REMARK  7 active torsions:
REMARK  status: ('A' for Active; 'I' for Inactive)
REMARK    1  A    between atoms: C_5  and  C_6
REMARK    2  A    between atoms: C_6  and  O_7
REMARK    3  A    between atoms: O_7  and  C_8
REMARK    4  A    between atoms: C_8  and  C_9
REMARK    5  A    between atoms: N_12  and  C_13
REMARK    6  A    between atoms: C_13  and  C_14
REMARK    7  A    between atoms: C_17  and  C_18
REMARK                            x       y       z     vdW  Elec       q    Type
REMARK                         _______ _______ _______ _____ _____    ______ ____
ROOT
ATOM      1  C   UNL     1       3.110   7.166  18.910  0.00  0.00    +0.000 C 
ATOM      2  C   UNL     1       2.396   7.600  17.605  0.00  0.00    +0.000 C 
ATOM      3  C   UNL     1       1.947   9.059  17.826  0.00  0.00    +0.000 C 
ATOM      4  N   UNL     1       1.065   9.224  18.996  0.00  0.00    +0.000 NA
ATOM      5  C   UNL     1       1.583   8.563  20.229  0.00  0.00    +0.000 C 
ATOM      6  C   UNL     1       2.059   7.151  19.997  0.00  0.00    +0.000 C 
ENDROOT
BRANCH   1   7
ATOM      7  C   UNL     1       3.885   5.856  18.909  0.00  0.00    +0.000 C 
BRANCH   7   8
ATOM      8  O   UNL     1       3.778   5.367  17.563  0.00  0.00    +0.000 OA
BRANCH   8   9
ATOM      9  C   UNL     1       3.514   3.978  17.504  0.00  0.00    +0.000 C 
BRANCH   9  14
ATOM     10  F   UNL     1       0.918   2.516  22.348  0.00  0.00    +0.000 F 
ATOM     11  C   UNL     1       1.508   2.840  21.170  0.00  0.00    +0.000 A 
ATOM     12  C   UNL     1       2.884   2.638  21.004  0.00  0.00    +0.000 A 
ATOM     13  C   UNL     1       3.504   3.000  19.806  0.00  0.00    +0.000 A 
ATOM     14  C   UNL     1       2.778   3.556  18.756  0.00  0.00    +0.000 A 
ATOM     15  C   UNL     1       1.375   3.728  18.908  0.00  0.00    +0.000 A 
ATOM     16  C   UNL     1       0.753   3.370  20.121  0.00  0.00    +0.000 A 
ENDBRANCH   9  14
ENDBRANCH   8   9
ENDBRANCH   7   8
ENDBRANCH   1   7
BRANCH   4  17
ATOM     17  C   UNL     1       0.830  10.665  19.286  0.00  0.00    +0.000 C 
BRANCH  17  18
ATOM     18  C   UNL     1      -0.622  11.096  19.125  0.00  0.00    +0.000 A 
ATOM     19  C   UNL     1      -1.432  10.488  18.156  0.00  0.00    +0.000 A 
ATOM     20  C   UNL     1      -2.774  10.818  18.044  0.00  0.00    +0.000 A 
ATOM     21  C   UNL     1      -3.347  11.784  18.897  0.00  0.00    +0.000 A 
ATOM     22  C   UNL     1      -2.525  12.433  19.830  0.00  0.00    +0.000 A 
ATOM     23  C   UNL     1      -1.184  12.094  19.953  0.00  0.00    +0.000 A 
BRANCH  21  24
ATOM     24  C   UNL     1      -4.796  12.078  18.838  0.00  0.00    +0.000 A 
ATOM     25  C   UNL     1      -5.482  12.500  19.994  0.00  0.00    +0.000 A 
ATOM     26  C   UNL     1      -6.842  12.803  19.938  0.00  0.00    +0.000 A 
ATOM     27  C   UNL     1      -7.538  12.662  18.732  0.00  0.00    +0.000 A 
ATOM     28  C   UNL     1      -6.868  12.243  17.583  0.00  0.00    +0.000 A 
ATOM     29  C   UNL     1      -5.501  11.965  17.627  0.00  0.00    +0.000 A 
ENDBRANCH  21  24
ENDBRANCH  17  18
ENDBRANCH   4  17
TORSDOF 7
ENDMDL
MODEL 5
REMARK VINA RESULT:      -8.2      4.495     10.717
REMARK  Name = 
REMARK  7 active torsions:
REMARK  status: ('A' for Active; 'I' for Inactive)
REMARK    1  A    between atoms: C_5  and  C_6
REMARK    2  A    between atoms: C_6  and  O_7
REMARK    3  A    between atoms: O_7  and  C_8
REMARK    4  A    between atoms: C_8  and  C_9
REMARK    5  A    between atoms: N_12  and  C_13
REMARK    6  A    between atoms: C_13  and  C_14
REMARK    7  A    between atoms: C_17  and  C_18
REMARK                            x       y       z     vdW  Elec       q    Type
REMARK                         _______ _______ _______ _____ _____    ______ ____
ROOT
ATOM      1  C   UNL     1       2.533   4.996  18.954  0.00  0.00    +0.000 C 
ATOM      2  C   UNL     1       2.168   6.310  18.217  0.00  0.00    +0.000 C 
ATOM      3  C   UNL     1       2.337   7.444  19.250  0.00  0.00    +0.000 C 
ATOM      4  N   UNL     1       1.507   7.260  20.454  0.00  0.00    +0.000 NA
ATOM      5  C   UNL     1       1.608   5.893  21.043  0.00  0.00    +0.000 C 
ATOM      6  C   UNL     1       1.483   4.791  20.022  0.00  0.00    +0.000 C 
ENDROOT
BRANCH   1   7
ATOM      7  C   UNL     1       2.703   3.728  18.130  0.00  0.00    +0.000 C 
BRANCH   7   8
ATOM      8  O   UNL     1       4.072   3.750  17.700  0.00  0.00    +0.000 OA
BRANCH   8   9
ATOM      9  C   UNL     1       4.977   3.970  18.766  0.00  0.00    +0.000 C 
BRANCH   9  14
ATOM     10  F   UNL     1       8.344   8.327  17.343  0.00  0.00    +0.000 F 
ATOM     11  C   UNL     1       7.576   7.261  17.683  0.00  0.00    +0.000 A 
ATOM     12  C   UNL     1       6.455   6.937  16.908  0.00  0.00    +0.000 A 
ATOM     13  C   UNL     1       5.643   5.861  17.270  0.00  0.00    +0.000 A 
ATOM     14  C   UNL     1       5.926   5.088  18.393  0.00  0.00    +0.000 A 
ATOM     15  C   UNL     1       7.083   5.391  19.160  0.00  0.00    +0.000 A 
ATOM     16  C   UNL     1       7.898   6.483  18.797  0.00  0.00    +0.000 A 
ENDBRANCH   9  14
ENDBRANCH   8   9
ENDBRANCH   7   8
ENDBRANCH   1   7
BRANCH   4  17
ATOM     17  C   UNL     1       1.858   8.261  21.499  0.00  0.00    +0.000 C 
BRANCH  17  18
ATOM     18  C   UNL     1       0.773   9.301  21.744  0.00  0.00    +0.000 A 
ATOM     19  C   UNL     1      -0.017   9.233  22.900  0.00  0.00    +0.000 A 
ATOM     20  C   UNL     1      -0.961  10.212  23.173  0.00  0.00    +0.000 A 
ATOM     21  C   UNL     1      -1.152  11.289  22.283  0.00  0.00    +0.000 A 
ATOM     22  C   UNL     1      -0.402  11.328  21.099  0.00  0.00    +0.000 A 
ATOM     23  C   UNL     1       0.554  10.357  20.831  0.00  0.00    +0.000 A 
BRANCH  21  24
ATOM     24  C   UNL     1      -2.097  12.380  22.611  0.00  0.00    +0.000 A 
ATOM     25  C   UNL     1      -2.057  13.593  21.896  0.00  0.00    +0.000 A 
ATOM     26  C   UNL     1      -2.961  14.614  22.184  0.00  0.00    +0.000 A 
ATOM     27  C   UNL     1      -3.900  14.445  23.208  0.00  0.00    +0.000 A 
ATOM     28  C   UNL     1      -3.947  13.249  23.922  0.00  0.00    +0.000 A 
ATOM     29  C   UNL     1      -3.062  12.213  23.620  0.00  0.00    +0.000 A 
ENDBRANCH  21  24
ENDBRANCH  17  18
ENDBRANCH   4  17
TORSDOF 7
ENDMDL
MODEL 6
REMARK VINA RESULT:      -8.2      5.228      9.826
REMARK  Name = 
REMARK  7 active torsions:
REMARK  status: ('A' for Active; 'I' for Inactive)
REMARK    1  A    between atoms: C_5  and  C_6
REMARK    2  A    between atoms: C_6  and  O_7
REMARK    3  A    between atoms: O_7  and  C_8
REMARK    4  A    between atoms: C_8  and  C_9
REMARK    5  A    between atoms: N_12  and  C_13
REMARK    6  A    between atoms: C_13  and  C_14
REMARK    7  A    between atoms: C_17  and  C_18
REMARK                            x       y       z     vdW  Elec       q    Type
REMARK                         _______ _______ _______ _____ _____    ______ ____
ROOT
ATOM      1  C   UNL     1       6.618   6.743  17.395  0.00  0.00    +0.000 C 
ATOM      2  C   UNL     1       6.072   5.869  16.236  0.00  0.00    +0.000 C 
ATOM      3  C   UNL     1       4.630   5.486  16.631  0.00  0.00    +0.000 C 
ATOM      4  N   UNL     1       4.551   4.773  17.918  0.00  0.00    +0.000 NA
ATOM      5  C   UNL     1       5.315   5.438  19.014  0.00  0.00    +0.000 C 
ATOM      6  C   UNL     1       6.709   5.848  18.609  0.00  0.00    +0.000 C 
ENDROOT
BRANCH   1   7
ATOM      7  C   UNL     1       7.931   7.482  17.185  0.00  0.00    +0.000 C 
BRANCH   7   8
ATOM      8  O   UNL     1       7.768   8.727  17.881  0.00  0.00    +0.000 OA
BRANCH   8   9
ATOM      9  C   UNL     1       8.814   8.981  18.800  0.00  0.00    +0.000 C 
BRANCH   9  14
ATOM     10  F   UNL     1      10.219  14.492  18.863  0.00  0.00    +0.000 F 
ATOM     11  C   UNL     1       9.842  13.188  18.845  0.00  0.00    +0.000 A 
ATOM     12  C   UNL     1      10.279  12.325  19.857  0.00  0.00    +0.000 A 
ATOM     13  C   UNL     1       9.920  10.975  19.827  0.00  0.00    +0.000 A 
ATOM     14  C   UNL     1       9.123  10.462  18.808  0.00  0.00    +0.000 A 
ATOM     15  C   UNL     1       8.647  11.345  17.800  0.00  0.00    +0.000 A 
ATOM     16  C   UNL     1       9.016  12.704  17.828  0.00  0.00    +0.000 A 
ENDBRANCH   9  14
ENDBRANCH   8   9
ENDBRANCH   7   8
ENDBRANCH   1   7
BRANCH   4  17
ATOM     17  C   UNL     1       3.135   4.611  18.350  0.00  0.00    +0.000 C 
BRANCH  17  18
ATOM     18  C   UNL     1       2.575   5.821  19.085  0.00  0.00    +0.000 A 
ATOM     19  C   UNL     1       2.579   7.081  18.470  0.00  0.00    +0.000 A 
ATOM     20  C   UNL     1       2.008   8.179  19.097  0.00  0.00    +0.000 A 
ATOM     21  C   UNL     1       1.425   8.050  20.374  0.00  0.00    +0.000 A 
ATOM     22  C   UNL     1       1.469   6.803  21.014  0.00  0.00    +0.000 A 
ATOM     23  C   UNL     1       2.027   5.699  20.383  0.00  0.00    +0.000 A 
BRANCH  21  24
ATOM     24  C   UNL     1       0.740   9.197  21.010  0.00  0.00    +0.000 A 
ATOM     25  C   UNL     1       0.776  10.469  20.407  0.00  0.00    +0.000 A 
ATOM     26  C   UNL     1       0.111  11.547  20.989  0.00  0.00    +0.000 A 
ATOM     27  C   UNL     1      -0.577  11.372  22.196  0.00  0.00    +0.000 A 
ATOM     28  C   UNL     1      -0.617  10.118  22.801  0.00  0.00    +0.000 A 
ATOM     29  C   UNL     1       0.024   9.029  22.209  0.00  0.00    +0.000 A 
ENDBRANCH  21  24
ENDBRANCH  17  18
ENDBRANCH   4  17
TORSDOF 7
ENDMDL
MODEL 7
REMARK VINA RESULT:      -8.2      3.273     10.652
REMARK  Name = 
REMARK  7 active torsions:
REMARK  status: ('A' for Active; 'I' for Inactive)
REMARK    1  A    between atoms: C_5  and  C_6
REMARK    2  A    between atoms: C_6  and  O_7
REMARK    3  A    between atoms: O_7  and  C_8
REMARK    4  A    between atoms: C_8  and  C_9
REMARK    5  A    between atoms: N_12  and  C_13
REMARK    6  A    between atoms: C_13  and  C_14
REMARK    7  A    between atoms: C_17  and  C_18
REMARK                            x       y       z     vdW  Elec       q    Type
REMARK                         _______ _______ _______ _____ _____    ______ ____
ROOT
ATOM      1  C   UNL     1       2.854   6.896  19.508  0.00  0.00    +0.000 C 
ATOM      2  C   UNL     1       2.345   7.209  18.077  0.00  0.00    +0.000 C 
ATOM      3  C   UNL     1       1.978   8.707  18.070  0.00  0.00    +0.000 C 
ATOM      4  N   UNL     1       0.969   9.062  19.084  0.00  0.00    +0.000 NA
ATOM      5  C   UNL     1       1.277   8.527  20.442  0.00  0.00    +0.000 C 
ATOM      6  C   UNL     1       1.675   7.073  20.437  0.00  0.00    +0.000 C 
ENDROOT
BRANCH   1   7
ATOM      7  C   UNL     1       3.526   5.553  19.758  0.00  0.00    +0.000 C 
BRANCH   7   8
ATOM      8  O   UNL     1       3.907   5.085  18.456  0.00  0.00    +0.000 OA
BRANCH   8   9
ATOM      9  C   UNL     1       5.138   4.387  18.464  0.00  0.00    +0.000 C 
BRANCH   9  14
ATOM     10  F   UNL     1       7.249   4.728  13.195  0.00  0.00    +0.000 F 
ATOM     11  C   UNL     1       6.778   4.619  14.462  0.00  0.00    +0.000 A 
ATOM     12  C   UNL     1       5.438   4.273  14.677  0.00  0.00    +0.000 A 
ATOM     13  C   UNL     1       4.938   4.190  15.979  0.00  0.00    +0.000 A 
ATOM     14  C   UNL     1       5.751   4.438  17.082  0.00  0.00    +0.000 A 
ATOM     15  C   UNL     1       7.120   4.752  16.867  0.00  0.00    +0.000 A 
ATOM     16  C   UNL     1       7.621   4.843  15.553  0.00  0.00    +0.000 A 
ENDBRANCH   9  14
ENDBRANCH   8   9
ENDBRANCH   7   8
ENDBRANCH   1   7
BRANCH   4  17
ATOM     17  C   UNL     1       0.804  10.539  19.176  0.00  0.00    +0.000 C 
BRANCH  17  18
ATOM     18  C   UNL     1      -0.638  11.007  19.032  0.00  0.00    +0.000 A 
ATOM     19  C   UNL     1      -1.469  10.432  18.060  0.00  0.00    +0.000 A 
ATOM     20  C   UNL     1      -2.804  10.796  17.963  0.00  0.00    +0.000 A 
ATOM     21  C   UNL     1      -3.347  11.763  18.833  0.00  0.00    +0.000 A 
ATOM     22  C   UNL     1      -2.503  12.379  19.769  0.00  0.00    +0.000 A 
ATOM     23  C   UNL     1      -1.170  12.007  19.878  0.00  0.00    +0.000 A 
BRANCH  21  24
ATOM     24  C   UNL     1      -4.789  12.093  18.790  0.00  0.00    +0.000 A 
ATOM     25  C   UNL     1      -5.502  12.002  17.579  0.00  0.00    +0.000 A 
ATOM     26  C   UNL     1      -6.866  12.287  17.538  0.00  0.00    +0.000 A 
ATOM     27  C   UNL     1      -7.529  12.690  18.703  0.00  0.00    +0.000 A 
ATOM     28  C   UNL     1      -6.832  12.784  19.906  0.00  0.00    +0.000 A 
ATOM     29  C   UNL     1      -5.472  12.474  19.959  0.00  0.00    +0.000 A 
ENDBRANCH  21  24
ENDBRANCH  17  18
ENDBRANCH   4  17
TORSDOF 7
ENDMDL
MODEL 8
REMARK VINA RESULT:      -8.1      4.477     10.856
REMARK  Name = 
REMARK  7 active torsions:
REMARK  status: ('A' for Active; 'I' for Inactive)
REMARK    1  A    between atoms: C_5  and  C_6
REMARK    2  A    between atoms: C_6  and  O_7
REMARK    3  A    between atoms: O_7  and  C_8
REMARK    4  A    between atoms: C_8  and  C_9
REMARK    5  A    between atoms: N_12  and  C_13
REMARK    6  A    between atoms: C_13  and  C_14
REMARK    7  A    between atoms: C_17  and  C_18
REMARK                            x       y       z     vdW  Elec       q    Type
REMARK                         _______ _______ _______ _____ _____    ______ ____
ROOT
ATOM      1  C   UNL     1       2.554   5.153  18.831  0.00  0.00    +0.000 C 
ATOM      2  C   UNL     1       2.317   6.541  18.181  0.00  0.00    +0.000 C 
ATOM      3  C   UNL     1       2.495   7.578  19.309  0.00  0.00    +0.000 C 
ATOM      4  N   UNL     1       1.584   7.360  20.448  0.00  0.00    +0.000 NA
ATOM      5  C   UNL     1       1.563   5.948  20.930  0.00  0.00    +0.000 C 
ATOM      6  C   UNL     1       1.430   4.937  19.819  0.00  0.00    +0.000 C 
ENDROOT
BRANCH   1   7
ATOM      7  C   UNL     1       2.693   3.943  17.918  0.00  0.00    +0.000 C 
BRANCH   7   8
ATOM      8  O   UNL     1       3.565   4.375  16.864  0.00  0.00    +0.000 OA
BRANCH   8   9
ATOM      9  C   UNL     1       4.829   3.739  16.903  0.00  0.00    +0.000 C 
BRANCH   9  14
ATOM     10  F   UNL     1       8.573   7.590  18.771  0.00  0.00    +0.000 F 
ATOM     11  C   UNL     1       7.707   6.640  18.338  0.00  0.00    +0.000 A 
ATOM     12  C   UNL     1       7.235   6.678  17.020  0.00  0.00    +0.000 A 
ATOM     13  C   UNL     1       6.319   5.721  16.578  0.00  0.00    +0.000 A 
ATOM     14  C   UNL     1       5.863   4.713  17.423  0.00  0.00    +0.000 A 
ATOM     15  C   UNL     1       6.369   4.650  18.750  0.00  0.00    +0.000 A 
ATOM     16  C   UNL     1       7.287   5.621  19.197  0.00  0.00    +0.000 A 
ENDBRANCH   9  14
ENDBRANCH   8   9
ENDBRANCH   7   8
ENDBRANCH   1   7
BRANCH   4  17
ATOM     17  C   UNL     1       1.934   8.252  21.587  0.00  0.00    +0.000 C 
BRANCH  17  18
ATOM     18  C   UNL     1       0.900   9.335  21.860  0.00  0.00    +0.000 A 
ATOM     19  C   UNL     1       0.037   9.222  22.960  0.00  0.00    +0.000 A 
ATOM     20  C   UNL     1      -0.862  10.234  23.263  0.00  0.00    +0.000 A 
ATOM     21  C   UNL     1      -0.934  11.391  22.461  0.00  0.00    +0.000 A 
ATOM     22  C   UNL     1      -0.111  11.481  21.329  0.00  0.00    +0.000 A 
ATOM     23  C   UNL     1       0.801  10.476  21.032  0.00  0.00    +0.000 A 
BRANCH  21  24
ATOM     24  C   UNL     1      -1.831  12.510  22.829  0.00  0.00    +0.000 A 
ATOM     25  C   UNL     1      -3.219  12.299  22.944  0.00  0.00    +0.000 A 
ATOM     26  C   UNL     1      -4.064  13.344  23.316  0.00  0.00    +0.000 A 
ATOM     27  C   UNL     1      -3.535  14.618  23.551  0.00  0.00    +0.000 A 
ATOM     28  C   UNL     1      -2.164  14.837  23.438  0.00  0.00    +0.000 A 
ATOM     29  C   UNL     1      -1.309  13.789  23.093  0.00  0.00    +0.000 A 
ENDBRANCH  21  24
ENDBRANCH  17  18
ENDBRANCH   4  17
TORSDOF 7
ENDMDL
MODEL 9
REMARK VINA RESULT:      -8.1      4.200     10.734
REMARK  Name = 
REMARK  7 active torsions:
REMARK  status: ('A' for Active; 'I' for Inactive)
REMARK    1  A    between atoms: C_5  and  C_6
REMARK    2  A    between atoms: C_6  and  O_7
REMARK    3  A    between atoms: O_7  and  C_8
REMARK    4  A    between atoms: C_8  and  C_9
REMARK    5  A    between atoms: N_12  and  C_13
REMARK    6  A    between atoms: C_13  and  C_14
REMARK    7  A    between atoms: C_17  and  C_18
REMARK                            x       y       z     vdW  Elec       q    Type
REMARK                         _______ _______ _______ _____ _____    ______ ____
ROOT
ATOM      1  C   UNL     1       2.548   5.102  18.890  0.00  0.00    +0.000 C 
ATOM      2  C   UNL     1       2.300   6.468  18.200  0.00  0.00    +0.000 C 
ATOM      3  C   UNL     1       2.434   7.537  19.304  0.00  0.00    +0.000 C 
ATOM      4  N   UNL     1       1.503   7.331  20.428  0.00  0.00    +0.000 NA
ATOM      5  C   UNL     1       1.498   5.932  20.947  0.00  0.00    +0.000 C 
ATOM      6  C   UNL     1       1.408   4.891  19.860  0.00  0.00    +0.000 C 
ENDROOT
BRANCH   1   7
ATOM      7  C   UNL     1       2.729   3.871  18.013  0.00  0.00    +0.000 C 
BRANCH   7   8
ATOM      8  O   UNL     1       3.516   4.325  16.902  0.00  0.00    +0.000 OA
BRANCH   8   9
ATOM      9  C   UNL     1       4.793   3.717  16.851  0.00  0.00    +0.000 C 
BRANCH   9  14
ATOM     10  F   UNL     1       8.555   7.547  18.726  0.00  0.00    +0.000 F 
ATOM     11  C   UNL     1       7.683   6.601  18.295  0.00  0.00    +0.000 A 
ATOM     12  C   UNL     1       7.289   6.581  16.951  0.00  0.00    +0.000 A 
ATOM     13  C   UNL     1       6.368   5.630  16.508  0.00  0.00    +0.000 A 
ATOM     14  C   UNL     1       5.829   4.685  17.378  0.00  0.00    +0.000 A 
ATOM     15  C   UNL     1       6.255   4.681  18.734  0.00  0.00    +0.000 A 
ATOM     16  C   UNL     1       7.180   5.646  19.181  0.00  0.00    +0.000 A 
ENDBRANCH   9  14
ENDBRANCH   8   9
ENDBRANCH   7   8
ENDBRANCH   1   7
BRANCH   4  17
ATOM     17  C   UNL     1       1.812   8.259  21.551  0.00  0.00    +0.000 C 
BRANCH  17  18
ATOM     18  C   UNL     1       0.778   9.360  21.741  0.00  0.00    +0.000 A 
ATOM     19  C   UNL     1       0.521  10.270  20.706  0.00  0.00    +0.000 A 
ATOM     20  C   UNL     1      -0.467  11.234  20.837  0.00  0.00    +0.000 A 
ATOM     21  C   UNL     1      -1.226  11.324  22.022  0.00  0.00    +0.000 A 
ATOM     22  C   UNL     1      -0.933  10.450  23.080  0.00  0.00    +0.000 A 
ATOM     23  C   UNL     1       0.047   9.475  22.946  0.00  0.00    +0.000 A 
BRANCH  21  24
ATOM     24  C   UNL     1      -2.338  12.294  22.135  0.00  0.00    +0.000 A 
ATOM     25  C   UNL     1      -2.704  12.813  23.392  0.00  0.00    +0.000 A 
ATOM     26  C   UNL     1      -3.734  13.746  23.499  0.00  0.00    +0.000 A 
ATOM     27  C   UNL     1      -4.428  14.152  22.354  0.00  0.00    +0.000 A 
ATOM     28  C   UNL     1      -4.075  13.644  21.106  0.00  0.00    +0.000 A 
ATOM     29  C   UNL     1      -3.026  12.730  20.988  0.00  0.00    +0.000 A 
ENDBRANCH  21  24
ENDBRANCH  17  18
ENDBRANCH   4  17
TORSDOF 7
ENDMDL
