MODEL 1
REMARK VINA RESULT:      -7.8      0.000      0.000
REMARK  Name = 
REMARK  9 active torsions:
REMARK  status: ('A' for Active; 'I' for Inactive)
REMARK    1  A    between atoms: C_1  and  O_2
REMARK    2  A    between atoms: O_2  and  C_3
REMARK    3  A    between atoms: C_6  and  O_7
REMARK    4  A    between atoms: O_7  and  C_8
REMARK    5  A    between atoms: C_8  and  C_9
REMARK    6  A    between atoms: C_12  and  S_13
REMARK    7  A    between atoms: S_13  and  C_14
REMARK    8  A    between atoms: C_14  and  C_15
REMARK    9  A    between atoms: N_17  and  C_18
REMARK                            x       y       z     vdW  Elec       q    Type
REMARK                         _______ _______ _______ _____ _____    ______ ____
ROOT
ATOM      1  C   UNL     1       8.067   8.725  18.089  0.00  0.00    +0.000 A 
ATOM      2  N   UNL     1       7.163   8.657  17.132  0.00  0.00    +0.000 NA
ATOM      3  N   UNL     1       6.863   7.325  16.975  0.00  0.00    +0.000 NA
ATOM      4  C   UNL     1       7.600   6.664  17.846  0.00  0.00    +0.000 A 
ATOM      5  O   UNL     1       8.387   7.493  18.600  0.00  0.00    +0.000 OA
ENDROOT
BRANCH   1   6
ATOM      6  C   UNL     1       8.670   9.921  18.727  0.00  0.00    +0.000 C 
BRANCH   6   7
ATOM      7  O   UNL     1       9.733  10.381  17.889  0.00  0.00    +0.000 OA
BRANCH   7  11
ATOM      8  C   UNL     1      11.609  13.924  19.075  0.00  0.00    +0.000 A 
ATOM      9  C   UNL     1      12.051  12.671  19.503  0.00  0.00    +0.000 A 
ATOM     10  C   UNL     1      11.407  11.506  19.077  0.00  0.00    +0.000 A 
ATOM     11  C   UNL     1      10.287  11.581  18.247  0.00  0.00    +0.000 A 
ATOM     12  C   UNL     1       9.845  12.833  17.818  0.00  0.00    +0.000 A 
ATOM     13  C   UNL     1      10.501  14.001  18.233  0.00  0.00    +0.000 A 
BRANCH   8  15
ATOM     14  C   UNL     1      11.599  15.832  20.474  0.00  0.00    +0.000 C 
ATOM     15  O   UNL     1      12.304  14.992  19.567  0.00  0.00    +0.000 OA
ENDBRANCH   8  15
ENDBRANCH   7  11
ENDBRANCH   6   7
ENDBRANCH   1   6
BRANCH   4  16
ATOM     16  S   UNL     1       7.589   4.939  18.008  0.00  0.00    +0.000 S 
BRANCH  16  17
ATOM     17  C   UNL     1       6.360   4.502  16.740  0.00  0.00    +0.000 C 
BRANCH  17  18
ATOM     18  C   UNL     1       4.996   4.294  17.370  0.00  0.00    +0.000 C 
ATOM     19  O   UNL     1       3.992   4.243  16.658  0.00  0.00    +0.000 OA
ATOM     20  N   UNL     1       5.012   4.213  18.751  0.00  0.00    +0.000 N 
ATOM     21  H   UNL     1       5.869   4.470  19.242  0.00  0.00    +0.000 HD
BRANCH  20  22
ATOM     22  C   UNL     1       3.879   4.054  19.588  0.00  0.00    +0.000 A 
ATOM     23  C   UNL     1       3.011   5.098  19.916  0.00  0.00    +0.000 A 
ATOM     24  C   UNL     1       1.939   4.881  20.785  0.00  0.00    +0.000 A 
ATOM     25  C   UNL     1       1.718   3.618  21.334  0.00  0.00    +0.000 A 
ATOM     26  C   UNL     1       2.561   2.563  20.995  0.00  0.00    +0.000 A 
ATOM     27  C   UNL     1       3.623   2.785  20.120  0.00  0.00    +0.000 A 
ATOM     28  F   UNL     1       4.426   1.755  19.809  0.00  0.00    +0.000 F 
ENDBRANCH  20  22
ENDBRANCH  17  18
ENDBRANCH  16  17
ENDBRANCH   4  16
TORSDOF 8
ENDMDL
MODEL 2
REMARK VINA RESULT:      -7.8      3.874      6.473
REMARK  Name = 
REMARK  9 active torsions:
REMARK  status: ('A' for Active; 'I' for Inactive)
REMARK    1  A    between atoms: C_1  and  O_2
REMARK    2  A    between atoms: O_2  and  C_3
REMARK    3  A    between atoms: C_6  and  O_7
REMARK    4  A    between atoms: O_7  and  C_8
REMARK    5  A    between atoms: C_8  and  C_9
REMARK    6  A    between atoms: C_12  and  S_13
REMARK    7  A    between atoms: S_13  and  C_14
REMARK    8  A    between atoms: C_14  and  C_15
REMARK    9  A    between atoms: N_17  and  C_18
REMARK                            x       y       z     vdW  Elec       q    Type
REMARK                         _______ _______ _______ _____ _____    ______ ____
ROOT
ATOM      1  C   UNL     1       3.773   3.324  17.679  0.00  0.00    +0.000 A 
ATOM      2  N   UNL     1       3.023   2.335  17.235  0.00  0.00    +0.000 NA
ATOM      3  N   UNL     1       2.370   1.822  18.330  0.00  0.00    +0.000 NA
ATOM      4  C   UNL     1       2.761   2.529  19.372  0.00  0.00    +0.000 A 
ATOM      5  O   UNL     1       3.649   3.513  19.031  0.00  0.00    +0.000 OA
ENDROOT
BRANCH   1   6
ATOM      6  C   UNL     1       4.610   4.283  16.916  0.00  0.00    +0.000 C 
BRANCH   6   7
ATOM      7  O   UNL     1       5.960   4.149  17.367  0.00  0.00    +0.000 OA
BRANCH   7  11
ATOM      8  C   UNL     1       8.088   7.620  18.317  0.00  0.00    +0.000 A 
ATOM      9  C   UNL     1       8.187   6.456  19.081  0.00  0.00    +0.000 A 
ATOM     10  C   UNL     1       7.469   5.310  18.727  0.00  0.00    +0.000 A 
ATOM     11  C   UNL     1       6.613   5.324  17.626  0.00  0.00    +0.000 A 
ATOM     12  C   UNL     1       6.514   6.487  16.860  0.00  0.00    +0.000 A 
ATOM     13  C   UNL     1       7.245   7.633  17.206  0.00  0.00    +0.000 A 
BRANCH   8  15
ATOM     14  C   UNL     1       8.519   9.943  18.175  0.00  0.00    +0.000 C 
ATOM     15  O   UNL     1       8.820   8.682  18.765  0.00  0.00    +0.000 OA
ENDBRANCH   8  15
ENDBRANCH   7  11
ENDBRANCH   6   7
ENDBRANCH   1   6
BRANCH   4  16
ATOM     16  S   UNL     1       2.226   2.235  20.994  0.00  0.00    +0.000 S 
BRANCH  16  17
ATOM     17  C   UNL     1       2.376   3.908  21.692  0.00  0.00    +0.000 C 
BRANCH  17  18
ATOM     18  C   UNL     1       1.778   4.934  20.748  0.00  0.00    +0.000 C 
ATOM     19  O   UNL     1       0.685   4.721  20.221  0.00  0.00    +0.000 OA
ATOM     20  N   UNL     1       2.574   6.046  20.535  0.00  0.00    +0.000 N 
ATOM     21  H   UNL     1       3.540   6.020  20.863  0.00  0.00    +0.000 HD
BRANCH  20  22
ATOM     22  C   UNL     1       2.272   7.133  19.678  0.00  0.00    +0.000 A 
ATOM     23  C   UNL     1       2.726   7.226  18.361  0.00  0.00    +0.000 A 
ATOM     24  C   UNL     1       2.429   8.350  17.586  0.00  0.00    +0.000 A 
ATOM     25  C   UNL     1       1.670   9.393  18.116  0.00  0.00    +0.000 A 
ATOM     26  C   UNL     1       1.190   9.303  19.420  0.00  0.00    +0.000 A 
ATOM     27  C   UNL     1       1.483   8.173  20.183  0.00  0.00    +0.000 A 
ATOM     28  F   UNL     1       1.014   8.108  21.439  0.00  0.00    +0.000 F 
ENDBRANCH  20  22
ENDBRANCH  17  18
ENDBRANCH  16  17
ENDBRANCH   4  16
TORSDOF 8
ENDMDL
MODEL 3
REMARK VINA RESULT:      -7.7      1.213      1.704
REMARK  Name = 
REMARK  9 active torsions:
REMARK  status: ('A' for Active; 'I' for Inactive)
REMARK    1  A    between atoms: C_1  and  O_2
REMARK    2  A    between atoms: O_2  and  C_3
REMARK    3  A    between atoms: C_6  and  O_7
REMARK    4  A    between atoms: O_7  and  C_8
REMARK    5  A    between atoms: C_8  and  C_9
REMARK    6  A    between atoms: C_12  and  S_13
REMARK    7  A    between atoms: S_13  and  C_14
REMARK    8  A    between atoms: C_14  and  C_15
REMARK    9  A    between atoms: N_17  and  C_18
REMARK                            x       y       z     vdW  Elec       q    Type
REMARK                         _______ _______ _______ _____ _____    ______ ____
ROOT
ATOM      1  C   UNL     1       8.061   8.214  18.092  0.00  0.00    +0.000 A 
ATOM      2  N   UNL     1       7.147   8.376  17.156  0.00  0.00    +0.000 NA
ATOM      3  N   UNL     1       6.741   7.115  16.789  0.00  0.00    +0.000 NA
ATOM      4  C   UNL     1       7.431   6.264  17.523  0.00  0.00    +0.000 A 
ATOM      5  O   UNL     1       8.287   6.894  18.387  0.00  0.00    +0.000 OA
ENDROOT
BRANCH   1   6
ATOM      6  C   UNL     1       8.762   9.239  18.905  0.00  0.00    +0.000 C 
BRANCH   6   7
ATOM      7  O   UNL     1       8.809  10.449  18.147  0.00  0.00    +0.000 OA
BRANCH   7  11
ATOM      8  C   UNL     1      11.479  13.447  19.319  0.00  0.00    +0.000 A 
ATOM      9  C   UNL     1      10.665  13.576  18.192  0.00  0.00    +0.000 A 
ATOM     10  C   UNL     1       9.775  12.559  17.837  0.00  0.00    +0.000 A 
ATOM     11  C   UNL     1       9.715  11.380  18.582  0.00  0.00    +0.000 A 
ATOM     12  C   UNL     1      10.528  11.250  19.709  0.00  0.00    +0.000 A 
ATOM     13  C   UNL     1      11.410  12.277  20.074  0.00  0.00    +0.000 A 
BRANCH   8  15
ATOM     14  C   UNL     1      11.727  15.646  20.155  0.00  0.00    +0.000 C 
ATOM     15  O   UNL     1      12.319  14.496  19.561  0.00  0.00    +0.000 OA
ENDBRANCH   8  15
ENDBRANCH   7  11
ENDBRANCH   6   7
ENDBRANCH   1   6
BRANCH   4  16
ATOM     16  S   UNL     1       7.285   4.542  17.400  0.00  0.00    +0.000 S 
BRANCH  16  17
ATOM     17  C   UNL     1       5.680   4.412  16.555  0.00  0.00    +0.000 C 
BRANCH  17  18
ATOM     18  C   UNL     1       4.679   3.676  17.425  0.00  0.00    +0.000 C 
ATOM     19  O   UNL     1       4.328   2.533  17.125  0.00  0.00    +0.000 OA
ATOM     20  N   UNL     1       4.211   4.407  18.503  0.00  0.00    +0.000 N 
ATOM     21  H   UNL     1       4.417   5.406  18.535  0.00  0.00    +0.000 HD
BRANCH  20  22
ATOM     22  C   UNL     1       3.250   3.972  19.448  0.00  0.00    +0.000 A 
ATOM     23  C   UNL     1       3.537   3.084  20.487  0.00  0.00    +0.000 A 
ATOM     24  C   UNL     1       2.529   2.661  21.358  0.00  0.00    +0.000 A 
ATOM     25  C   UNL     1       1.223   3.123  21.203  0.00  0.00    +0.000 A 
ATOM     26  C   UNL     1       0.927   4.028  20.187  0.00  0.00    +0.000 A 
ATOM     27  C   UNL     1       1.941   4.453  19.329  0.00  0.00    +0.000 A 
ATOM     28  F   UNL     1       1.634   5.323  18.354  0.00  0.00    +0.000 F 
ENDBRANCH  20  22
ENDBRANCH  17  18
ENDBRANCH  16  17
ENDBRANCH   4  16
TORSDOF 8
ENDMDL
MODEL 4
REMARK VINA RESULT:      -7.7      5.040      8.131
REMARK  Name = 
REMARK  9 active torsions:
REMARK  status: ('A' for Active; 'I' for Inactive)
REMARK    1  A    between atoms: C_1  and  O_2
REMARK    2  A    between atoms: O_2  and  C_3
REMARK    3  A    between atoms: C_6  and  O_7
REMARK    4  A    between atoms: O_7  and  C_8
REMARK    5  A    between atoms: C_8  and  C_9
REMARK    6  A    between atoms: C_12  and  S_13
REMARK    7  A    between atoms: S_13  and  C_14
REMARK    8  A    between atoms: C_14  and  C_15
REMARK    9  A    between atoms: N_17  and  C_18
REMARK                            x       y       z     vdW  Elec       q    Type
REMARK                         _______ _______ _______ _____ _____    ______ ____
ROOT
ATOM      1  C   UNL     1       3.555   5.135  19.129  0.00  0.00    +0.000 A 
ATOM      2  N   UNL     1       3.838   3.886  18.818  0.00  0.00    +0.000 NA
ATOM      3  N   UNL     1       5.207   3.813  18.717  0.00  0.00    +0.000 NA
ATOM      4  C   UNL     1       5.672   5.020  18.973  0.00  0.00    +0.000 A 
ATOM      5  O   UNL     1       4.675   5.915  19.255  0.00  0.00    +0.000 OA
ENDROOT
BRANCH   1   6
ATOM      6  C   UNL     1       2.242   5.746  19.452  0.00  0.00    +0.000 C 
BRANCH   6   7
ATOM      7  O   UNL     1       2.479   6.910  20.248  0.00  0.00    +0.000 OA
BRANCH   7  11
ATOM      8  C   UNL     1       0.319  10.251  18.960  0.00  0.00    +0.000 A 
ATOM      9  C   UNL     1       1.194   9.562  18.118  0.00  0.00    +0.000 A 
ATOM     10  C   UNL     1       1.891   8.442  18.579  0.00  0.00    +0.000 A 
ATOM     11  C   UNL     1       1.752   8.017  19.901  0.00  0.00    +0.000 A 
ATOM     12  C   UNL     1       0.877   8.705  20.744  0.00  0.00    +0.000 A 
ATOM     13  C   UNL     1       0.166   9.819  20.277  0.00  0.00    +0.000 A 
BRANCH   8  15
ATOM     14  C   UNL     1      -1.342  11.921  19.176  0.00  0.00    +0.000 C 
ATOM     15  O   UNL     1      -0.295  11.338  18.408  0.00  0.00    +0.000 OA
ENDBRANCH   8  15
ENDBRANCH   7  11
ENDBRANCH   6   7
ENDBRANCH   1   6
BRANCH   4  16
ATOM     16  S   UNL     1       7.355   5.434  18.939  0.00  0.00    +0.000 S 
BRANCH  16  17
ATOM     17  C   UNL     1       7.320   6.839  17.784  0.00  0.00    +0.000 C 
BRANCH  17  18
ATOM     18  C   UNL     1       6.738   6.415  16.449  0.00  0.00    +0.000 C 
ATOM     19  O   UNL     1       5.657   6.875  16.077  0.00  0.00    +0.000 OA
ATOM     20  N   UNL     1       7.498   5.484  15.763  0.00  0.00    +0.000 N 
ATOM     21  H   UNL     1       8.266   5.028  16.258  0.00  0.00    +0.000 HD
BRANCH  20  22
ATOM     22  C   UNL     1       7.170   4.899  14.516  0.00  0.00    +0.000 A 
ATOM     23  C   UNL     1       7.794   5.242  13.315  0.00  0.00    +0.000 A 
ATOM     24  C   UNL     1       7.388   4.658  12.112  0.00  0.00    +0.000 A 
ATOM     25  C   UNL     1       6.356   3.719  12.096  0.00  0.00    +0.000 A 
ATOM     26  C   UNL     1       5.742   3.349  13.290  0.00  0.00    +0.000 A 
ATOM     27  C   UNL     1       6.160   3.930  14.486  0.00  0.00    +0.000 A 
ATOM     28  F   UNL     1       5.552   3.562  15.625  0.00  0.00    +0.000 F 
ENDBRANCH  20  22
ENDBRANCH  17  18
ENDBRANCH  16  17
ENDBRANCH   4  16
TORSDOF 8
ENDMDL
MODEL 5
REMARK VINA RESULT:      -7.6      1.381      1.668
REMARK  Name = 
REMARK  9 active torsions:
REMARK  status: ('A' for Active; 'I' for Inactive)
REMARK    1  A    between atoms: C_1  and  O_2
REMARK    2  A    between atoms: O_2  and  C_3
REMARK    3  A    between atoms: C_6  and  O_7
REMARK    4  A    between atoms: O_7  and  C_8
REMARK    5  A    between atoms: C_8  and  C_9
REMARK    6  A    between atoms: C_12  and  S_13
REMARK    7  A    between atoms: S_13  and  C_14
REMARK    8  A    between atoms: C_14  and  C_15
REMARK    9  A    between atoms: N_17  and  C_18
REMARK                            x       y       z     vdW  Elec       q    Type
REMARK                         _______ _______ _______ _____ _____    ______ ____
ROOT
ATOM      1  C   UNL     1       7.802   7.802  17.761  0.00  0.00    +0.000 A 
ATOM      2  N   UNL     1       6.872   8.120  16.883  0.00  0.00    +0.000 NA
ATOM      3  N   UNL     1       6.374   6.934  16.398  0.00  0.00    +0.000 NA
ATOM      4  C   UNL     1       7.030   5.968  17.011  0.00  0.00    +0.000 A 
ATOM      5  O   UNL     1       7.951   6.447  17.905  0.00  0.00    +0.000 OA
ENDROOT
BRANCH   1   6
ATOM      6  C   UNL     1       8.593   8.687  18.652  0.00  0.00    +0.000 C 
BRANCH   6   7
ATOM      7  O   UNL     1       8.829   9.915  17.961  0.00  0.00    +0.000 OA
BRANCH   7  11
ATOM      8  C   UNL     1      10.562  13.094  20.053  0.00  0.00    +0.000 A 
ATOM      9  C   UNL     1      10.241  13.184  18.697  0.00  0.00    +0.000 A 
ATOM     10  C   UNL     1       9.651  12.105  18.032  0.00  0.00    +0.000 A 
ATOM     11  C   UNL     1       9.411  10.907  18.706  0.00  0.00    +0.000 A 
ATOM     12  C   UNL     1       9.731  10.815  20.061  0.00  0.00    +0.000 A 
ATOM     13  C   UNL     1      10.308  11.903  20.732  0.00  0.00    +0.000 A 
BRANCH   8  15
ATOM     14  C   UNL     1      10.288  15.315  20.820  0.00  0.00    +0.000 C 
ATOM     15  O   UNL     1      11.148  14.203  20.593  0.00  0.00    +0.000 OA
ENDBRANCH   8  15
ENDBRANCH   7  11
ENDBRANCH   6   7
ENDBRANCH   1   6
BRANCH   4  16
ATOM     16  S   UNL     1       6.769   4.282  16.710  0.00  0.00    +0.000 S 
BRANCH  16  17
ATOM     17  C   UNL     1       5.008   4.303  16.253  0.00  0.00    +0.000 C 
BRANCH  17  18
ATOM     18  C   UNL     1       4.139   4.433  17.489  0.00  0.00    +0.000 C 
ATOM     19  O   UNL     1       4.000   5.531  18.030  0.00  0.00    +0.000 OA
ATOM     20  N   UNL     1       3.589   3.241  17.929  0.00  0.00    +0.000 N 
ATOM     21  H   UNL     1       3.935   2.370  17.524  0.00  0.00    +0.000 HD
BRANCH  20  22
ATOM     22  C   UNL     1       2.770   3.075  19.073  0.00  0.00    +0.000 A 
ATOM     23  C   UNL     1       1.385   3.250  19.062  0.00  0.00    +0.000 A 
ATOM     24  C   UNL     1       0.644   3.115  20.239  0.00  0.00    +0.000 A 
ATOM     25  C   UNL     1       1.278   2.799  21.440  0.00  0.00    +0.000 A 
ATOM     26  C   UNL     1       2.655   2.597  21.461  0.00  0.00    +0.000 A 
ATOM     27  C   UNL     1       3.386   2.725  20.280  0.00  0.00    +0.000 A 
ATOM     28  F   UNL     1       4.714   2.530  20.323  0.00  0.00    +0.000 F 
ENDBRANCH  20  22
ENDBRANCH  17  18
ENDBRANCH  16  17
ENDBRANCH   4  16
TORSDOF 8
ENDMDL
MODEL 6
REMARK VINA RESULT:      -7.5      1.415      1.510
REMARK  Name = 
REMARK  9 active torsions:
REMARK  status: ('A' for Active; 'I' for Inactive)
REMARK    1  A    between atoms: C_1  and  O_2
REMARK    2  A    between atoms: O_2  and  C_3
REMARK    3  A    between atoms: C_6  and  O_7
REMARK    4  A    between atoms: O_7  and  C_8
REMARK    5  A    between atoms: C_8  and  C_9
REMARK    6  A    between atoms: C_12  and  S_13
REMARK    7  A    between atoms: S_13  and  C_14
REMARK    8  A    between atoms: C_14  and  C_15
REMARK    9  A    between atoms: N_17  and  C_18
REMARK                            x       y       z     vdW  Elec       q    Type
REMARK                         _______ _______ _______ _____ _____    ______ ____
ROOT
ATOM      1  C   UNL     1       7.915   7.463  18.357  0.00  0.00    +0.000 A 
ATOM      2  N   UNL     1       8.025   6.209  18.748  0.00  0.00    +0.000 NA
ATOM      3  N   UNL     1       7.211   5.472  17.921  0.00  0.00    +0.000 NA
ATOM      4  C   UNL     1       6.656   6.321  17.078  0.00  0.00    +0.000 A 
ATOM      5  O   UNL     1       7.067   7.610  17.289  0.00  0.00    +0.000 OA
ENDROOT
BRANCH   1   6
ATOM      6  C   UNL     1       8.645   8.663  18.836  0.00  0.00    +0.000 C 
BRANCH   6   7
ATOM      7  O   UNL     1       8.518   9.683  17.843  0.00  0.00    +0.000 OA
BRANCH   7  11
ATOM      8  C   UNL     1      10.183  13.327  19.042  0.00  0.00    +0.000 A 
ATOM      9  C   UNL     1      10.632  12.105  19.544  0.00  0.00    +0.000 A 
ATOM     10  C   UNL     1      10.060  10.905  19.112  0.00  0.00    +0.000 A 
ATOM     11  C   UNL     1       9.004  10.913  18.200  0.00  0.00    +0.000 A 
ATOM     12  C   UNL     1       8.554  12.135  17.696  0.00  0.00    +0.000 A 
ATOM     13  C   UNL     1       9.139  13.338  18.118  0.00  0.00    +0.000 A 
BRANCH   8  15
ATOM     14  C   UNL     1      12.215  14.494  19.369  0.00  0.00    +0.000 C 
ATOM     15  O   UNL     1      10.803  14.434  19.546  0.00  0.00    +0.000 OA
ENDBRANCH   8  15
ENDBRANCH   7  11
ENDBRANCH   6   7
ENDBRANCH   1   6
BRANCH   4  16
ATOM     16  S   UNL     1       5.521   5.862  15.852  0.00  0.00    +0.000 S 
BRANCH  16  17
ATOM     17  C   UNL     1       5.389   4.079  16.184  0.00  0.00    +0.000 C 
BRANCH  17  18
ATOM     18  C   UNL     1       4.158   3.783  17.020  0.00  0.00    +0.000 C 
ATOM     19  O   UNL     1       3.095   3.495  16.467  0.00  0.00    +0.000 OA
ATOM     20  N   UNL     1       4.351   3.906  18.384  0.00  0.00    +0.000 N 
ATOM     21  H   UNL     1       5.212   4.345  18.714  0.00  0.00    +0.000 HD
BRANCH  20  22
ATOM     22  C   UNL     1       3.365   3.720  19.384  0.00  0.00    +0.000 A 
ATOM     23  C   UNL     1       2.170   4.441  19.432  0.00  0.00    +0.000 A 
ATOM     24  C   UNL     1       1.261   4.239  20.475  0.00  0.00    +0.000 A 
ATOM     25  C   UNL     1       1.533   3.310  21.479  0.00  0.00    +0.000 A 
ATOM     26  C   UNL     1       2.709   2.566  21.429  0.00  0.00    +0.000 A 
ATOM     27  C   UNL     1       3.606   2.767  20.381  0.00  0.00    +0.000 A 
ATOM     28  F   UNL     1       4.735   2.041  20.354  0.00  0.00    +0.000 F 
ENDBRANCH  20  22
ENDBRANCH  17  18
ENDBRANCH  16  17
ENDBRANCH   4  16
TORSDOF 8
ENDMDL
MODEL 7
REMARK VINA RESULT:      -7.5      5.112      7.914
REMARK  Name = 
REMARK  9 active torsions:
REMARK  status: ('A' for Active; 'I' for Inactive)
REMARK    1  A    between atoms: C_1  and  O_2
REMARK    2  A    between atoms: O_2  and  C_3
REMARK    3  A    between atoms: C_6  and  O_7
REMARK    4  A    between atoms: O_7  and  C_8
REMARK    5  A    between atoms: C_8  and  C_9
REMARK    6  A    between atoms: C_12  and  S_13
REMARK    7  A    between atoms: S_13  and  C_14
REMARK    8  A    between atoms: C_14  and  C_15
REMARK    9  A    between atoms: N_17  and  C_18
REMARK                            x       y       z     vdW  Elec       q    Type
REMARK                         _______ _______ _______ _____ _____    ______ ____
ROOT
ATOM      1  C   UNL     1       1.933   4.829  20.618  0.00  0.00    +0.000 A 
ATOM      2  N   UNL     1       2.041   3.813  21.449  0.00  0.00    +0.000 NA
ATOM      3  N   UNL     1       2.377   2.721  20.685  0.00  0.00    +0.000 NA
ATOM      4  C   UNL     1       2.454   3.139  19.437  0.00  0.00    +0.000 A 
ATOM      5  O   UNL     1       2.193   4.478  19.318  0.00  0.00    +0.000 OA
ENDROOT
BRANCH   1   6
ATOM      6  C   UNL     1       1.685   6.262  20.915  0.00  0.00    +0.000 C 
BRANCH   6   7
ATOM      7  O   UNL     1       2.325   7.041  19.901  0.00  0.00    +0.000 OA
BRANCH   7  11
ATOM      8  C   UNL     1       0.466  10.737  19.290  0.00  0.00    +0.000 A 
ATOM      9  C   UNL     1       0.356  10.040  20.495  0.00  0.00    +0.000 A 
ATOM     10  C   UNL     1       1.000   8.812  20.668  0.00  0.00    +0.000 A 
ATOM     11  C   UNL     1       1.733   8.245  19.625  0.00  0.00    +0.000 A 
ATOM     12  C   UNL     1       1.845   8.941  18.420  0.00  0.00    +0.000 A 
ATOM     13  C   UNL     1       1.212  10.181  18.252  0.00  0.00    +0.000 A 
BRANCH   8  15
ATOM     14  C   UNL     1      -1.618  11.816  18.992  0.00  0.00    +0.000 C 
ATOM     15  O   UNL     1      -0.217  11.917  19.229  0.00  0.00    +0.000 OA
ENDBRANCH   8  15
ENDBRANCH   7  11
ENDBRANCH   6   7
ENDBRANCH   1   6
BRANCH   4  16
ATOM     16  S   UNL     1       2.826   2.109  18.094  0.00  0.00    +0.000 S 
BRANCH  16  17
ATOM     17  C   UNL     1       3.017   3.350  16.777  0.00  0.00    +0.000 C 
BRANCH  17  18
ATOM     18  C   UNL     1       4.405   3.961  16.819  0.00  0.00    +0.000 C 
ATOM     19  O   UNL     1       5.331   3.423  16.210  0.00  0.00    +0.000 OA
ATOM     20  N   UNL     1       4.506   5.096  17.603  0.00  0.00    +0.000 N 
ATOM     21  H   UNL     1       3.725   5.331  18.218  0.00  0.00    +0.000 HD
BRANCH  20  22
ATOM     22  C   UNL     1       5.688   5.841  17.841  0.00  0.00    +0.000 A 
ATOM     23  C   UNL     1       6.063   6.953  17.085  0.00  0.00    +0.000 A 
ATOM     24  C   UNL     1       7.267   7.613  17.345  0.00  0.00    +0.000 A 
ATOM     25  C   UNL     1       8.108   7.173  18.367  0.00  0.00    +0.000 A 
ATOM     26  C   UNL     1       7.734   6.081  19.145  0.00  0.00    +0.000 A 
ATOM     27  C   UNL     1       6.526   5.433  18.885  0.00  0.00    +0.000 A 
ATOM     28  F   UNL     1       6.186   4.380  19.644  0.00  0.00    +0.000 F 
ENDBRANCH  20  22
ENDBRANCH  17  18
ENDBRANCH  16  17
ENDBRANCH   4  16
TORSDOF 8
ENDMDL
MODEL 8
REMARK VINA RESULT:      -7.5      3.574      6.050
REMARK  Name = 
REMARK  9 active torsions:
REMARK  status: ('A' for Active; 'I' for Inactive)
REMARK    1  A    between atoms: C_1  and  O_2
REMARK    2  A    between atoms: O_2  and  C_3
REMARK    3  A    between atoms: C_6  and  O_7
REMARK    4  A    between atoms: O_7  and  C_8
REMARK    5  A    between atoms: C_8  and  C_9
REMARK    6  A    between atoms: C_12  and  S_13
REMARK    7  A    between atoms: S_13  and  C_14
REMARK    8  A    between atoms: C_14  and  C_15
REMARK    9  A    between atoms: N_17  and  C_18
REMARK                            x       y       z     vdW  Elec       q    Type
REMARK                         _______ _______ _______ _____ _____    ______ ____
ROOT
ATOM      1  C   UNL     1       3.946   4.378  17.353  0.00  0.00    +0.000 A 
ATOM      2  N   UNL     1       2.819   3.841  16.934  0.00  0.00    +0.000 NA
ATOM      3  N   UNL     1       2.328   3.100  17.983  0.00  0.00    +0.000 NA
ATOM      4  C   UNL     1       3.185   3.233  18.976  0.00  0.00    +0.000 A 
ATOM      5  O   UNL     1       4.239   4.044  18.651  0.00  0.00    +0.000 OA
ENDROOT
BRANCH   1   6
ATOM      6  C   UNL     1       4.839   5.343  16.665  0.00  0.00    +0.000 C 
BRANCH   6   7
ATOM      7  O   UNL     1       6.191   4.984  16.959  0.00  0.00    +0.000 OA
BRANCH   7  11
ATOM      8  C   UNL     1       8.384   8.126  18.632  0.00  0.00    +0.000 A 
ATOM      9  C   UNL     1       7.651   8.277  17.454  0.00  0.00    +0.000 A 
ATOM     10  C   UNL     1       6.919   7.207  16.929  0.00  0.00    +0.000 A 
ATOM     11  C   UNL     1       6.943   5.961  17.556  0.00  0.00    +0.000 A 
ATOM     12  C   UNL     1       7.675   5.809  18.734  0.00  0.00    +0.000 A 
ATOM     13  C   UNL     1       8.396   6.886  19.269  0.00  0.00    +0.000 A 
BRANCH   8  15
ATOM     14  C   UNL     1       8.986  10.372  18.193  0.00  0.00    +0.000 C 
ATOM     15  O   UNL     1       9.072   9.232  19.042  0.00  0.00    +0.000 OA
ENDBRANCH   8  15
ENDBRANCH   7  11
ENDBRANCH   6   7
ENDBRANCH   1   6
BRANCH   4  16
ATOM     16  S   UNL     1       3.009   2.456  20.515  0.00  0.00    +0.000 S 
BRANCH  16  17
ATOM     17  C   UNL     1       2.651   3.897  21.566  0.00  0.00    +0.000 C 
BRANCH  17  18
ATOM     18  C   UNL     1       1.897   4.954  20.781  0.00  0.00    +0.000 C 
ATOM     19  O   UNL     1       0.746   4.733  20.402  0.00  0.00    +0.000 OA
ATOM     20  N   UNL     1       2.623   6.104  20.528  0.00  0.00    +0.000 N 
ATOM     21  H   UNL     1       3.627   6.093  20.714  0.00  0.00    +0.000 HD
BRANCH  20  22
ATOM     22  C   UNL     1       2.173   7.227  19.791  0.00  0.00    +0.000 A 
ATOM     23  C   UNL     1       2.391   7.389  18.422  0.00  0.00    +0.000 A 
ATOM     24  C   UNL     1       1.959   8.546  17.766  0.00  0.00    +0.000 A 
ATOM     25  C   UNL     1       1.300   9.552  18.472  0.00  0.00    +0.000 A 
ATOM     26  C   UNL     1       1.053   9.392  19.832  0.00  0.00    +0.000 A 
ATOM     27  C   UNL     1       1.479   8.231  20.476  0.00  0.00    +0.000 A 
ATOM     28  F   UNL     1       1.235   8.099  21.790  0.00  0.00    +0.000 F 
ENDBRANCH  20  22
ENDBRANCH  17  18
ENDBRANCH  16  17
ENDBRANCH   4  16
TORSDOF 8
ENDMDL
MODEL 9
REMARK VINA RESULT:      -7.4      1.568      1.807
REMARK  Name = 
REMARK  9 active torsions:
REMARK  status: ('A' for Active; 'I' for Inactive)
REMARK    1  A    between atoms: C_1  and  O_2
REMARK    2  A    between atoms: O_2  and  C_3
REMARK    3  A    between atoms: C_6  and  O_7
REMARK    4  A    between atoms: O_7  and  C_8
REMARK    5  A    between atoms: C_8  and  C_9
REMARK    6  A    between atoms: C_12  and  S_13
REMARK    7  A    between atoms: S_13  and  C_14
REMARK    8  A    between atoms: C_14  and  C_15
REMARK    9  A    between atoms: N_17  and  C_18
REMARK                            x       y       z     vdW  Elec       q    Type
REMARK                         _______ _______ _______ _____ _____    ______ ____
ROOT
ATOM      1  C   UNL     1       7.872   8.539  17.940  0.00  0.00    +0.000 A 
ATOM      2  N   UNL     1       8.362   7.534  18.637  0.00  0.00    +0.000 NA
ATOM      3  N   UNL     1       7.854   6.388  18.073  0.00  0.00    +0.000 NA
ATOM      4  C   UNL     1       7.088   6.765  17.069  0.00  0.00    +0.000 A 
ATOM      5  O   UNL     1       7.060   8.126  16.916  0.00  0.00    +0.000 OA
ENDROOT
BRANCH   1   6
ATOM      6  C   UNL     1       8.166   9.990  18.053  0.00  0.00    +0.000 C 
BRANCH   6   7
ATOM      7  O   UNL     1       9.586  10.153  18.076  0.00  0.00    +0.000 OA
BRANCH   7  11
ATOM      8  C   UNL     1      10.800  13.924  19.416  0.00  0.00    +0.000 A 
ATOM      9  C   UNL     1      10.035  13.757  18.260  0.00  0.00    +0.000 A 
ATOM     10  C   UNL     1       9.637  12.482  17.848  0.00  0.00    +0.000 A 
ATOM     11  C   UNL     1      10.031  11.352  18.566  0.00  0.00    +0.000 A 
ATOM     12  C   UNL     1      10.795  11.518  19.723  0.00  0.00    +0.000 A 
ATOM     13  C   UNL     1      11.181  12.798  20.145  0.00  0.00    +0.000 A 
BRANCH   8  15
ATOM     14  C   UNL     1      12.114  15.812  18.861  0.00  0.00    +0.000 C 
ATOM     15  O   UNL     1      11.143  15.212  19.713  0.00  0.00    +0.000 OA
ENDBRANCH   8  15
ENDBRANCH   7  11
ENDBRANCH   6   7
ENDBRANCH   1   6
BRANCH   4  16
ATOM     16  S   UNL     1       6.202   5.666  16.063  0.00  0.00    +0.000 S 
BRANCH  16  17
ATOM     17  C   UNL     1       6.411   4.125  17.006  0.00  0.00    +0.000 C 
BRANCH  17  18
ATOM     18  C   UNL     1       5.403   4.053  18.137  0.00  0.00    +0.000 C 
ATOM     19  O   UNL     1       5.793   3.941  19.301  0.00  0.00    +0.000 OA
ATOM     20  N   UNL     1       4.081   4.087  17.729  0.00  0.00    +0.000 N 
ATOM     21  H   UNL     1       3.880   3.977  16.734  0.00  0.00    +0.000 HD
BRANCH  20  22
ATOM     22  C   UNL     1       2.947   4.001  18.573  0.00  0.00    +0.000 A 
ATOM     23  C   UNL     1       2.614   4.975  19.517  0.00  0.00    +0.000 A 
ATOM     24  C   UNL     1       1.505   4.804  20.350  0.00  0.00    +0.000 A 
ATOM     25  C   UNL     1       0.713   3.660  20.247  0.00  0.00    +0.000 A 
ATOM     26  C   UNL     1       1.019   2.694  19.292  0.00  0.00    +0.000 A 
ATOM     27  C   UNL     1       2.122   2.876  18.459  0.00  0.00    +0.000 A 
ATOM     28  F   UNL     1       2.402   1.931  17.548  0.00  0.00    +0.000 F 
ENDBRANCH  20  22
ENDBRANCH  17  18
ENDBRANCH  16  17
ENDBRANCH   4  16
TORSDOF 8
ENDMDL
