MODEL 1
REMARK VINA RESULT:      -8.3      0.000      0.000
REMARK  Name = 
REMARK  4 active torsions:
REMARK  status: ('A' for Active; 'I' for Inactive)
REMARK    1  A    between atoms: C_2  and  C_3
REMARK    2  A    between atoms: C_2  and  C_20
REMARK    3  A    between atoms: C_3  and  N_4
REMARK    4  A    between atoms: N_11  and  C_12
REMARK                            x       y       z     vdW  Elec       q    Type
REMARK                         _______ _______ _______ _____ _____    ______ ____
ROOT
ATOM      1  N   UNL     1       4.573   3.870  18.695  0.00  0.00    +0.000 N 
ATOM      2  C   UNL     1       4.226   3.372  17.446  0.00  0.00    +0.000 A 
ATOM      3  N   UNL     1       4.805   3.660  16.322  0.00  0.00    +0.000 NA
ATOM      4  C   UNL     1       5.822   4.556  16.444  0.00  0.00    +0.000 A 
ATOM      5  C   UNL     1       6.230   5.152  17.613  0.00  0.00    +0.000 A 
ATOM      6  C   UNL     1       7.292   5.985  17.270  0.00  0.00    +0.000 A 
ATOM      7  N   UNL     1       7.590   5.909  15.971  0.00  0.00    +0.000 NA
ATOM      8  N   UNL     1       6.684   5.017  15.448  0.00  0.00    +0.000 N 
ATOM      9  C   UNL     1       5.577   4.825  18.849  0.00  0.00    +0.000 A 
ATOM     10  O   UNL     1       5.904   5.316  19.926  0.00  0.00    +0.000 OA
ENDROOT
BRANCH   8  11
ATOM     11  C   UNL     1       6.756   4.659  14.068  0.00  0.00    +0.000 A 
ATOM     12  C   UNL     1       7.663   5.331  13.230  0.00  0.00    +0.000 A 
ATOM     13  C   UNL     1       7.789   4.969  11.886  0.00  0.00    +0.000 A 
ATOM     14  C   UNL     1       7.002   3.948  11.360  0.00  0.00    +0.000 A 
ATOM     15  C   UNL     1       6.085   3.289  12.177  0.00  0.00    +0.000 A 
ATOM     16  C   UNL     1       5.963   3.640  13.525  0.00  0.00    +0.000 A 
ENDBRANCH   8  11
BRANCH   1  17
ATOM     17  C   UNL     1       3.830   3.450  19.875  0.00  0.00    +0.000 C 
BRANCH  17  19
ATOM     18  O   UNL     1       1.469   3.127  19.533  0.00  0.00    +0.000 OA
ATOM     19  C   UNL     1       2.377   3.919  19.794  0.00  0.00    +0.000 C 
BRANCH  19  20
ATOM     20  C   UNL     1       2.093   5.327  20.092  0.00  0.00    +0.000 A 
ATOM     21  C   UNL     1       1.622   5.845  21.287  0.00  0.00    +0.000 A 
ATOM     22  N   UNL     1       1.488   7.204  21.149  0.00  0.00    +0.000 N 
ATOM     23  C   UNL     1       1.853   7.592  19.882  0.00  0.00    +0.000 A 
ATOM     24  C   UNL     1       1.871   8.865  19.298  0.00  0.00    +0.000 A 
ATOM     25  C   UNL     1       2.293   8.964  17.970  0.00  0.00    +0.000 A 
ATOM     26  C   UNL     1       2.684   7.834  17.256  0.00  0.00    +0.000 A 
ATOM     27  C   UNL     1       2.662   6.573  17.857  0.00  0.00    +0.000 A 
ATOM     28  C   UNL     1       2.240   6.440  19.196  0.00  0.00    +0.000 A 
ATOM     29  H   UNL     1       1.167   7.838  21.868  0.00  0.00    +0.000 HD
ENDBRANCH  19  20
ENDBRANCH  17  19
ENDBRANCH   1  17
TORSDOF 4
ENDMDL
MODEL 2
REMARK VINA RESULT:      -8.2      2.320      7.729
REMARK  Name = 
REMARK  4 active torsions:
REMARK  status: ('A' for Active; 'I' for Inactive)
REMARK    1  A    between atoms: C_2  and  C_3
REMARK    2  A    between atoms: C_2  and  C_20
REMARK    3  A    between atoms: C_3  and  N_4
REMARK    4  A    between atoms: N_11  and  C_12
REMARK                            x       y       z     vdW  Elec       q    Type
REMARK                         _______ _______ _______ _____ _____    ______ ____
ROOT
ATOM      1  N   UNL     1       2.625   5.095  19.158  0.00  0.00    +0.000 N 
ATOM      2  C   UNL     1       2.099   5.370  20.412  0.00  0.00    +0.000 A 
ATOM      3  N   UNL     1       1.651   6.518  20.817  0.00  0.00    +0.000 NA
ATOM      4  C   UNL     1       1.758   7.506  19.888  0.00  0.00    +0.000 A 
ATOM      5  C   UNL     1       2.299   7.371  18.632  0.00  0.00    +0.000 A 
ATOM      6  C   UNL     1       2.199   8.624  18.032  0.00  0.00    +0.000 A 
ATOM      7  N   UNL     1       1.593   9.512  18.824  0.00  0.00    +0.000 NA
ATOM      8  N   UNL     1       1.310   8.824  19.980  0.00  0.00    +0.000 N 
ATOM      9  C   UNL     1       2.794   6.095  18.199  0.00  0.00    +0.000 A 
ATOM     10  O   UNL     1       3.277   5.909  17.085  0.00  0.00    +0.000 OA
ENDROOT
BRANCH   8  11
ATOM     11  C   UNL     1       0.603   9.474  21.037  0.00  0.00    +0.000 A 
ATOM     12  C   UNL     1      -0.184  10.601  20.746  0.00  0.00    +0.000 A 
ATOM     13  C   UNL     1      -0.925  11.229  21.751  0.00  0.00    +0.000 A 
ATOM     14  C   UNL     1      -0.875  10.750  23.058  0.00  0.00    +0.000 A 
ATOM     15  C   UNL     1      -0.082   9.646  23.361  0.00  0.00    +0.000 A 
ATOM     16  C   UNL     1       0.652   9.007  22.357  0.00  0.00    +0.000 A 
ENDBRANCH   8  11
BRANCH   1  17
ATOM     17  C   UNL     1       3.087   3.750  18.844  0.00  0.00    +0.000 C 
BRANCH  17  19
ATOM     18  O   UNL     1       4.838   2.712  20.128  0.00  0.00    +0.000 OA
ATOM     19  C   UNL     1       4.538   3.560  19.286  0.00  0.00    +0.000 C 
BRANCH  19  20
ATOM     20  C   UNL     1       5.566   4.379  18.633  0.00  0.00    +0.000 A 
ATOM     21  C   UNL     1       6.377   5.328  19.233  0.00  0.00    +0.000 A 
ATOM     22  N   UNL     1       7.196   5.868  18.273  0.00  0.00    +0.000 N 
ATOM     23  C   UNL     1       6.934   5.301  17.049  0.00  0.00    +0.000 A 
ATOM     24  C   UNL     1       7.516   5.545  15.798  0.00  0.00    +0.000 A 
ATOM     25  C   UNL     1       7.043   4.810  14.708  0.00  0.00    +0.000 A 
ATOM     26  C   UNL     1       6.030   3.867  14.864  0.00  0.00    +0.000 A 
ATOM     27  C   UNL     1       5.465   3.635  16.121  0.00  0.00    +0.000 A 
ATOM     28  C   UNL     1       5.920   4.362  17.241  0.00  0.00    +0.000 A 
ATOM     29  H   UNL     1       7.895   6.583  18.432  0.00  0.00    +0.000 HD
ENDBRANCH  19  20
ENDBRANCH  17  19
ENDBRANCH   1  17
TORSDOF 4
ENDMDL
MODEL 3
REMARK VINA RESULT:      -8.0      2.342      7.936
REMARK  Name = 
REMARK  4 active torsions:
REMARK  status: ('A' for Active; 'I' for Inactive)
REMARK    1  A    between atoms: C_2  and  C_3
REMARK    2  A    between atoms: C_2  and  C_20
REMARK    3  A    between atoms: C_3  and  N_4
REMARK    4  A    between atoms: N_11  and  C_12
REMARK                            x       y       z     vdW  Elec       q    Type
REMARK                         _______ _______ _______ _____ _____    ______ ____
ROOT
ATOM      1  N   UNL     1       2.820   5.555  18.909  0.00  0.00    +0.000 N 
ATOM      2  C   UNL     1       2.232   5.716  20.156  0.00  0.00    +0.000 A 
ATOM      3  N   UNL     1       1.698   6.806  20.613  0.00  0.00    +0.000 NA
ATOM      4  C   UNL     1       1.778   7.857  19.753  0.00  0.00    +0.000 A 
ATOM      5  C   UNL     1       2.372   7.836  18.514  0.00  0.00    +0.000 A 
ATOM      6  C   UNL     1       2.216   9.118  17.991  0.00  0.00    +0.000 A 
ATOM      7  N   UNL     1       1.528   9.914  18.812  0.00  0.00    +0.000 NA
ATOM      8  N   UNL     1       1.246   9.137  19.910  0.00  0.00    +0.000 N 
ATOM      9  C   UNL     1       2.961   6.623  18.022  0.00  0.00    +0.000 A 
ATOM     10  O   UNL     1       3.496   6.541  16.920  0.00  0.00    +0.000 OA
ENDROOT
BRANCH   8  11
ATOM     11  C   UNL     1       0.461   9.674  20.976  0.00  0.00    +0.000 A 
ATOM     12  C   UNL     1       0.501   9.054  22.237  0.00  0.00    +0.000 A 
ATOM     13  C   UNL     1      -0.219   9.585  23.312  0.00  0.00    +0.000 A 
ATOM     14  C   UNL     1      -0.996  10.727  23.136  0.00  0.00    +0.000 A 
ATOM     15  C   UNL     1      -1.058  11.337  21.885  0.00  0.00    +0.000 A 
ATOM     16  C   UNL     1      -0.331  10.817  20.809  0.00  0.00    +0.000 A 
ENDBRANCH   8  11
BRANCH   1  17
ATOM     17  C   UNL     1       3.375   4.263  18.529  0.00  0.00    +0.000 C 
BRANCH  17  19
ATOM     18  O   UNL     1       5.140   3.543  19.999  0.00  0.00    +0.000 OA
ATOM     19  C   UNL     1       4.834   4.151  18.972  0.00  0.00    +0.000 C 
BRANCH  19  20
ATOM     20  C   UNL     1       5.861   4.742  18.105  0.00  0.00    +0.000 A 
ATOM     21  C   UNL     1       6.862   5.622  18.483  0.00  0.00    +0.000 A 
ATOM     22  N   UNL     1       7.605   5.936  17.373  0.00  0.00    +0.000 N 
ATOM     23  C   UNL     1       7.107   5.289  16.267  0.00  0.00    +0.000 A 
ATOM     24  C   UNL     1       7.539   5.316  14.935  0.00  0.00    +0.000 A 
ATOM     25  C   UNL     1       6.830   4.548  14.007  0.00  0.00    +0.000 A 
ATOM     26  C   UNL     1       5.735   3.782  14.398  0.00  0.00    +0.000 A 
ATOM     27  C   UNL     1       5.321   3.765  15.733  0.00  0.00    +0.000 A 
ATOM     28  C   UNL     1       6.016   4.531  16.693  0.00  0.00    +0.000 A 
ATOM     29  H   UNL     1       8.405   6.555  17.358  0.00  0.00    +0.000 HD
ENDBRANCH  19  20
ENDBRANCH  17  19
ENDBRANCH   1  17
TORSDOF 4
ENDMDL
MODEL 4
REMARK VINA RESULT:      -8.0      4.253      7.200
REMARK  Name = 
REMARK  4 active torsions:
REMARK  status: ('A' for Active; 'I' for Inactive)
REMARK    1  A    between atoms: C_2  and  C_3
REMARK    2  A    between atoms: C_2  and  C_20
REMARK    3  A    between atoms: C_3  and  N_4
REMARK    4  A    between atoms: N_11  and  C_12
REMARK                            x       y       z     vdW  Elec       q    Type
REMARK                         _______ _______ _______ _____ _____    ______ ____
ROOT
ATOM      1  N   UNL     1       1.309   9.820  19.578  0.00  0.00    +0.000 N 
ATOM      2  C   UNL     1       1.057   8.846  20.535  0.00  0.00    +0.000 A 
ATOM      3  N   UNL     1       1.450   7.611  20.489  0.00  0.00    +0.000 NA
ATOM      4  C   UNL     1       2.148   7.300  19.363  0.00  0.00    +0.000 A 
ATOM      5  C   UNL     1       2.424   8.161  18.327  0.00  0.00    +0.000 A 
ATOM      6  C   UNL     1       3.155   7.424  17.399  0.00  0.00    +0.000 A 
ATOM      7  N   UNL     1       3.383   6.177  17.815  0.00  0.00    +0.000 NA
ATOM      8  N   UNL     1       2.764   6.091  19.040  0.00  0.00    +0.000 N 
ATOM      9  C   UNL     1       1.979   9.524  18.391  0.00  0.00    +0.000 A 
ATOM     10  O   UNL     1       2.205  10.342  17.503  0.00  0.00    +0.000 OA
ENDROOT
BRANCH   8  11
ATOM     11  C   UNL     1       2.858   4.885  19.800  0.00  0.00    +0.000 A 
ATOM     12  C   UNL     1       1.963   4.670  20.861  0.00  0.00    +0.000 A 
ATOM     13  C   UNL     1       2.000   3.479  21.592  0.00  0.00    +0.000 A 
ATOM     14  C   UNL     1       2.940   2.499  21.282  0.00  0.00    +0.000 A 
ATOM     15  C   UNL     1       3.845   2.711  20.244  0.00  0.00    +0.000 A 
ATOM     16  C   UNL     1       3.805   3.896  19.504  0.00  0.00    +0.000 A 
ENDBRANCH   8  11
BRANCH   1  17
ATOM     17  C   UNL     1       0.805  11.173  19.770  0.00  0.00    +0.000 C 
BRANCH  17  19
ATOM     18  O   UNL     1      -0.601  10.851  21.697  0.00  0.00    +0.000 OA
ATOM     19  C   UNL     1      -0.537  11.150  20.504  0.00  0.00    +0.000 C 
BRANCH  19  20
ATOM     20  C   UNL     1      -1.734  11.552  19.755  0.00  0.00    +0.000 A 
ATOM     21  C   UNL     1      -2.675  12.493  20.137  0.00  0.00    +0.000 A 
ATOM     22  N   UNL     1      -3.636  12.566  19.160  0.00  0.00    +0.000 N 
ATOM     23  C   UNL     1      -3.352  11.684  18.146  0.00  0.00    +0.000 A 
ATOM     24  C   UNL     1      -4.051  11.416  16.961  0.00  0.00    +0.000 A 
ATOM     25  C   UNL     1      -3.522  10.450  16.100  0.00  0.00    +0.000 A 
ATOM     26  C   UNL     1      -2.341   9.783  16.412  0.00  0.00    +0.000 A 
ATOM     27  C   UNL     1      -1.656  10.066  17.597  0.00  0.00    +0.000 A 
ATOM     28  C   UNL     1      -2.165  11.035  18.487  0.00  0.00    +0.000 A 
ATOM     29  H   UNL     1      -4.443  13.177  19.175  0.00  0.00    +0.000 HD
ENDBRANCH  19  20
ENDBRANCH  17  19
ENDBRANCH   1  17
TORSDOF 4
ENDMDL
MODEL 5
REMARK VINA RESULT:      -7.9      2.717      8.420
REMARK  Name = 
REMARK  4 active torsions:
REMARK  status: ('A' for Active; 'I' for Inactive)
REMARK    1  A    between atoms: C_2  and  C_3
REMARK    2  A    between atoms: C_2  and  C_20
REMARK    3  A    between atoms: C_3  and  N_4
REMARK    4  A    between atoms: N_11  and  C_12
REMARK                            x       y       z     vdW  Elec       q    Type
REMARK                         _______ _______ _______ _____ _____    ______ ____
ROOT
ATOM      1  N   UNL     1       2.683   6.769  18.765  0.00  0.00    +0.000 N 
ATOM      2  C   UNL     1       2.158   6.866  20.047  0.00  0.00    +0.000 A 
ATOM      3  N   UNL     1       1.579   7.909  20.556  0.00  0.00    +0.000 NA
ATOM      4  C   UNL     1       1.536   8.978  19.716  0.00  0.00    +0.000 A 
ATOM      5  C   UNL     1       2.058   9.020  18.445  0.00  0.00    +0.000 A 
ATOM      6  C   UNL     1       1.785  10.296  17.959  0.00  0.00    +0.000 A 
ATOM      7  N   UNL     1       1.093  11.029  18.833  0.00  0.00    +0.000 NA
ATOM      8  N   UNL     1       0.928  10.215  19.929  0.00  0.00    +0.000 N 
ATOM      9  C   UNL     1       2.699   7.859  17.895  0.00  0.00    +0.000 A 
ATOM     10  O   UNL     1       3.174   7.833  16.763  0.00  0.00    +0.000 OA
ENDROOT
BRANCH   8  11
ATOM     11  C   UNL     1       0.172  10.677  21.049  0.00  0.00    +0.000 A 
ATOM     12  C   UNL     1      -0.192  12.033  21.120  0.00  0.00    +0.000 A 
ATOM     13  C   UNL     1      -0.973  12.504  22.180  0.00  0.00    +0.000 A 
ATOM     14  C   UNL     1      -1.384  11.632  23.186  0.00  0.00    +0.000 A 
ATOM     15  C   UNL     1      -1.012  10.291  23.135  0.00  0.00    +0.000 A 
ATOM     16  C   UNL     1      -0.240   9.812  22.072  0.00  0.00    +0.000 A 
ENDBRANCH   8  11
BRANCH   1  17
ATOM     17  C   UNL     1       3.302   5.525  18.328  0.00  0.00    +0.000 C 
BRANCH  17  19
ATOM     18  O   UNL     1       5.142   5.245  19.855  0.00  0.00    +0.000 OA
ATOM     19  C   UNL     1       4.784   5.499  18.704  0.00  0.00    +0.000 C 
BRANCH  19  20
ATOM     20  C   UNL     1       5.765   5.730  17.637  0.00  0.00    +0.000 A 
ATOM     21  C   UNL     1       6.803   6.648  17.646  0.00  0.00    +0.000 A 
ATOM     22  N   UNL     1       7.481   6.548  16.458  0.00  0.00    +0.000 N 
ATOM     23  C   UNL     1       6.906   5.588  15.660  0.00  0.00    +0.000 A 
ATOM     24  C   UNL     1       7.256   5.155  14.374  0.00  0.00    +0.000 A 
ATOM     25  C   UNL     1       6.479   4.149  13.794  0.00  0.00    +0.000 A 
ATOM     26  C   UNL     1       5.397   3.597  14.476  0.00  0.00    +0.000 A 
ATOM     27  C   UNL     1       5.066   4.040  15.759  0.00  0.00    +0.000 A 
ATOM     28  C   UNL     1       5.831   5.055  16.371  0.00  0.00    +0.000 A 
ATOM     29  H   UNL     1       8.290   7.097  16.195  0.00  0.00    +0.000 HD
ENDBRANCH  19  20
ENDBRANCH  17  19
ENDBRANCH   1  17
TORSDOF 4
ENDMDL
MODEL 6
REMARK VINA RESULT:      -7.8      2.526      7.948
REMARK  Name = 
REMARK  4 active torsions:
REMARK  status: ('A' for Active; 'I' for Inactive)
REMARK    1  A    between atoms: C_2  and  C_3
REMARK    2  A    between atoms: C_2  and  C_20
REMARK    3  A    between atoms: C_3  and  N_4
REMARK    4  A    between atoms: N_11  and  C_12
REMARK                            x       y       z     vdW  Elec       q    Type
REMARK                         _______ _______ _______ _____ _____    ______ ____
ROOT
ATOM      1  N   UNL     1       2.695   6.710  18.716  0.00  0.00    +0.000 N 
ATOM      2  C   UNL     1       2.627   7.788  17.843  0.00  0.00    +0.000 A 
ATOM      3  N   UNL     1       2.084   8.939  18.094  0.00  0.00    +0.000 NA
ATOM      4  C   UNL     1       1.527   9.024  19.332  0.00  0.00    +0.000 A 
ATOM      5  C   UNL     1       1.491   8.016  20.266  0.00  0.00    +0.000 A 
ATOM      6  C   UNL     1       0.835   8.544  21.376  0.00  0.00    +0.000 A 
ATOM      7  N   UNL     1       0.501   9.823  21.200  0.00  0.00    +0.000 NA
ATOM      8  N   UNL     1       0.932  10.134  19.932  0.00  0.00    +0.000 N 
ATOM      9  C   UNL     1       2.094   6.747  19.974  0.00  0.00    +0.000 A 
ATOM     10  O   UNL     1       2.103   5.813  20.772  0.00  0.00    +0.000 OA
ENDROOT
BRANCH   8  11
ATOM     11  C   UNL     1       0.777  11.464  19.436  0.00  0.00    +0.000 A 
ATOM     12  C   UNL     1      -0.484  12.080  19.504  0.00  0.00    +0.000 A 
ATOM     13  C   UNL     1      -0.655  13.398  19.070  0.00  0.00    +0.000 A 
ATOM     14  C   UNL     1       0.425  14.107  18.549  0.00  0.00    +0.000 A 
ATOM     15  C   UNL     1       1.675  13.499  18.458  0.00  0.00    +0.000 A 
ATOM     16  C   UNL     1       1.853  12.185  18.901  0.00  0.00    +0.000 A 
ENDBRANCH   8  11
BRANCH   1  17
ATOM     17  C   UNL     1       3.344   5.476  18.295  0.00  0.00    +0.000 C 
BRANCH  17  19
ATOM     18  O   UNL     1       5.217   5.302  19.797  0.00  0.00    +0.000 OA
ATOM     19  C   UNL     1       4.833   5.501  18.643  0.00  0.00    +0.000 C 
BRANCH  19  20
ATOM     20  C   UNL     1       5.788   5.714  17.550  0.00  0.00    +0.000 A 
ATOM     21  C   UNL     1       6.830   6.628  17.522  0.00  0.00    +0.000 A 
ATOM     22  N   UNL     1       7.479   6.510  16.319  0.00  0.00    +0.000 N 
ATOM     23  C   UNL     1       6.880   5.543  15.548  0.00  0.00    +0.000 A 
ATOM     24  C   UNL     1       7.197   5.092  14.260  0.00  0.00    +0.000 A 
ATOM     25  C   UNL     1       6.402   4.082  13.712  0.00  0.00    +0.000 A 
ATOM     26  C   UNL     1       5.334   3.544  14.426  0.00  0.00    +0.000 A 
ATOM     27  C   UNL     1       5.036   4.004  15.711  0.00  0.00    +0.000 A 
ATOM     28  C   UNL     1       5.820   5.024  16.291  0.00  0.00    +0.000 A 
ATOM     29  H   UNL     1       8.283   7.052  16.031  0.00  0.00    +0.000 HD
ENDBRANCH  19  20
ENDBRANCH  17  19
ENDBRANCH   1  17
TORSDOF 4
ENDMDL
MODEL 7
REMARK VINA RESULT:      -7.8      4.618      7.386
REMARK  Name = 
REMARK  4 active torsions:
REMARK  status: ('A' for Active; 'I' for Inactive)
REMARK    1  A    between atoms: C_2  and  C_3
REMARK    2  A    between atoms: C_2  and  C_20
REMARK    3  A    between atoms: C_3  and  N_4
REMARK    4  A    between atoms: N_11  and  C_12
REMARK                            x       y       z     vdW  Elec       q    Type
REMARK                         _______ _______ _______ _____ _____    ______ ____
ROOT
ATOM      1  N   UNL     1       1.257   9.876  20.443  0.00  0.00    +0.000 N 
ATOM      2  C   UNL     1       1.039   8.816  21.311  0.00  0.00    +0.000 A 
ATOM      3  N   UNL     1       1.313   7.570  21.078  0.00  0.00    +0.000 NA
ATOM      4  C   UNL     1       1.836   7.346  19.842  0.00  0.00    +0.000 A 
ATOM      5  C   UNL     1       2.058   8.302  18.880  0.00  0.00    +0.000 A 
ATOM      6  C   UNL     1       2.602   7.630  17.788  0.00  0.00    +0.000 A 
ATOM      7  N   UNL     1       2.768   6.329  18.031  0.00  0.00    +0.000 NA
ATOM      8  N   UNL     1       2.299   6.142  19.310  0.00  0.00    +0.000 N 
ATOM      9  C   UNL     1       1.747   9.677  19.152  0.00  0.00    +0.000 A 
ATOM     10  O   UNL     1       1.934  10.577  18.337  0.00  0.00    +0.000 OA
ENDROOT
BRANCH   8  11
ATOM     11  C   UNL     1       2.378   4.850  19.914  0.00  0.00    +0.000 A 
ATOM     12  C   UNL     1       1.275   4.358  20.631  0.00  0.00    +0.000 A 
ATOM     13  C   UNL     1       1.306   3.078  21.191  0.00  0.00    +0.000 A 
ATOM     14  C   UNL     1       2.442   2.284  21.057  0.00  0.00    +0.000 A 
ATOM     15  C   UNL     1       3.550   2.770  20.365  0.00  0.00    +0.000 A 
ATOM     16  C   UNL     1       3.519   4.046  19.793  0.00  0.00    +0.000 A 
ENDBRANCH   8  11
BRANCH   1  17
ATOM     17  C   UNL     1       0.902  11.230  20.847  0.00  0.00    +0.000 C 
BRANCH  17  19
ATOM     18  O   UNL     1      -1.406  11.512  21.470  0.00  0.00    +0.000 OA
ATOM     19  C   UNL     1      -0.574  11.509  20.561  0.00  0.00    +0.000 C 
BRANCH  19  20
ATOM     20  C   UNL     1      -0.956  11.829  19.181  0.00  0.00    +0.000 A 
ATOM     21  C   UNL     1      -0.562  12.934  18.444  0.00  0.00    +0.000 A 
ATOM     22  N   UNL     1      -1.144  12.858  17.204  0.00  0.00    +0.000 N 
ATOM     23  C   UNL     1      -1.921  11.729  17.110  0.00  0.00    +0.000 A 
ATOM     24  C   UNL     1      -2.696  11.253  16.044  0.00  0.00    +0.000 A 
ATOM     25  C   UNL     1      -3.397  10.059  16.234  0.00  0.00    +0.000 A 
ATOM     26  C   UNL     1      -3.322   9.368  17.441  0.00  0.00    +0.000 A 
ATOM     27  C   UNL     1      -2.541   9.858  18.492  0.00  0.00    +0.000 A 
ATOM     28  C   UNL     1      -1.823  11.061  18.331  0.00  0.00    +0.000 A 
ATOM     29  H   UNL     1      -1.025  13.531  16.457  0.00  0.00    +0.000 HD
ENDBRANCH  19  20
ENDBRANCH  17  19
ENDBRANCH   1  17
TORSDOF 4
ENDMDL
MODEL 8
REMARK VINA RESULT:      -7.6      4.589      6.929
REMARK  Name = 
REMARK  4 active torsions:
REMARK  status: ('A' for Active; 'I' for Inactive)
REMARK    1  A    between atoms: C_2  and  C_3
REMARK    2  A    between atoms: C_2  and  C_20
REMARK    3  A    between atoms: C_3  and  N_4
REMARK    4  A    between atoms: N_11  and  C_12
REMARK                            x       y       z     vdW  Elec       q    Type
REMARK                         _______ _______ _______ _____ _____    ______ ____
ROOT
ATOM      1  N   UNL     1       0.792   9.812  19.716  0.00  0.00    +0.000 N 
ATOM      2  C   UNL     1       1.584   9.758  18.577  0.00  0.00    +0.000 A 
ATOM      3  N   UNL     1       2.320   8.756  18.207  0.00  0.00    +0.000 NA
ATOM      4  C   UNL     1       2.287   7.704  19.069  0.00  0.00    +0.000 A 
ATOM      5  C   UNL     1       1.580   7.654  20.247  0.00  0.00    +0.000 A 
ATOM      6  C   UNL     1       1.835   6.400  20.796  0.00  0.00    +0.000 A 
ATOM      7  N   UNL     1       2.621   5.659  20.012  0.00  0.00    +0.000 NA
ATOM      8  N   UNL     1       2.904   6.460  18.931  0.00  0.00    +0.000 N 
ATOM      9  C   UNL     1       0.773   8.772  20.645  0.00  0.00    +0.000 A 
ATOM     10  O   UNL     1       0.111   8.782  21.679  0.00  0.00    +0.000 OA
ENDROOT
BRANCH   8  11
ATOM     11  C   UNL     1       3.693   5.949  17.856  0.00  0.00    +0.000 A 
ATOM     12  C   UNL     1       3.667   4.572  17.579  0.00  0.00    +0.000 A 
ATOM     13  C   UNL     1       4.391   4.050  16.503  0.00  0.00    +0.000 A 
ATOM     14  C   UNL     1       5.160   4.893  15.705  0.00  0.00    +0.000 A 
ATOM     15  C   UNL     1       5.209   6.257  15.982  0.00  0.00    +0.000 A 
ATOM     16  C   UNL     1       4.477   6.785  17.051  0.00  0.00    +0.000 A 
ENDBRANCH   8  11
BRANCH   1  17
ATOM     17  C   UNL     1       0.013  11.009  20.000  0.00  0.00    +0.000 C 
BRANCH  17  19
ATOM     18  O   UNL     1       0.090  12.518  18.127  0.00  0.00    +0.000 OA
ATOM     19  C   UNL     1      -0.526  11.623  18.708  0.00  0.00    +0.000 C 
BRANCH  19  20
ATOM     20  C   UNL     1      -1.769  11.074  18.155  0.00  0.00    +0.000 A 
ATOM     21  C   UNL     1      -1.885  10.132  17.145  0.00  0.00    +0.000 A 
ATOM     22  N   UNL     1      -3.218   9.895  16.924  0.00  0.00    +0.000 N 
ATOM     23  C   UNL     1      -3.985  10.669  17.761  0.00  0.00    +0.000 A 
ATOM     24  C   UNL     1      -5.378  10.760  17.881  0.00  0.00    +0.000 A 
ATOM     25  C   UNL     1      -5.891  11.648  18.832  0.00  0.00    +0.000 A 
ATOM     26  C   UNL     1      -5.043  12.410  19.630  0.00  0.00    +0.000 A 
ATOM     27  C   UNL     1      -3.656  12.303  19.498  0.00  0.00    +0.000 A 
ATOM     28  C   UNL     1      -3.108  11.416  18.547  0.00  0.00    +0.000 A 
ATOM     29  H   UNL     1      -3.594   9.246  16.244  0.00  0.00    +0.000 HD
ENDBRANCH  19  20
ENDBRANCH  17  19
ENDBRANCH   1  17
TORSDOF 4
ENDMDL
MODEL 9
REMARK VINA RESULT:      -7.6      4.168      6.376
REMARK  Name = 
REMARK  4 active torsions:
REMARK  status: ('A' for Active; 'I' for Inactive)
REMARK    1  A    between atoms: C_2  and  C_3
REMARK    2  A    between atoms: C_2  and  C_20
REMARK    3  A    between atoms: C_3  and  N_4
REMARK    4  A    between atoms: N_11  and  C_12
REMARK                            x       y       z     vdW  Elec       q    Type
REMARK                         _______ _______ _______ _____ _____    ______ ____
ROOT
ATOM      1  N   UNL     1       0.923   9.234  20.018  0.00  0.00    +0.000 N 
ATOM      2  C   UNL     1       1.686   9.335  18.863  0.00  0.00    +0.000 A 
ATOM      3  N   UNL     1       2.448   8.410  18.368  0.00  0.00    +0.000 NA
ATOM      4  C   UNL     1       2.477   7.270  19.110  0.00  0.00    +0.000 A 
ATOM      5  C   UNL     1       1.804   7.064  20.290  0.00  0.00    +0.000 A 
ATOM      6  C   UNL     1       2.120   5.768  20.691  0.00  0.00    +0.000 A 
ATOM      7  N   UNL     1       2.911   5.149  19.813  0.00  0.00    +0.000 NA
ATOM      8  N   UNL     1       3.136   6.074  18.821  0.00  0.00    +0.000 N 
ATOM      9  C   UNL     1       0.967   8.098  20.827  0.00  0.00    +0.000 A 
ATOM     10  O   UNL     1       0.333   7.968  21.871  0.00  0.00    +0.000 OA
ENDROOT
BRANCH   8  11
ATOM     11  C   UNL     1       3.914   5.715  17.679  0.00  0.00    +0.000 A 
ATOM     12  C   UNL     1       4.021   4.361  17.318  0.00  0.00    +0.000 A 
ATOM     13  C   UNL     1       4.736   3.985  16.178  0.00  0.00    +0.000 A 
ATOM     14  C   UNL     1       5.365   4.952  15.397  0.00  0.00    +0.000 A 
ATOM     15  C   UNL     1       5.282   6.295  15.757  0.00  0.00    +0.000 A 
ATOM     16  C   UNL     1       4.558   6.678  16.890  0.00  0.00    +0.000 A 
ENDBRANCH   8  11
BRANCH   1  17
ATOM     17  C   UNL     1       0.108  10.360  20.450  0.00  0.00    +0.000 C 
BRANCH  17  19
ATOM     18  O   UNL     1       0.788  11.825  18.665  0.00  0.00    +0.000 OA
ATOM     19  C   UNL     1      -0.148  11.320  19.288  0.00  0.00    +0.000 C 
BRANCH  19  20
ATOM     20  C   UNL     1      -1.541  11.576  18.904  0.00  0.00    +0.000 A 
ATOM     21  C   UNL     1      -2.459  12.363  19.581  0.00  0.00    +0.000 A 
ATOM     22  N   UNL     1      -3.646  12.334  18.893  0.00  0.00    +0.000 N 
ATOM     23  C   UNL     1      -3.533  11.535  17.781  0.00  0.00    +0.000 A 
ATOM     24  C   UNL     1      -4.481  11.213  16.801  0.00  0.00    +0.000 A 
ATOM     25  C   UNL     1      -4.083  10.360  15.768  0.00  0.00    +0.000 A 
ATOM     26  C   UNL     1      -2.786   9.854  15.716  0.00  0.00    +0.000 A 
ATOM     27  C   UNL     1      -1.853  10.190  16.701  0.00  0.00    +0.000 A 
ATOM     28  C   UNL     1      -2.226  11.048  17.758  0.00  0.00    +0.000 A 
ATOM     29  H   UNL     1      -4.490  12.825  19.158  0.00  0.00    +0.000 HD
ENDBRANCH  19  20
ENDBRANCH  17  19
ENDBRANCH   1  17
TORSDOF 4
ENDMDL
