MODEL 1
REMARK VINA RESULT:      -6.7      0.000      0.000
REMARK  Name = 
REMARK  16 active torsions:
REMARK  status: ('A' for Active; 'I' for Inactive)
REMARK    1  A    between atoms: C_1  and  C_2
REMARK    2  A    between atoms: C_2  and  O_3
REMARK    3  A    between atoms: O_3  and  C_4
REMARK    4  A    between atoms: C_4  and  C_6
REMARK    5  A    between atoms: C_6  and  N_7
REMARK    6  A    between atoms: C_6  and  C_8
REMARK    7  A    between atoms: C_8  and  C_9
REMARK    8  A    between atoms: C_9  and  C_10
REMARK    9  A    between atoms: C_10  and  N_11
REMARK   10  A    between atoms: N_14  and  O_15
REMARK   11  A    between atoms: O_15  and  C_16
REMARK   12  A    between atoms: C_18  and  C_19
REMARK   13  A    between atoms: C_19  and  O_20
REMARK   14  A    between atoms: C_21  and  O_22
REMARK   15  A    between atoms: C_23  and  O_24
REMARK   16  A    between atoms: C_25  and  O_26
REMARK                            x       y       z     vdW  Elec       q    Type
REMARK                         _______ _______ _______ _____ _____    ______ ____
ROOT
ATOM      1  N   UNL     1       7.837   7.085  17.916  0.00  0.00    +0.000 N 
ATOM      2  C   UNL     1       7.329   5.958  18.479  0.00  0.00    +0.000 C 
ATOM      3  N   UNL     1       7.768   5.687  19.733  0.00  0.00    +0.000 N 
ATOM      4  N   UNL     1       6.476   5.214  17.851  0.00  0.00    +0.000 NA
ATOM      5  H   UNL     1       7.425   7.286  17.011  0.00  0.00    +0.000 HD
ATOM      6  H   UNL     1       8.770   5.716  19.835  0.00  0.00    +0.000 HD
ATOM      7  H   UNL     1       7.386   4.798  20.042  0.00  0.00    +0.000 HD
ENDROOT
BRANCH   1   8
ATOM      8  C   UNL     1       8.513   8.187  18.559  0.00  0.00    +0.000 C 
BRANCH   8   9
ATOM      9  C   UNL     1       8.090   9.548  18.005  0.00  0.00    +0.000 C 
BRANCH   9  10
ATOM     10  C   UNL     1       9.094  10.702  18.180  0.00  0.00    +0.000 C 
BRANCH  10  11
ATOM     11  C   UNL     1       9.934  10.677  19.466  0.00  0.00    +0.000 C 
BRANCH  11  12
ATOM     12  N   UNL     1       9.131  11.194  20.594  0.00  0.00    +0.000 NA
ATOM     13  H   UNL     1       8.609  10.405  20.998  0.00  0.00    +0.000 HD
ATOM     14  H   UNL     1       8.409  11.814  20.224  0.00  0.00    +0.000 HD
ENDBRANCH  11  12
BRANCH  11  15
ATOM     15  C   UNL     1      11.218  11.491  19.318  0.00  0.00    +0.000 C 
ATOM     16  O   UNL     1      11.916  11.870  20.259  0.00  0.00    +0.000 OA
BRANCH  15  17
ATOM     17  O   UNL     1      11.484  11.716  18.002  0.00  0.00    +0.000 OA
BRANCH  17  19
ATOM     18  C   UNL     1      11.310  13.653  16.580  0.00  0.00    +0.000 C 
ATOM     19  C   UNL     1      12.088  12.970  17.687  0.00  0.00    +0.000 C 
ENDBRANCH  17  19
ENDBRANCH  15  17
ENDBRANCH  11  15
ENDBRANCH  10  11
ENDBRANCH   9  10
ENDBRANCH   8   9
ENDBRANCH   1   8
BRANCH   4  20
ATOM     20  O   UNL     1       6.186   4.068  18.634  0.00  0.00    +0.000 OA
BRANCH  20  21
ATOM     21  C   UNL     1       4.781   3.824  18.646  0.00  0.00    +0.000 C 
ATOM     22  O   UNL     1       4.090   5.072  18.498  0.00  0.00    +0.000 OA
ATOM     23  C   UNL     1       2.665   4.926  18.527  0.00  0.00    +0.000 C 
ATOM     24  C   UNL     1       2.237   4.369  19.896  0.00  0.00    +0.000 C 
ATOM     25  C   UNL     1       2.905   3.007  20.109  0.00  0.00    +0.000 C 
ATOM     26  C   UNL     1       4.434   3.137  19.984  0.00  0.00    +0.000 C 
BRANCH  24  27
ATOM     27  O   UNL     1       2.653   5.194  20.999  0.00  0.00    +0.000 OA
ATOM     28  H   UNL     1       2.380   4.742  21.825  0.00  0.00    +0.000 HD
ENDBRANCH  24  27
BRANCH  25  29
ATOM     29  O   UNL     1       2.545   2.505  21.402  0.00  0.00    +0.000 OA
ATOM     30  H   UNL     1       1.983   3.201  21.801  0.00  0.00    +0.000 HD
ENDBRANCH  25  29
BRANCH  26  31
ATOM     31  O   UNL     1       5.064   1.850  20.100  0.00  0.00    +0.000 OA
ATOM     32  H   UNL     1       5.881   1.949  20.615  0.00  0.00    +0.000 HD
ENDBRANCH  26  31
BRANCH  23  33
ATOM     33  C   UNL     1       2.072   6.307  18.230  0.00  0.00    +0.000 C 
BRANCH  33  34
ATOM     34  O   UNL     1       2.674   7.292  19.069  0.00  0.00    +0.000 OA
ATOM     35  H   UNL     1       2.123   7.312  19.879  0.00  0.00    +0.000 HD
ENDBRANCH  33  34
ENDBRANCH  23  33
ENDBRANCH  20  21
ENDBRANCH   4  20
TORSDOF 15
ENDMDL
MODEL 2
REMARK VINA RESULT:      -6.6      6.036      9.616
REMARK  Name = 
REMARK  16 active torsions:
REMARK  status: ('A' for Active; 'I' for Inactive)
REMARK    1  A    between atoms: C_1  and  C_2
REMARK    2  A    between atoms: C_2  and  O_3
REMARK    3  A    between atoms: O_3  and  C_4
REMARK    4  A    between atoms: C_4  and  C_6
REMARK    5  A    between atoms: C_6  and  N_7
REMARK    6  A    between atoms: C_6  and  C_8
REMARK    7  A    between atoms: C_8  and  C_9
REMARK    8  A    between atoms: C_9  and  C_10
REMARK    9  A    between atoms: C_10  and  N_11
REMARK   10  A    between atoms: N_14  and  O_15
REMARK   11  A    between atoms: O_15  and  C_16
REMARK   12  A    between atoms: C_18  and  C_19
REMARK   13  A    between atoms: C_19  and  O_20
REMARK   14  A    between atoms: C_21  and  O_22
REMARK   15  A    between atoms: C_23  and  O_24
REMARK   16  A    between atoms: C_25  and  O_26
REMARK                            x       y       z     vdW  Elec       q    Type
REMARK                         _______ _______ _______ _____ _____    ______ ____
ROOT
ATOM      1  N   UNL     1       2.569   7.382  18.458  0.00  0.00    +0.000 N 
ATOM      2  C   UNL     1       1.926   8.146  19.380  0.00  0.00    +0.000 C 
ATOM      3  N   UNL     1       1.977   7.685  20.653  0.00  0.00    +0.000 N 
ATOM      4  N   UNL     1       1.324   9.243  19.047  0.00  0.00    +0.000 NA
ATOM      5  H   UNL     1       2.567   7.803  17.536  0.00  0.00    +0.000 HD
ATOM      6  H   UNL     1       1.720   6.715  20.753  0.00  0.00    +0.000 HD
ATOM      7  H   UNL     1       1.418   8.283  21.254  0.00  0.00    +0.000 HD
ENDROOT
BRANCH   1   8
ATOM      8  C   UNL     1       3.549   6.344  18.676  0.00  0.00    +0.000 C 
BRANCH   8   9
ATOM      9  C   UNL     1       3.967   5.642  17.382  0.00  0.00    +0.000 C 
BRANCH   9  10
ATOM     10  C   UNL     1       4.363   4.161  17.502  0.00  0.00    +0.000 C 
BRANCH  10  11
ATOM     11  C   UNL     1       4.055   3.485  18.848  0.00  0.00    +0.000 C 
BRANCH  11  12
ATOM     12  N   UNL     1       5.262   2.791  19.343  0.00  0.00    +0.000 NA
ATOM     13  H   UNL     1       6.080   3.366  19.100  0.00  0.00    +0.000 HD
ATOM     14  H   UNL     1       5.387   1.931  18.807  0.00  0.00    +0.000 HD
ENDBRANCH  11  12
BRANCH  11  15
ATOM     15  C   UNL     1       2.892   2.502  18.732  0.00  0.00    +0.000 C 
ATOM     16  O   UNL     1       2.519   1.984  17.678  0.00  0.00    +0.000 OA
BRANCH  15  17
ATOM     17  O   UNL     1       2.348   2.269  19.957  0.00  0.00    +0.000 OA
BRANCH  17  19
ATOM     18  C   UNL     1       0.994   4.214  20.395  0.00  0.00    +0.000 C 
ATOM     19  C   UNL     1       1.006   2.719  20.146  0.00  0.00    +0.000 C 
ENDBRANCH  17  19
ENDBRANCH  15  17
ENDBRANCH  11  15
ENDBRANCH  10  11
ENDBRANCH   9  10
ENDBRANCH   8   9
ENDBRANCH   1   8
BRANCH   4  20
ATOM     20  O   UNL     1       0.671   9.783  20.183  0.00  0.00    +0.000 OA
BRANCH  20  21
ATOM     21  C   UNL     1      -0.624  10.260  19.823  0.00  0.00    +0.000 C 
ATOM     22  O   UNL     1      -0.831  10.036  18.422  0.00  0.00    +0.000 OA
ATOM     23  C   UNL     1      -2.102  10.513  17.964  0.00  0.00    +0.000 C 
ATOM     24  C   UNL     1      -2.175  12.038  18.160  0.00  0.00    +0.000 C 
ATOM     25  C   UNL     1      -2.006  12.356  19.650  0.00  0.00    +0.000 C 
ATOM     26  C   UNL     1      -0.685  11.763  20.174  0.00  0.00    +0.000 C 
BRANCH  24  27
ATOM     27  O   UNL     1      -1.127  12.749  17.479  0.00  0.00    +0.000 OA
ATOM     28  H   UNL     1      -1.548  13.454  16.943  0.00  0.00    +0.000 HD
ENDBRANCH  24  27
BRANCH  25  29
ATOM     29  O   UNL     1      -2.028  13.777  19.831  0.00  0.00    +0.000 OA
ATOM     30  H   UNL     1      -2.714  14.106  19.213  0.00  0.00    +0.000 HD
ENDBRANCH  25  29
BRANCH  26  31
ATOM     31  O   UNL     1      -0.556  11.984  21.589  0.00  0.00    +0.000 OA
ATOM     32  H   UNL     1      -1.144  11.366  22.054  0.00  0.00    +0.000 HD
ENDBRANCH  26  31
BRANCH  23  33
ATOM     33  C   UNL     1      -2.231  10.091  16.497  0.00  0.00    +0.000 C 
BRANCH  33  34
ATOM     34  O   UNL     1      -2.493  11.231  15.678  0.00  0.00    +0.000 OA
ATOM     35  H   UNL     1      -2.768  11.937  16.300  0.00  0.00    +0.000 HD
ENDBRANCH  33  34
ENDBRANCH  23  33
ENDBRANCH  20  21
ENDBRANCH   4  20
TORSDOF 15
ENDMDL
MODEL 3
REMARK VINA RESULT:      -6.5      3.998      7.518
REMARK  Name = 
REMARK  16 active torsions:
REMARK  status: ('A' for Active; 'I' for Inactive)
REMARK    1  A    between atoms: C_1  and  C_2
REMARK    2  A    between atoms: C_2  and  O_3
REMARK    3  A    between atoms: O_3  and  C_4
REMARK    4  A    between atoms: C_4  and  C_6
REMARK    5  A    between atoms: C_6  and  N_7
REMARK    6  A    between atoms: C_6  and  C_8
REMARK    7  A    between atoms: C_8  and  C_9
REMARK    8  A    between atoms: C_9  and  C_10
REMARK    9  A    between atoms: C_10  and  N_11
REMARK   10  A    between atoms: N_14  and  O_15
REMARK   11  A    between atoms: O_15  and  C_16
REMARK   12  A    between atoms: C_18  and  C_19
REMARK   13  A    between atoms: C_19  and  O_20
REMARK   14  A    between atoms: C_21  and  O_22
REMARK   15  A    between atoms: C_23  and  O_24
REMARK   16  A    between atoms: C_25  and  O_26
REMARK                            x       y       z     vdW  Elec       q    Type
REMARK                         _______ _______ _______ _____ _____    ______ ____
ROOT
ATOM      1  N   UNL     1       3.169   2.310  19.950  0.00  0.00    +0.000 N 
ATOM      2  C   UNL     1       4.192   2.838  19.227  0.00  0.00    +0.000 C 
ATOM      3  N   UNL     1       3.961   2.963  17.898  0.00  0.00    +0.000 N 
ATOM      4  N   UNL     1       5.299   3.203  19.792  0.00  0.00    +0.000 NA
ATOM      5  H   UNL     1       3.359   2.305  20.945  0.00  0.00    +0.000 HD
ATOM      6  H   UNL     1       3.609   2.127  17.459  0.00  0.00    +0.000 HD
ATOM      7  H   UNL     1       4.799   3.303  17.437  0.00  0.00    +0.000 HD
ENDROOT
BRANCH   1   8
ATOM      8  C   UNL     1       1.783   2.163  19.571  0.00  0.00    +0.000 C 
BRANCH   8   9
ATOM      9  C   UNL     1       0.840   2.998  20.440  0.00  0.00    +0.000 C 
BRANCH   9  10
ATOM     10  C   UNL     1       0.706   4.486  20.071  0.00  0.00    +0.000 C 
BRANCH  10  11
ATOM     11  C   UNL     1       1.992   5.322  20.159  0.00  0.00    +0.000 C 
BRANCH  11  12
ATOM     12  N   UNL     1       1.838   6.362  21.197  0.00  0.00    +0.000 NA
ATOM     13  H   UNL     1       1.820   5.894  22.114  0.00  0.00    +0.000 HD
ATOM     14  H   UNL     1       0.910   6.780  21.107  0.00  0.00    +0.000 HD
ENDBRANCH  11  12
BRANCH  11  15
ATOM     15  C   UNL     1       2.339   5.965  18.817  0.00  0.00    +0.000 C 
ATOM     16  O   UNL     1       2.352   5.368  17.740  0.00  0.00    +0.000 OA
BRANCH  15  17
ATOM     17  O   UNL     1       2.611   7.288  18.985  0.00  0.00    +0.000 OA
BRANCH  17  19
ATOM     18  C   UNL     1       1.359   9.160  18.131  0.00  0.00    +0.000 C 
ATOM     19  C   UNL     1       2.422   8.120  17.841  0.00  0.00    +0.000 C 
ENDBRANCH  17  19
ENDBRANCH  15  17
ENDBRANCH  11  15
ENDBRANCH  10  11
ENDBRANCH   9  10
ENDBRANCH   8   9
ENDBRANCH   1   8
BRANCH   4  20
ATOM     20  O   UNL     1       6.213   3.631  18.796  0.00  0.00    +0.000 OA
BRANCH  20  21
ATOM     21  C   UNL     1       6.101   5.040  18.603  0.00  0.00    +0.000 C 
ATOM     22  O   UNL     1       5.726   5.296  17.243  0.00  0.00    +0.000 OA
ATOM     23  C   UNL     1       5.617   6.694  16.948  0.00  0.00    +0.000 C 
ATOM     24  C   UNL     1       6.991   7.363  17.137  0.00  0.00    +0.000 C 
ATOM     25  C   UNL     1       7.442   7.170  18.588  0.00  0.00    +0.000 C 
ATOM     26  C   UNL     1       7.469   5.672  18.944  0.00  0.00    +0.000 C 
BRANCH  24  27
ATOM     27  O   UNL     1       8.021   6.783  16.318  0.00  0.00    +0.000 OA
ATOM     28  H   UNL     1       7.585   6.371  15.543  0.00  0.00    +0.000 HD
ENDBRANCH  24  27
BRANCH  25  29
ATOM     29  O   UNL     1       8.740   7.752  18.757  0.00  0.00    +0.000 OA
ATOM     30  H   UNL     1       9.202   7.170  19.396  0.00  0.00    +0.000 HD
ENDBRANCH  25  29
BRANCH  26  31
ATOM     31  O   UNL     1       7.811   5.484  20.328  0.00  0.00    +0.000 OA
ATOM     32  H   UNL     1       8.641   4.982  20.377  0.00  0.00    +0.000 HD
ENDBRANCH  26  31
BRANCH  23  33
ATOM     33  C   UNL     1       5.089   6.804  15.515  0.00  0.00    +0.000 C 
BRANCH  33  34
ATOM     34  O   UNL     1       5.774   5.885  14.665  0.00  0.00    +0.000 OA
ATOM     35  H   UNL     1       6.074   5.162  15.256  0.00  0.00    +0.000 HD
ENDBRANCH  33  34
ENDBRANCH  23  33
ENDBRANCH  20  21
ENDBRANCH   4  20
TORSDOF 15
ENDMDL
MODEL 4
REMARK VINA RESULT:      -6.5      1.406      1.559
REMARK  Name = 
REMARK  16 active torsions:
REMARK  status: ('A' for Active; 'I' for Inactive)
REMARK    1  A    between atoms: C_1  and  C_2
REMARK    2  A    between atoms: C_2  and  O_3
REMARK    3  A    between atoms: O_3  and  C_4
REMARK    4  A    between atoms: C_4  and  C_6
REMARK    5  A    between atoms: C_6  and  N_7
REMARK    6  A    between atoms: C_6  and  C_8
REMARK    7  A    between atoms: C_8  and  C_9
REMARK    8  A    between atoms: C_9  and  C_10
REMARK    9  A    between atoms: C_10  and  N_11
REMARK   10  A    between atoms: N_14  and  O_15
REMARK   11  A    between atoms: O_15  and  C_16
REMARK   12  A    between atoms: C_18  and  C_19
REMARK   13  A    between atoms: C_19  and  O_20
REMARK   14  A    between atoms: C_21  and  O_22
REMARK   15  A    between atoms: C_23  and  O_24
REMARK   16  A    between atoms: C_25  and  O_26
REMARK                            x       y       z     vdW  Elec       q    Type
REMARK                         _______ _______ _______ _____ _____    ______ ____
ROOT
ATOM      1  N   UNL     1       7.875   7.224  18.074  0.00  0.00    +0.000 N 
ATOM      2  C   UNL     1       7.392   6.044  18.544  0.00  0.00    +0.000 C 
ATOM      3  N   UNL     1       7.939   5.615  19.707  0.00  0.00    +0.000 N 
ATOM      4  N   UNL     1       6.464   5.396  17.915  0.00  0.00    +0.000 NA
ATOM      5  H   UNL     1       7.387   7.541  17.244  0.00  0.00    +0.000 HD
ATOM      6  H   UNL     1       8.947   5.615  19.716  0.00  0.00    +0.000 HD
ATOM      7  H   UNL     1       7.564   4.701  19.943  0.00  0.00    +0.000 HD
ENDROOT
BRANCH   1   8
ATOM      8  C   UNL     1       8.639   8.227  18.778  0.00  0.00    +0.000 C 
BRANCH   8   9
ATOM      9  C   UNL     1       8.473   9.626  18.180  0.00  0.00    +0.000 C 
BRANCH   9  10
ATOM     10  C   UNL     1       9.390  10.726  18.744  0.00  0.00    +0.000 C 
BRANCH  10  11
ATOM     11  C   UNL     1       9.877  11.781  17.739  0.00  0.00    +0.000 C 
BRANCH  11  12
ATOM     12  N   UNL     1      11.344  11.678  17.583  0.00  0.00    +0.000 NA
ATOM     13  H   UNL     1      11.582  10.681  17.489  0.00  0.00    +0.000 HD
ATOM     14  H   UNL     1      11.786  11.964  18.458  0.00  0.00    +0.000 HD
ENDBRANCH  11  12
BRANCH  11  15
ATOM     15  C   UNL     1       9.492  13.194  18.172  0.00  0.00    +0.000 C 
ATOM     16  O   UNL     1       8.373  13.687  18.027  0.00  0.00    +0.000 OA
BRANCH  15  17
ATOM     17  O   UNL     1      10.554  13.814  18.755  0.00  0.00    +0.000 OA
BRANCH  17  19
ATOM     18  C   UNL     1      11.390  15.282  17.037  0.00  0.00    +0.000 C 
ATOM     19  C   UNL     1      10.751  15.185  18.408  0.00  0.00    +0.000 C 
ENDBRANCH  17  19
ENDBRANCH  15  17
ENDBRANCH  11  15
ENDBRANCH  10  11
ENDBRANCH   9  10
ENDBRANCH   8   9
ENDBRANCH   1   8
BRANCH   4  20
ATOM     20  O   UNL     1       6.218   4.168  18.579  0.00  0.00    +0.000 OA
BRANCH  20  21
ATOM     21  C   UNL     1       4.819   3.890  18.594  0.00  0.00    +0.000 C 
ATOM     22  O   UNL     1       4.098   5.120  18.445  0.00  0.00    +0.000 OA
ATOM     23  C   UNL     1       2.677   4.940  18.477  0.00  0.00    +0.000 C 
ATOM     24  C   UNL     1       2.266   4.377  19.850  0.00  0.00    +0.000 C 
ATOM     25  C   UNL     1       2.966   3.031  20.064  0.00  0.00    +0.000 C 
ATOM     26  C   UNL     1       4.492   3.198  19.935  0.00  0.00    +0.000 C 
BRANCH  24  27
ATOM     27  O   UNL     1       2.664   5.214  20.949  0.00  0.00    +0.000 OA
ATOM     28  H   UNL     1       1.877   5.726  21.230  0.00  0.00    +0.000 HD
ENDBRANCH  24  27
BRANCH  25  29
ATOM     29  O   UNL     1       2.622   2.524  21.359  0.00  0.00    +0.000 OA
ATOM     30  H   UNL     1       2.221   3.282  21.834  0.00  0.00    +0.000 HD
ENDBRANCH  25  29
BRANCH  26  31
ATOM     31  O   UNL     1       5.153   1.926  20.052  0.00  0.00    +0.000 OA
ATOM     32  H   UNL     1       4.951   1.551  20.925  0.00  0.00    +0.000 HD
ENDBRANCH  26  31
BRANCH  23  33
ATOM     33  C   UNL     1       2.051   6.306  18.179  0.00  0.00    +0.000 C 
BRANCH  33  34
ATOM     34  O   UNL     1       2.651   7.312  18.994  0.00  0.00    +0.000 OA
ATOM     35  H   UNL     1       2.123   8.122  18.833  0.00  0.00    +0.000 HD
ENDBRANCH  33  34
ENDBRANCH  23  33
ENDBRANCH  20  21
ENDBRANCH   4  20
TORSDOF 15
ENDMDL
MODEL 5
REMARK VINA RESULT:      -6.4      4.464      7.277
REMARK  Name = 
REMARK  16 active torsions:
REMARK  status: ('A' for Active; 'I' for Inactive)
REMARK    1  A    between atoms: C_1  and  C_2
REMARK    2  A    between atoms: C_2  and  O_3
REMARK    3  A    between atoms: O_3  and  C_4
REMARK    4  A    between atoms: C_4  and  C_6
REMARK    5  A    between atoms: C_6  and  N_7
REMARK    6  A    between atoms: C_6  and  C_8
REMARK    7  A    between atoms: C_8  and  C_9
REMARK    8  A    between atoms: C_9  and  C_10
REMARK    9  A    between atoms: C_10  and  N_11
REMARK   10  A    between atoms: N_14  and  O_15
REMARK   11  A    between atoms: O_15  and  C_16
REMARK   12  A    between atoms: C_18  and  C_19
REMARK   13  A    between atoms: C_19  and  O_20
REMARK   14  A    between atoms: C_21  and  O_22
REMARK   15  A    between atoms: C_23  and  O_24
REMARK   16  A    between atoms: C_25  and  O_26
REMARK                            x       y       z     vdW  Elec       q    Type
REMARK                         _______ _______ _______ _____ _____    ______ ____
ROOT
ATOM      1  N   UNL     1       3.394   6.279  18.944  0.00  0.00    +0.000 N 
ATOM      2  C   UNL     1       2.518   6.697  19.895  0.00  0.00    +0.000 C 
ATOM      3  N   UNL     1       2.265   5.806  20.883  0.00  0.00    +0.000 N 
ATOM      4  N   UNL     1       1.984   7.876  19.849  0.00  0.00    +0.000 NA
ATOM      5  H   UNL     1       3.609   7.004  18.269  0.00  0.00    +0.000 HD
ATOM      6  H   UNL     1       2.022   4.884  20.556  0.00  0.00    +0.000 HD
ATOM      7  H   UNL     1       1.556   6.181  21.506  0.00  0.00    +0.000 HD
ENDROOT
BRANCH   1   8
ATOM      8  C   UNL     1       4.321   5.173  18.998  0.00  0.00    +0.000 C 
BRANCH   8   9
ATOM      9  C   UNL     1       4.126   4.179  17.852  0.00  0.00    +0.000 C 
BRANCH   9  10
ATOM     10  C   UNL     1       4.651   4.613  16.472  0.00  0.00    +0.000 C 
BRANCH  10  11
ATOM     11  C   UNL     1       5.516   5.883  16.446  0.00  0.00    +0.000 C 
BRANCH  11  12
ATOM     12  N   UNL     1       5.134   6.721  15.290  0.00  0.00    +0.000 NA
ATOM     13  H   UNL     1       5.484   6.262  14.437  0.00  0.00    +0.000 HD
ATOM     14  H   UNL     1       5.653   7.599  15.337  0.00  0.00    +0.000 HD
ENDBRANCH  11  12
BRANCH  11  15
ATOM     15  C   UNL     1       7.005   5.551  16.386  0.00  0.00    +0.000 C 
ATOM     16  O   UNL     1       7.461   4.435  16.132  0.00  0.00    +0.000 OA
BRANCH  15  17
ATOM     17  O   UNL     1       7.747   6.664  16.634  0.00  0.00    +0.000 OA
BRANCH  17  19
ATOM     18  C   UNL     1       7.934   6.218  18.994  0.00  0.00    +0.000 C 
ATOM     19  C   UNL     1       7.599   7.244  17.930  0.00  0.00    +0.000 C 
ENDBRANCH  17  19
ENDBRANCH  15  17
ENDBRANCH  11  15
ENDBRANCH  10  11
ENDBRANCH   9  10
ENDBRANCH   8   9
ENDBRANCH   1   8
BRANCH   4  20
ATOM     20  O   UNL     1       1.053   8.010  20.909  0.00  0.00    +0.000 OA
BRANCH  20  21
ATOM     21  C   UNL     1       0.269   9.188  20.728  0.00  0.00    +0.000 C 
ATOM     22  O   UNL     1       0.939  10.056  19.804  0.00  0.00    +0.000 OA
ATOM     23  C   UNL     1       0.235  11.283  19.582  0.00  0.00    +0.000 C 
ATOM     24  C   UNL     1       0.145  12.066  20.905  0.00  0.00    +0.000 C 
ATOM     25  C   UNL     1      -0.604  11.215  21.936  0.00  0.00    +0.000 C 
ATOM     26  C   UNL     1       0.094   9.854  22.110  0.00  0.00    +0.000 C 
BRANCH  24  27
ATOM     27  O   UNL     1       1.430  12.354  21.482  0.00  0.00    +0.000 OA
ATOM     28  H   UNL     1       1.426  12.007  22.399  0.00  0.00    +0.000 HD
ENDBRANCH  24  27
BRANCH  25  29
ATOM     29  O   UNL     1      -0.651  11.921  23.182  0.00  0.00    +0.000 OA
ATOM     30  H   UNL     1      -0.576  12.869  22.944  0.00  0.00    +0.000 HD
ENDBRANCH  25  29
BRANCH  26  31
ATOM     31  O   UNL     1      -0.648   9.016  23.013  0.00  0.00    +0.000 OA
ATOM     32  H   UNL     1      -0.019   8.541  23.583  0.00  0.00    +0.000 HD
ENDBRANCH  26  31
BRANCH  23  33
ATOM     33  C   UNL     1       0.996  12.039  18.489  0.00  0.00    +0.000 C 
BRANCH  33  34
ATOM     34  O   UNL     1       1.918  11.167  17.838  0.00  0.00    +0.000 OA
ATOM     35  H   UNL     1       1.483  10.288  17.835  0.00  0.00    +0.000 HD
ENDBRANCH  33  34
ENDBRANCH  23  33
ENDBRANCH  20  21
ENDBRANCH   4  20
TORSDOF 15
ENDMDL
MODEL 6
REMARK VINA RESULT:      -6.4      6.340      9.841
REMARK  Name = 
REMARK  16 active torsions:
REMARK  status: ('A' for Active; 'I' for Inactive)
REMARK    1  A    between atoms: C_1  and  C_2
REMARK    2  A    between atoms: C_2  and  O_3
REMARK    3  A    between atoms: O_3  and  C_4
REMARK    4  A    between atoms: C_4  and  C_6
REMARK    5  A    between atoms: C_6  and  N_7
REMARK    6  A    between atoms: C_6  and  C_8
REMARK    7  A    between atoms: C_8  and  C_9
REMARK    8  A    between atoms: C_9  and  C_10
REMARK    9  A    between atoms: C_10  and  N_11
REMARK   10  A    between atoms: N_14  and  O_15
REMARK   11  A    between atoms: O_15  and  C_16
REMARK   12  A    between atoms: C_18  and  C_19
REMARK   13  A    between atoms: C_19  and  O_20
REMARK   14  A    between atoms: C_21  and  O_22
REMARK   15  A    between atoms: C_23  and  O_24
REMARK   16  A    between atoms: C_25  and  O_26
REMARK                            x       y       z     vdW  Elec       q    Type
REMARK                         _______ _______ _______ _____ _____    ______ ____
ROOT
ATOM      1  N   UNL     1       2.478   6.700  18.046  0.00  0.00    +0.000 N 
ATOM      2  C   UNL     1       2.081   7.731  18.836  0.00  0.00    +0.000 C 
ATOM      3  N   UNL     1       2.317   7.571  20.161  0.00  0.00    +0.000 N 
ATOM      4  N   UNL     1       1.528   8.790  18.337  0.00  0.00    +0.000 NA
ATOM      5  H   UNL     1       2.350   6.894  17.060  0.00  0.00    +0.000 HD
ATOM      6  H   UNL     1       1.997   6.692  20.536  0.00  0.00    +0.000 HD
ATOM      7  H   UNL     1       1.929   8.358  20.673  0.00  0.00    +0.000 HD
ENDROOT
BRANCH   1   8
ATOM      8  C   UNL     1       3.385   5.621  18.362  0.00  0.00    +0.000 C 
BRANCH   8   9
ATOM      9  C   UNL     1       3.549   4.627  17.211  0.00  0.00    +0.000 C 
BRANCH   9  10
ATOM     10  C   UNL     1       2.611   3.407  17.220  0.00  0.00    +0.000 C 
BRANCH  10  11
ATOM     11  C   UNL     1       2.563   2.601  18.528  0.00  0.00    +0.000 C 
BRANCH  11  12
ATOM     12  N   UNL     1       3.235   1.299  18.333  0.00  0.00    +0.000 NA
ATOM     13  H   UNL     1       3.385   1.168  17.323  0.00  0.00    +0.000 HD
ATOM     14  H   UNL     1       2.586   0.554  18.592  0.00  0.00    +0.000 HD
ENDBRANCH  11  12
BRANCH  11  15
ATOM     15  C   UNL     1       1.129   2.386  19.007  0.00  0.00    +0.000 C 
ATOM     16  O   UNL     1       0.205   2.001  18.289  0.00  0.00    +0.000 OA
BRANCH  15  17
ATOM     17  O   UNL     1       1.029   2.663  20.335  0.00  0.00    +0.000 OA
BRANCH  17  19
ATOM     18  C   UNL     1       2.370   4.201  21.616  0.00  0.00    +0.000 C 
ATOM     19  C   UNL     1       1.171   4.035  20.705  0.00  0.00    +0.000 C 
ENDBRANCH  17  19
ENDBRANCH  15  17
ENDBRANCH  11  15
ENDBRANCH  10  11
ENDBRANCH   9  10
ENDBRANCH   8   9
ENDBRANCH   1   8
BRANCH   4  20
ATOM     20  O   UNL     1       1.139   9.656  19.390  0.00  0.00    +0.000 OA
BRANCH  20  21
ATOM     21  C   UNL     1      -0.234  10.015  19.247  0.00  0.00    +0.000 C 
ATOM     22  O   UNL     1      -0.601   9.913  17.865  0.00  0.00    +0.000 OA
ATOM     23  C   UNL     1      -1.963  10.285  17.622  0.00  0.00    +0.000 C 
ATOM     24  C   UNL     1      -2.165  11.763  18.002  0.00  0.00    +0.000 C 
ATOM     25  C   UNL     1      -1.833  11.943  19.487  0.00  0.00    +0.000 C 
ATOM     26  C   UNL     1      -0.401  11.456  19.776  0.00  0.00    +0.000 C 
BRANCH  24  27
ATOM     27  O   UNL     1      -1.294  12.656  17.287  0.00  0.00    +0.000 OA
ATOM     28  H   UNL     1      -0.470  12.166  17.085  0.00  0.00    +0.000 HD
ENDBRANCH  24  27
BRANCH  25  29
ATOM     29  O   UNL     1      -1.975  13.325  19.835  0.00  0.00    +0.000 OA
ATOM     30  H   UNL     1      -1.199  13.773  19.438  0.00  0.00    +0.000 HD
ENDBRANCH  25  29
BRANCH  26  31
ATOM     31  O   UNL     1      -0.109  11.543  21.181  0.00  0.00    +0.000 OA
ATOM     32  H   UNL     1       0.733  12.015  21.295  0.00  0.00    +0.000 HD
ENDBRANCH  26  31
BRANCH  23  33
ATOM     33  C   UNL     1      -2.242  10.004  16.142  0.00  0.00    +0.000 C 
BRANCH  33  34
ATOM     34  O   UNL     1      -2.792  11.163  15.516  0.00  0.00    +0.000 OA
ATOM     35  H   UNL     1      -2.129  11.871  15.657  0.00  0.00    +0.000 HD
ENDBRANCH  33  34
ENDBRANCH  23  33
ENDBRANCH  20  21
ENDBRANCH   4  20
TORSDOF 15
ENDMDL
MODEL 7
REMARK VINA RESULT:      -6.4      2.542      9.899
REMARK  Name = 
REMARK  16 active torsions:
REMARK  status: ('A' for Active; 'I' for Inactive)
REMARK    1  A    between atoms: C_1  and  C_2
REMARK    2  A    between atoms: C_2  and  O_3
REMARK    3  A    between atoms: O_3  and  C_4
REMARK    4  A    between atoms: C_4  and  C_6
REMARK    5  A    between atoms: C_6  and  N_7
REMARK    6  A    between atoms: C_6  and  C_8
REMARK    7  A    between atoms: C_8  and  C_9
REMARK    8  A    between atoms: C_9  and  C_10
REMARK    9  A    between atoms: C_10  and  N_11
REMARK   10  A    between atoms: N_14  and  O_15
REMARK   11  A    between atoms: O_15  and  C_16
REMARK   12  A    between atoms: C_18  and  C_19
REMARK   13  A    between atoms: C_19  and  O_20
REMARK   14  A    between atoms: C_21  and  O_22
REMARK   15  A    between atoms: C_23  and  O_24
REMARK   16  A    between atoms: C_25  and  O_26
REMARK                            x       y       z     vdW  Elec       q    Type
REMARK                         _______ _______ _______ _____ _____    ______ ____
ROOT
ATOM      1  N   UNL     1       7.450   8.467  17.284  0.00  0.00    +0.000 N 
ATOM      2  C   UNL     1       8.377   8.934  18.161  0.00  0.00    +0.000 C 
ATOM      3  N   UNL     1       8.758   8.060  19.124  0.00  0.00    +0.000 N 
ATOM      4  N   UNL     1       8.860  10.131  18.057  0.00  0.00    +0.000 NA
ATOM      5  H   UNL     1       7.251   9.126  16.540  0.00  0.00    +0.000 HD
ATOM      6  H   UNL     1       7.992   7.625  19.614  0.00  0.00    +0.000 HD
ATOM      7  H   UNL     1       9.399   8.518  19.764  0.00  0.00    +0.000 HD
ENDROOT
BRANCH   1   8
ATOM      8  C   UNL     1       7.054   7.100  17.037  0.00  0.00    +0.000 C 
BRANCH   8   9
ATOM      9  C   UNL     1       5.539   6.900  17.100  0.00  0.00    +0.000 C 
BRANCH   9  10
ATOM     10  C   UNL     1       4.980   5.658  16.383  0.00  0.00    +0.000 C 
BRANCH  10  11
ATOM     11  C   UNL     1       4.930   4.365  17.211  0.00  0.00    +0.000 C 
BRANCH  11  12
ATOM     12  N   UNL     1       5.594   3.274  16.467  0.00  0.00    +0.000 NA
ATOM     13  H   UNL     1       5.117   3.173  15.561  0.00  0.00    +0.000 HD
ATOM     14  H   UNL     1       5.411   2.392  16.949  0.00  0.00    +0.000 HD
ENDBRANCH  11  12
BRANCH  11  15
ATOM     15  C   UNL     1       3.496   3.970  17.556  0.00  0.00    +0.000 C 
ATOM     16  O   UNL     1       3.017   2.850  17.372  0.00  0.00    +0.000 OA
BRANCH  15  17
ATOM     17  O   UNL     1       2.837   5.024  18.110  0.00  0.00    +0.000 OA
BRANCH  17  19
ATOM     18  C   UNL     1       1.691   4.771  20.214  0.00  0.00    +0.000 C 
ATOM     19  C   UNL     1       2.975   5.183  19.521  0.00  0.00    +0.000 C 
ENDBRANCH  17  19
ENDBRANCH  15  17
ENDBRANCH  11  15
ENDBRANCH  10  11
ENDBRANCH   9  10
ENDBRANCH   8   9
ENDBRANCH   1   8
BRANCH   4  20
ATOM     20  O   UNL     1       9.734  10.379  19.146  0.00  0.00    +0.000 OA
BRANCH  20  21
ATOM     21  C   UNL     1      10.122  11.751  19.160  0.00  0.00    +0.000 C 
ATOM     22  O   UNL     1       9.011  12.546  19.596  0.00  0.00    +0.000 OA
ATOM     23  C   UNL     1       9.302  13.948  19.614  0.00  0.00    +0.000 C 
ATOM     24  C   UNL     1       9.621  14.421  18.184  0.00  0.00    +0.000 C 
ATOM     25  C   UNL     1      10.835  13.644  17.663  0.00  0.00    +0.000 C 
ATOM     26  C   UNL     1      10.566  12.129  17.730  0.00  0.00    +0.000 C 
BRANCH  24  27
ATOM     27  O   UNL     1       8.555  14.169  17.252  0.00  0.00    +0.000 OA
ATOM     28  H   UNL     1       7.872  13.645  17.720  0.00  0.00    +0.000 HD
ENDBRANCH  24  27
BRANCH  25  29
ATOM     29  O   UNL     1      11.108  14.048  16.316  0.00  0.00    +0.000 OA
ATOM     30  H   UNL     1      11.334  13.222  15.840  0.00  0.00    +0.000 HD
ENDBRANCH  25  29
BRANCH  26  31
ATOM     31  O   UNL     1      11.729  11.389  17.322  0.00  0.00    +0.000 OA
ATOM     32  H   UNL     1      12.473  12.007  17.227  0.00  0.00    +0.000 HD
ENDBRANCH  26  31
BRANCH  23  33
ATOM     33  C   UNL     1       8.079  14.647  20.216  0.00  0.00    +0.000 C 
BRANCH  33  34
ATOM     34  O   UNL     1       7.824  15.872  19.530  0.00  0.00    +0.000 OA
ATOM     35  H   UNL     1       6.916  15.781  19.169  0.00  0.00    +0.000 HD
ENDBRANCH  33  34
ENDBRANCH  23  33
ENDBRANCH  20  21
ENDBRANCH   4  20
TORSDOF 15
ENDMDL
MODEL 8
REMARK VINA RESULT:      -6.4      4.793      7.654
REMARK  Name = 
REMARK  16 active torsions:
REMARK  status: ('A' for Active; 'I' for Inactive)
REMARK    1  A    between atoms: C_1  and  C_2
REMARK    2  A    between atoms: C_2  and  O_3
REMARK    3  A    between atoms: O_3  and  C_4
REMARK    4  A    between atoms: C_4  and  C_6
REMARK    5  A    between atoms: C_6  and  N_7
REMARK    6  A    between atoms: C_6  and  C_8
REMARK    7  A    between atoms: C_8  and  C_9
REMARK    8  A    between atoms: C_9  and  C_10
REMARK    9  A    between atoms: C_10  and  N_11
REMARK   10  A    between atoms: N_14  and  O_15
REMARK   11  A    between atoms: O_15  and  C_16
REMARK   12  A    between atoms: C_18  and  C_19
REMARK   13  A    between atoms: C_19  and  O_20
REMARK   14  A    between atoms: C_21  and  O_22
REMARK   15  A    between atoms: C_23  and  O_24
REMARK   16  A    between atoms: C_25  and  O_26
REMARK                            x       y       z     vdW  Elec       q    Type
REMARK                         _______ _______ _______ _____ _____    ______ ____
ROOT
ATOM      1  N   UNL     1       2.591   6.486  18.727  0.00  0.00    +0.000 N 
ATOM      2  C   UNL     1       2.087   6.945  19.902  0.00  0.00    +0.000 C 
ATOM      3  N   UNL     1       1.939   6.013  20.875  0.00  0.00    +0.000 N 
ATOM      4  N   UNL     1       1.788   8.194  20.066  0.00  0.00    +0.000 NA
ATOM      5  H   UNL     1       2.753   7.229  18.057  0.00  0.00    +0.000 HD
ATOM      6  H   UNL     1       1.453   5.181  20.580  0.00  0.00    +0.000 HD
ATOM      7  H   UNL     1       1.499   6.435  21.687  0.00  0.00    +0.000 HD
ENDROOT
BRANCH   1   8
ATOM      8  C   UNL     1       3.278   5.242  18.468  0.00  0.00    +0.000 C 
BRANCH   8   9
ATOM      9  C   UNL     1       4.798   5.364  18.604  0.00  0.00    +0.000 C 
BRANCH   9  10
ATOM     10  C   UNL     1       5.478   6.442  17.742  0.00  0.00    +0.000 C 
BRANCH  10  11
ATOM     11  C   UNL     1       6.996   6.296  17.551  0.00  0.00    +0.000 C 
BRANCH  11  12
ATOM     12  N   UNL     1       7.539   7.524  16.934  0.00  0.00    +0.000 NA
ATOM     13  H   UNL     1       8.464   7.299  16.541  0.00  0.00    +0.000 HD
ATOM     14  H   UNL     1       7.735   8.202  17.672  0.00  0.00    +0.000 HD
ENDBRANCH  11  12
BRANCH  11  15
ATOM     15  C   UNL     1       7.344   5.080  16.696  0.00  0.00    +0.000 C 
ATOM     16  O   UNL     1       8.100   4.173  17.049  0.00  0.00    +0.000 OA
BRANCH  15  17
ATOM     17  O   UNL     1       6.686   5.135  15.507  0.00  0.00    +0.000 OA
BRANCH  17  19
ATOM     18  C   UNL     1       6.145   3.862  13.534  0.00  0.00    +0.000 C 
ATOM     19  C   UNL     1       6.108   3.913  15.049  0.00  0.00    +0.000 C 
ENDBRANCH  17  19
ENDBRANCH  15  17
ENDBRANCH  11  15
ENDBRANCH  10  11
ENDBRANCH   9  10
ENDBRANCH   8   9
ENDBRANCH   1   8
BRANCH   4  20
ATOM     20  O   UNL     1       1.206   8.372  21.347  0.00  0.00    +0.000 OA
BRANCH  20  21
ATOM     21  C   UNL     1       0.058   9.213  21.250  0.00  0.00    +0.000 C 
ATOM     22  O   UNL     1       0.111   9.935  20.013  0.00  0.00    +0.000 OA
ATOM     23  C   UNL     1      -0.994  10.831  19.843  0.00  0.00    +0.000 C 
ATOM     24  C   UNL     1      -0.962  11.897  20.953  0.00  0.00    +0.000 C 
ATOM     25  C   UNL     1      -1.061  11.200  22.314  0.00  0.00    +0.000 C 
ATOM     26  C   UNL     1       0.069  10.165  22.466  0.00  0.00    +0.000 C 
BRANCH  24  27
ATOM     27  O   UNL     1       0.262  12.652  20.979  0.00  0.00    +0.000 OA
ATOM     28  H   UNL     1       0.373  13.002  21.888  0.00  0.00    +0.000 HD
ENDBRANCH  24  27
BRANCH  25  29
ATOM     29  O   UNL     1      -0.986  12.185  23.352  0.00  0.00    +0.000 OA
ATOM     30  H   UNL     1      -0.312  11.848  23.979  0.00  0.00    +0.000 HD
ENDBRANCH  25  29
BRANCH  26  31
ATOM     31  O   UNL     1      -0.064   9.447  23.705  0.00  0.00    +0.000 OA
ATOM     32  H   UNL     1       0.804   9.416  24.140  0.00  0.00    +0.000 HD
ENDBRANCH  26  31
BRANCH  23  33
ATOM     33  C   UNL     1      -0.870  11.426  18.437  0.00  0.00    +0.000 C 
BRANCH  33  34
ATOM     34  O   UNL     1       0.490  11.762  18.163  0.00  0.00    +0.000 OA
ATOM     35  H   UNL     1       0.516  12.742  18.150  0.00  0.00    +0.000 HD
ENDBRANCH  33  34
ENDBRANCH  23  33
ENDBRANCH  20  21
ENDBRANCH   4  20
TORSDOF 15
ENDMDL
MODEL 9
REMARK VINA RESULT:      -6.4      6.082      9.653
REMARK  Name = 
REMARK  16 active torsions:
REMARK  status: ('A' for Active; 'I' for Inactive)
REMARK    1  A    between atoms: C_1  and  C_2
REMARK    2  A    between atoms: C_2  and  O_3
REMARK    3  A    between atoms: O_3  and  C_4
REMARK    4  A    between atoms: C_4  and  C_6
REMARK    5  A    between atoms: C_6  and  N_7
REMARK    6  A    between atoms: C_6  and  C_8
REMARK    7  A    between atoms: C_8  and  C_9
REMARK    8  A    between atoms: C_9  and  C_10
REMARK    9  A    between atoms: C_10  and  N_11
REMARK   10  A    between atoms: N_14  and  O_15
REMARK   11  A    between atoms: O_15  and  C_16
REMARK   12  A    between atoms: C_18  and  C_19
REMARK   13  A    between atoms: C_19  and  O_20
REMARK   14  A    between atoms: C_21  and  O_22
REMARK   15  A    between atoms: C_23  and  O_24
REMARK   16  A    between atoms: C_25  and  O_26
REMARK                            x       y       z     vdW  Elec       q    Type
REMARK                         _______ _______ _______ _____ _____    ______ ____
ROOT
ATOM      1  N   UNL     1       2.970   6.895  18.353  0.00  0.00    +0.000 N 
ATOM      2  C   UNL     1       2.240   7.691  19.177  0.00  0.00    +0.000 C 
ATOM      3  N   UNL     1       2.159   7.275  20.464  0.00  0.00    +0.000 N 
ATOM      4  N   UNL     1       1.681   8.777  18.747  0.00  0.00    +0.000 NA
ATOM      5  H   UNL     1       3.065   7.283  17.421  0.00  0.00    +0.000 HD
ATOM      6  H   UNL     1       1.889   6.310  20.571  0.00  0.00    +0.000 HD
ATOM      7  H   UNL     1       1.545   7.895  20.984  0.00  0.00    +0.000 HD
ENDROOT
BRANCH   1   8
ATOM      8  C   UNL     1       3.918   5.863  18.705  0.00  0.00    +0.000 C 
BRANCH   8   9
ATOM      9  C   UNL     1       4.628   5.270  17.487  0.00  0.00    +0.000 C 
BRANCH   9  10
ATOM     10  C   UNL     1       4.137   3.892  17.010  0.00  0.00    +0.000 C 
BRANCH  10  11
ATOM     11  C   UNL     1       3.522   2.984  18.086  0.00  0.00    +0.000 C 
BRANCH  11  12
ATOM     12  N   UNL     1       4.015   1.602  17.911  0.00  0.00    +0.000 NA
ATOM     13  H   UNL     1       3.651   1.248  17.015  0.00  0.00    +0.000 HD
ATOM     14  H   UNL     1       3.577   1.007  18.616  0.00  0.00    +0.000 HD
ENDBRANCH  11  12
BRANCH  11  15
ATOM     15  C   UNL     1       1.995   3.008  18.040  0.00  0.00    +0.000 C 
ATOM     16  O   UNL     1       1.332   3.687  17.255  0.00  0.00    +0.000 OA
BRANCH  15  17
ATOM     17  O   UNL     1       1.482   2.162  18.974  0.00  0.00    +0.000 OA
BRANCH  17  19
ATOM     18  C   UNL     1       1.057   3.867  20.622  0.00  0.00    +0.000 C 
ATOM     19  C   UNL     1       1.698   2.524  20.338  0.00  0.00    +0.000 C 
ENDBRANCH  17  19
ENDBRANCH  15  17
ENDBRANCH  11  15
ENDBRANCH  10  11
ENDBRANCH   9  10
ENDBRANCH   8   9
ENDBRANCH   1   8
BRANCH   4  20
ATOM     20  O   UNL     1       0.918   9.357  19.791  0.00  0.00    +0.000 OA
BRANCH  20  21
ATOM     21  C   UNL     1       0.603  10.711  19.474  0.00  0.00    +0.000 C 
ATOM     22  O   UNL     1       0.454  11.453  20.692  0.00  0.00    +0.000 OA
ATOM     23  C   UNL     1       0.107  12.825  20.470  0.00  0.00    +0.000 C 
ATOM     24  C   UNL     1      -1.260  12.897  19.764  0.00  0.00    +0.000 C 
ATOM     25  C   UNL     1      -1.167  12.160  18.424  0.00  0.00    +0.000 C 
ATOM     26  C   UNL     1      -0.701  10.709  18.646  0.00  0.00    +0.000 C 
BRANCH  24  27
ATOM     27  O   UNL     1      -2.313  12.254  20.502  0.00  0.00    +0.000 OA
ATOM     28  H   UNL     1      -1.908  11.829  21.286  0.00  0.00    +0.000 HD
ENDBRANCH  24  27
BRANCH  25  29
ATOM     29  O   UNL     1      -2.449  12.186  17.785  0.00  0.00    +0.000 OA
ATOM     30  H   UNL     1      -2.583  13.118  17.514  0.00  0.00    +0.000 HD
ENDBRANCH  25  29
BRANCH  26  31
ATOM     31  O   UNL     1      -0.530  10.033  17.388  0.00  0.00    +0.000 OA
ATOM     32  H   UNL     1       0.034  10.580  16.816  0.00  0.00    +0.000 HD
ENDBRANCH  26  31
BRANCH  23  33
ATOM     33  C   UNL     1       0.111  13.511  21.839  0.00  0.00    +0.000 C 
BRANCH  33  34
ATOM     34  O   UNL     1      -0.423  12.634  22.830  0.00  0.00    +0.000 OA
ATOM     35  H   UNL     1      -0.075  11.746  22.604  0.00  0.00    +0.000 HD
ENDBRANCH  33  34
ENDBRANCH  23  33
ENDBRANCH  20  21
ENDBRANCH   4  20
TORSDOF 15
ENDMDL
