MODEL 1
REMARK VINA RESULT:      -7.5      0.000      0.000
REMARK  Name = 
REMARK  12 active torsions:
REMARK  status: ('A' for Active; 'I' for Inactive)
REMARK    1  A    between atoms: C_6  and  C_7
REMARK    2  A    between atoms: C_10  and  O_11
REMARK    3  A    between atoms: C_12  and  C_13
REMARK    4  A    between atoms: C_12  and  C_14
REMARK    5  A    between atoms: C_14  and  O_15
REMARK    6  A    between atoms: C_16  and  C_17
REMARK    7  A    between atoms: C_17  and  C_18
REMARK    8  A    between atoms: C_18  and  O_19
REMARK    9  A    between atoms: C_18  and  C_24
REMARK   10  A    between atoms: O_19  and  C_20
REMARK   11  A    between atoms: C_20  and  C_22
REMARK   12  A    between atoms: C_22  and  C_23
REMARK                            x       y       z     vdW  Elec       q    Type
REMARK                         _______ _______ _______ _____ _____    ______ ____
ROOT
ATOM      1  C   UNL     1       1.668   4.068  20.301  0.00  0.00    +0.000 C 
ATOM      2  C   UNL     1       1.791   4.651  19.089  0.00  0.00    +0.000 C 
ATOM      3  C   UNL     1       1.771   3.825  17.825  0.00  0.00    +0.000 C 
ATOM      4  C   UNL     1       3.175   3.692  17.203  0.00  0.00    +0.000 C 
ATOM      5  C   UNL     1       4.010   4.994  17.164  0.00  0.00    +0.000 C 
ATOM      6  C   UNL     1       3.845   5.874  18.462  0.00  0.00    +0.000 C 
ATOM      7  C   UNL     1       4.499   5.158  19.667  0.00  0.00    +0.000 C 
ATOM      8  C   UNL     1       4.487   7.263  18.191  0.00  0.00    +0.000 C 
ATOM      9  C   UNL     1       5.798   7.315  17.407  0.00  0.00    +0.000 C 
ATOM     10  C   UNL     1       6.019   6.267  16.314  0.00  0.00    +0.000 C 
ATOM     11  C   UNL     1       5.549   4.833  16.691  0.00  0.00    +0.000 C 
ATOM     12  C   UNL     1       5.629   3.920  15.442  0.00  0.00    +0.000 C 
ATOM     13  C   UNL     1       2.308   6.071  18.882  0.00  0.00    +0.000 C 
ENDROOT
BRANCH  10  14
ATOM     14  O   UNL     1       7.412   6.293  15.954  0.00  0.00    +0.000 OA
ATOM     15  H   UNL     1       7.548   5.653  15.231  0.00  0.00    +0.000 HD
ENDBRANCH  10  14
BRANCH  11  16
ATOM     16  C   UNL     1       6.610   4.212  17.655  0.00  0.00    +0.000 C 
BRANCH  16  17
ATOM     17  O   UNL     1       7.877   4.029  17.033  0.00  0.00    +0.000 OA
ATOM     18  H   UNL     1       8.316   3.280  17.482  0.00  0.00    +0.000 HD
ENDBRANCH  16  17
ENDBRANCH  11  16
BRANCH  13  19
ATOM     19  C   UNL     1       2.166   7.071  20.094  0.00  0.00    +0.000 C 
BRANCH  19  20
ATOM     20  C   UNL     1       1.733   8.539  19.875  0.00  0.00    +0.000 C 
BRANCH  20  21
ATOM     21  C   UNL     1       0.883   8.986  21.022  0.00  0.00    +0.000 C 
ATOM     22  C   UNL     1      -0.021   8.338  21.767  0.00  0.00    +0.000 C 
ATOM     23  C   UNL     1      -0.561   9.208  22.824  0.00  0.00    +0.000 C 
ATOM     24  O   UNL     1       0.098  10.453  22.620  0.00  0.00    +0.000 OA
ATOM     25  C   UNL     1       0.933  10.350  21.556  0.00  0.00    +0.000 C 
ATOM     26  O   UNL     1       1.629  11.259  21.118  0.00  0.00    +0.000 OA
ENDBRANCH  20  21
BRANCH  20  27
ATOM     27  O   UNL     1       0.899   8.595  18.667  0.00  0.00    +0.000 OA
BRANCH  27  28
ATOM     28  C   UNL     1       0.787   9.787  17.991  0.00  0.00    +0.000 C 
ATOM     29  O   UNL     1       1.680  10.320  17.381  0.00  0.00    +0.000 OA
BRANCH  28  30
ATOM     30  C   UNL     1      -0.634  10.335  18.148  0.00  0.00    +0.000 C 
ATOM     31  C   UNL     1      -1.614   9.853  17.085  0.00  0.00    +0.000 C 
ENDBRANCH  28  30
ENDBRANCH  27  28
ENDBRANCH  20  27
ENDBRANCH  19  20
ENDBRANCH  13  19
TORSDOF 9
ENDMDL
MODEL 2
REMARK VINA RESULT:      -7.2      0.956      1.238
REMARK  Name = 
REMARK  12 active torsions:
REMARK  status: ('A' for Active; 'I' for Inactive)
REMARK    1  A    between atoms: C_6  and  C_7
REMARK    2  A    between atoms: C_10  and  O_11
REMARK    3  A    between atoms: C_12  and  C_13
REMARK    4  A    between atoms: C_12  and  C_14
REMARK    5  A    between atoms: C_14  and  O_15
REMARK    6  A    between atoms: C_16  and  C_17
REMARK    7  A    between atoms: C_17  and  C_18
REMARK    8  A    between atoms: C_18  and  O_19
REMARK    9  A    between atoms: C_18  and  C_24
REMARK   10  A    between atoms: O_19  and  C_20
REMARK   11  A    between atoms: C_20  and  C_22
REMARK   12  A    between atoms: C_22  and  C_23
REMARK                            x       y       z     vdW  Elec       q    Type
REMARK                         _______ _______ _______ _____ _____    ______ ____
ROOT
ATOM      1  C   UNL     1       1.781   3.776  20.483  0.00  0.00    +0.000 C 
ATOM      2  C   UNL     1       1.808   4.389  19.281  0.00  0.00    +0.000 C 
ATOM      3  C   UNL     1       1.780   3.588  18.000  0.00  0.00    +0.000 C 
ATOM      4  C   UNL     1       3.158   3.560  17.310  0.00  0.00    +0.000 C 
ATOM      5  C   UNL     1       3.904   4.915  17.261  0.00  0.00    +0.000 C 
ATOM      6  C   UNL     1       3.745   5.757  18.585  0.00  0.00    +0.000 C 
ATOM      7  C   UNL     1       4.502   5.062  19.741  0.00  0.00    +0.000 C 
ATOM      8  C   UNL     1       4.282   7.190  18.315  0.00  0.00    +0.000 C 
ATOM      9  C   UNL     1       5.547   7.343  17.471  0.00  0.00    +0.000 C 
ATOM     10  C   UNL     1       5.783   6.333  16.346  0.00  0.00    +0.000 C 
ATOM     11  C   UNL     1       5.425   4.864  16.712  0.00  0.00    +0.000 C 
ATOM     12  C   UNL     1       5.504   3.982  15.441  0.00  0.00    +0.000 C 
ATOM     13  C   UNL     1       2.221   5.844  19.081  0.00  0.00    +0.000 C 
ENDROOT
BRANCH  10  14
ATOM     14  O   UNL     1       7.152   6.457  15.922  0.00  0.00    +0.000 OA
ATOM     15  H   UNL     1       7.161   6.513  14.949  0.00  0.00    +0.000 HD
ENDBRANCH  10  14
BRANCH  11  16
ATOM     16  C   UNL     1       6.570   4.295  17.611  0.00  0.00    +0.000 C 
BRANCH  16  17
ATOM     17  O   UNL     1       7.768   4.048  16.884  0.00  0.00    +0.000 OA
ATOM     18  H   UNL     1       8.029   3.123  17.060  0.00  0.00    +0.000 HD
ENDBRANCH  16  17
ENDBRANCH  11  16
BRANCH  13  19
ATOM     19  C   UNL     1       2.073   6.809  20.321  0.00  0.00    +0.000 C 
BRANCH  19  20
ATOM     20  C   UNL     1       1.736   8.306  20.135  0.00  0.00    +0.000 C 
BRANCH  20  21
ATOM     21  C   UNL     1       0.919   8.782  21.294  0.00  0.00    +0.000 C 
ATOM     22  C   UNL     1      -0.402   8.800  21.506  0.00  0.00    +0.000 C 
ATOM     23  C   UNL     1      -0.720   9.328  22.842  0.00  0.00    +0.000 C 
ATOM     24  O   UNL     1       0.549   9.646  23.401  0.00  0.00    +0.000 OA
ATOM     25  C   UNL     1       1.522   9.354  22.502  0.00  0.00    +0.000 C 
ATOM     26  O   UNL     1       2.721   9.532  22.680  0.00  0.00    +0.000 OA
ENDBRANCH  20  21
BRANCH  20  27
ATOM     27  O   UNL     1       0.904   8.442  18.932  0.00  0.00    +0.000 OA
BRANCH  27  28
ATOM     28  C   UNL     1       0.764   9.683  18.356  0.00  0.00    +0.000 C 
ATOM     29  O   UNL     1      -0.287  10.244  18.176  0.00  0.00    +0.000 OA
BRANCH  28  30
ATOM     30  C   UNL     1       2.142  10.228  17.969  0.00  0.00    +0.000 C 
ATOM     31  C   UNL     1       2.291  11.736  18.139  0.00  0.00    +0.000 C 
ENDBRANCH  28  30
ENDBRANCH  27  28
ENDBRANCH  20  27
ENDBRANCH  19  20
ENDBRANCH  13  19
TORSDOF 9
ENDMDL
MODEL 3
REMARK VINA RESULT:      -7.0      1.811      7.269
REMARK  Name = 
REMARK  12 active torsions:
REMARK  status: ('A' for Active; 'I' for Inactive)
REMARK    1  A    between atoms: C_6  and  C_7
REMARK    2  A    between atoms: C_10  and  O_11
REMARK    3  A    between atoms: C_12  and  C_13
REMARK    4  A    between atoms: C_12  and  C_14
REMARK    5  A    between atoms: C_14  and  O_15
REMARK    6  A    between atoms: C_16  and  C_17
REMARK    7  A    between atoms: C_17  and  C_18
REMARK    8  A    between atoms: C_18  and  O_19
REMARK    9  A    between atoms: C_18  and  C_24
REMARK   10  A    between atoms: O_19  and  C_20
REMARK   11  A    between atoms: C_20  and  C_22
REMARK   12  A    between atoms: C_22  and  C_23
REMARK                            x       y       z     vdW  Elec       q    Type
REMARK                         _______ _______ _______ _____ _____    ______ ____
ROOT
ATOM      1  C   UNL     1       2.072   4.875  18.129  0.00  0.00    +0.000 C 
ATOM      2  C   UNL     1       2.619   5.843  18.894  0.00  0.00    +0.000 C 
ATOM      3  C   UNL     1       2.236   5.994  20.347  0.00  0.00    +0.000 C 
ATOM      4  C   UNL     1       1.319   7.212  20.575  0.00  0.00    +0.000 C 
ATOM      5  C   UNL     1       1.732   8.504  19.831  0.00  0.00    +0.000 C 
ATOM      6  C   UNL     1       2.272   8.234  18.375  0.00  0.00    +0.000 C 
ATOM      7  C   UNL     1       1.115   7.748  17.470  0.00  0.00    +0.000 C 
ATOM      8  C   UNL     1       2.914   9.546  17.845  0.00  0.00    +0.000 C 
ATOM      9  C   UNL     1       2.220  10.871  18.158  0.00  0.00    +0.000 C 
ATOM     10  C   UNL     1       1.487  10.995  19.495  0.00  0.00    +0.000 C 
ATOM     11  C   UNL     1       0.680   9.731  19.907  0.00  0.00    +0.000 C 
ATOM     12  C   UNL     1       0.164   9.900  21.358  0.00  0.00    +0.000 C 
ATOM     13  C   UNL     1       3.358   7.052  18.328  0.00  0.00    +0.000 C 
ENDROOT
BRANCH  10  14
ATOM     14  O   UNL     1       0.649  12.163  19.431  0.00  0.00    +0.000 OA
ATOM     15  H   UNL     1       1.175  12.889  19.049  0.00  0.00    +0.000 HD
ENDBRANCH  10  14
BRANCH  11  16
ATOM     16  C   UNL     1      -0.635   9.697  19.064  0.00  0.00    +0.000 C 
BRANCH  16  17
ATOM     17  O   UNL     1      -1.590  10.658  19.497  0.00  0.00    +0.000 OA
ATOM     18  H   UNL     1      -1.130  11.275  20.100  0.00  0.00    +0.000 HD
ENDBRANCH  16  17
ENDBRANCH  11  16
BRANCH  13  19
ATOM     19  C   UNL     1       3.984   6.902  16.888  0.00  0.00    +0.000 C 
BRANCH  19  20
ATOM     20  C   UNL     1       5.066   5.837  16.592  0.00  0.00    +0.000 C 
BRANCH  20  21
ATOM     21  C   UNL     1       6.162   5.943  17.603  0.00  0.00    +0.000 C 
ATOM     22  C   UNL     1       7.162   6.822  17.743  0.00  0.00    +0.000 C 
ATOM     23  C   UNL     1       7.963   6.529  18.943  0.00  0.00    +0.000 C 
ATOM     24  O   UNL     1       7.351   5.370  19.495  0.00  0.00    +0.000 OA
ATOM     25  C   UNL     1       6.308   4.997  18.713  0.00  0.00    +0.000 C 
ATOM     26  O   UNL     1       5.590   4.024  18.914  0.00  0.00    +0.000 OA
ENDBRANCH  20  21
BRANCH  20  27
ATOM     27  O   UNL     1       5.653   6.134  15.279  0.00  0.00    +0.000 OA
BRANCH  27  28
ATOM     28  C   UNL     1       6.498   5.213  14.704  0.00  0.00    +0.000 C 
ATOM     29  O   UNL     1       7.682   5.371  14.543  0.00  0.00    +0.000 OA
BRANCH  28  30
ATOM     30  C   UNL     1       5.701   3.972  14.291  0.00  0.00    +0.000 C 
ATOM     31  C   UNL     1       5.911   3.545  12.843  0.00  0.00    +0.000 C 
ENDBRANCH  28  30
ENDBRANCH  27  28
ENDBRANCH  20  27
ENDBRANCH  19  20
ENDBRANCH  13  19
TORSDOF 9
ENDMDL
MODEL 4
REMARK VINA RESULT:      -6.9      1.366      2.760
REMARK  Name = 
REMARK  12 active torsions:
REMARK  status: ('A' for Active; 'I' for Inactive)
REMARK    1  A    between atoms: C_6  and  C_7
REMARK    2  A    between atoms: C_10  and  O_11
REMARK    3  A    between atoms: C_12  and  C_13
REMARK    4  A    between atoms: C_12  and  C_14
REMARK    5  A    between atoms: C_14  and  O_15
REMARK    6  A    between atoms: C_16  and  C_17
REMARK    7  A    between atoms: C_17  and  C_18
REMARK    8  A    between atoms: C_18  and  O_19
REMARK    9  A    between atoms: C_18  and  C_24
REMARK   10  A    between atoms: O_19  and  C_20
REMARK   11  A    between atoms: C_20  and  C_22
REMARK   12  A    between atoms: C_22  and  C_23
REMARK                            x       y       z     vdW  Elec       q    Type
REMARK                         _______ _______ _______ _____ _____    ______ ____
ROOT
ATOM      1  C   UNL     1       1.830   5.254  20.383  0.00  0.00    +0.000 C 
ATOM      2  C   UNL     1       1.913   5.389  19.042  0.00  0.00    +0.000 C 
ATOM      3  C   UNL     1       1.811   4.187  18.133  0.00  0.00    +0.000 C 
ATOM      4  C   UNL     1       3.181   3.795  17.545  0.00  0.00    +0.000 C 
ATOM      5  C   UNL     1       4.048   4.972  17.039  0.00  0.00    +0.000 C 
ATOM      6  C   UNL     1       3.967   6.244  17.967  0.00  0.00    +0.000 C 
ATOM      7  C   UNL     1       4.657   5.949  19.320  0.00  0.00    +0.000 C 
ATOM      8  C   UNL     1       4.633   7.432  17.220  0.00  0.00    +0.000 C 
ATOM      9  C   UNL     1       5.907   7.163  16.419  0.00  0.00    +0.000 C 
ATOM     10  C   UNL     1       6.048   5.800  15.738  0.00  0.00    +0.000 C 
ATOM     11  C   UNL     1       5.558   4.598  16.594  0.00  0.00    +0.000 C 
ATOM     12  C   UNL     1       5.555   3.315  15.727  0.00  0.00    +0.000 C 
ATOM     13  C   UNL     1       2.457   6.634  18.349  0.00  0.00    +0.000 C 
ENDROOT
BRANCH  10  14
ATOM     14  O   UNL     1       7.423   5.646  15.343  0.00  0.00    +0.000 OA
ATOM     15  H   UNL     1       7.841   6.526  15.359  0.00  0.00    +0.000 HD
ENDBRANCH  10  14
BRANCH  11  16
ATOM     16  C   UNL     1       6.646   4.294  17.674  0.00  0.00    +0.000 C 
BRANCH  16  17
ATOM     17  O   UNL     1       7.927   4.044  17.108  0.00  0.00    +0.000 OA
ATOM     18  H   UNL     1       8.208   4.862  16.652  0.00  0.00    +0.000 HD
ENDBRANCH  16  17
ENDBRANCH  11  16
BRANCH  13  19
ATOM     19  C   UNL     1       2.399   7.988  19.156  0.00  0.00    +0.000 C 
BRANCH  19  20
ATOM     20  C   UNL     1       1.059   8.544  19.692  0.00  0.00    +0.000 C 
BRANCH  20  21
ATOM     21  C   UNL     1       0.886   9.958  19.238  0.00  0.00    +0.000 C 
ATOM     22  C   UNL     1       1.767  10.951  19.061  0.00  0.00    +0.000 C 
ATOM     23  C   UNL     1       1.107  12.161  18.545  0.00  0.00    +0.000 C 
ATOM     24  O   UNL     1      -0.265  11.797  18.453  0.00  0.00    +0.000 OA
ATOM     25  C   UNL     1      -0.419  10.517  18.875  0.00  0.00    +0.000 C 
ATOM     26  O   UNL     1      -1.487   9.918  18.931  0.00  0.00    +0.000 OA
ENDBRANCH  20  21
BRANCH  20  27
ATOM     27  O   UNL     1       1.126   8.562  21.160  0.00  0.00    +0.000 OA
BRANCH  27  28
ATOM     28  C   UNL     1      -0.045   8.594  21.879  0.00  0.00    +0.000 C 
ATOM     29  O   UNL     1      -1.020   7.927  21.639  0.00  0.00    +0.000 OA
BRANCH  28  30
ATOM     30  C   UNL     1       0.077   9.614  23.016  0.00  0.00    +0.000 C 
ATOM     31  C   UNL     1      -0.876  10.798  22.902  0.00  0.00    +0.000 C 
ENDBRANCH  28  30
ENDBRANCH  27  28
ENDBRANCH  20  27
ENDBRANCH  19  20
ENDBRANCH  13  19
TORSDOF 9
ENDMDL
MODEL 5
REMARK VINA RESULT:      -6.9      3.613      6.915
REMARK  Name = 
REMARK  12 active torsions:
REMARK  status: ('A' for Active; 'I' for Inactive)
REMARK    1  A    between atoms: C_6  and  C_7
REMARK    2  A    between atoms: C_10  and  O_11
REMARK    3  A    between atoms: C_12  and  C_13
REMARK    4  A    between atoms: C_12  and  C_14
REMARK    5  A    between atoms: C_14  and  O_15
REMARK    6  A    between atoms: C_16  and  C_17
REMARK    7  A    between atoms: C_17  and  C_18
REMARK    8  A    between atoms: C_18  and  O_19
REMARK    9  A    between atoms: C_18  and  C_24
REMARK   10  A    between atoms: O_19  and  C_20
REMARK   11  A    between atoms: C_20  and  C_22
REMARK   12  A    between atoms: C_22  and  C_23
REMARK                            x       y       z     vdW  Elec       q    Type
REMARK                         _______ _______ _______ _____ _____    ______ ____
ROOT
ATOM      1  C   UNL     1       4.496   7.854  18.273  0.00  0.00    +0.000 C 
ATOM      2  C   UNL     1       3.559   7.054  17.722  0.00  0.00    +0.000 C 
ATOM      3  C   UNL     1       2.118   7.122  18.172  0.00  0.00    +0.000 C 
ATOM      4  C   UNL     1       1.733   5.911  19.045  0.00  0.00    +0.000 C 
ATOM      5  C   UNL     1       2.234   4.538  18.536  0.00  0.00    +0.000 C 
ATOM      6  C   UNL     1       3.690   4.596  17.935  0.00  0.00    +0.000 C 
ATOM      7  C   UNL     1       4.712   4.866  19.064  0.00  0.00    +0.000 C 
ATOM      8  C   UNL     1       3.968   3.251  17.208  0.00  0.00    +0.000 C 
ATOM      9  C   UNL     1       3.470   1.960  17.857  0.00  0.00    +0.000 C 
ATOM     10  C   UNL     1       2.164   2.016  18.652  0.00  0.00    +0.000 C 
ATOM     11  C   UNL     1       2.001   3.287  19.534  0.00  0.00    +0.000 C 
ATOM     12  C   UNL     1       0.566   3.329  20.116  0.00  0.00    +0.000 C 
ATOM     13  C   UNL     1       3.885   5.809  16.902  0.00  0.00    +0.000 C 
ENDROOT
BRANCH  10  14
ATOM     14  O   UNL     1       2.070   0.811  19.432  0.00  0.00    +0.000 OA
ATOM     15  H   UNL     1       2.741   0.856  20.137  0.00  0.00    +0.000 HD
ENDBRANCH  10  14
BRANCH  11  16
ATOM     16  C   UNL     1       2.895   3.113  20.804  0.00  0.00    +0.000 C 
BRANCH  16  17
ATOM     17  O   UNL     1       2.179   3.334  22.014  0.00  0.00    +0.000 OA
ATOM     18  H   UNL     1       1.282   3.638  21.770  0.00  0.00    +0.000 HD
ENDBRANCH  16  17
ENDBRANCH  11  16
BRANCH  13  19
ATOM     19  C   UNL     1       5.301   5.756  16.210  0.00  0.00    +0.000 C 
BRANCH  19  20
ATOM     20  C   UNL     1       6.549   5.255  16.976  0.00  0.00    +0.000 C 
BRANCH  20  21
ATOM     21  C   UNL     1       7.314   6.425  17.505  0.00  0.00    +0.000 C 
ATOM     22  C   UNL     1       7.499   7.661  17.023  0.00  0.00    +0.000 C 
ATOM     23  C   UNL     1       8.302   8.477  17.947  0.00  0.00    +0.000 C 
ATOM     24  O   UNL     1       8.598   7.594  19.023  0.00  0.00    +0.000 OA
ATOM     25  C   UNL     1       8.047   6.381  18.773  0.00  0.00    +0.000 C 
ATOM     26  O   UNL     1       8.140   5.402  19.505  0.00  0.00    +0.000 OA
ENDBRANCH  20  21
BRANCH  20  27
ATOM     27  O   UNL     1       7.422   4.558  16.021  0.00  0.00    +0.000 OA
BRANCH  27  28
ATOM     28  C   UNL     1       7.231   4.762  14.675  0.00  0.00    +0.000 C 
ATOM     29  O   UNL     1       7.792   5.604  14.019  0.00  0.00    +0.000 OA
BRANCH  28  30
ATOM     30  C   UNL     1       6.191   3.769  14.147  0.00  0.00    +0.000 C 
ATOM     31  C   UNL     1       6.227   3.566  12.637  0.00  0.00    +0.000 C 
ENDBRANCH  28  30
ENDBRANCH  27  28
ENDBRANCH  20  27
ENDBRANCH  19  20
ENDBRANCH  13  19
TORSDOF 9
ENDMDL
MODEL 6
REMARK VINA RESULT:      -6.8      1.250      2.824
REMARK  Name = 
REMARK  12 active torsions:
REMARK  status: ('A' for Active; 'I' for Inactive)
REMARK    1  A    between atoms: C_6  and  C_7
REMARK    2  A    between atoms: C_10  and  O_11
REMARK    3  A    between atoms: C_12  and  C_13
REMARK    4  A    between atoms: C_12  and  C_14
REMARK    5  A    between atoms: C_14  and  O_15
REMARK    6  A    between atoms: C_16  and  C_17
REMARK    7  A    between atoms: C_17  and  C_18
REMARK    8  A    between atoms: C_18  and  O_19
REMARK    9  A    between atoms: C_18  and  C_24
REMARK   10  A    between atoms: O_19  and  C_20
REMARK   11  A    between atoms: C_20  and  C_22
REMARK   12  A    between atoms: C_22  and  C_23
REMARK                            x       y       z     vdW  Elec       q    Type
REMARK                         _______ _______ _______ _____ _____    ______ ____
ROOT
ATOM      1  C   UNL     1       2.138   4.567  20.671  0.00  0.00    +0.000 C 
ATOM      2  C   UNL     1       2.125   4.906  19.364  0.00  0.00    +0.000 C 
ATOM      3  C   UNL     1       1.989   3.853  18.290  0.00  0.00    +0.000 C 
ATOM      4  C   UNL     1       3.325   3.602  17.561  0.00  0.00    +0.000 C 
ATOM      5  C   UNL     1       4.126   4.872  17.187  0.00  0.00    +0.000 C 
ATOM      6  C   UNL     1       4.078   5.985  18.303  0.00  0.00    +0.000 C 
ATOM      7  C   UNL     1       4.867   5.512  19.547  0.00  0.00    +0.000 C 
ATOM      8  C   UNL     1       4.663   7.295  17.706  0.00  0.00    +0.000 C 
ATOM      9  C   UNL     1       5.884   7.194  16.793  0.00  0.00    +0.000 C 
ATOM     10  C   UNL     1       6.012   5.956  15.903  0.00  0.00    +0.000 C 
ATOM     11  C   UNL     1       5.610   4.622  16.594  0.00  0.00    +0.000 C 
ATOM     12  C   UNL     1       5.579   3.486  15.542  0.00  0.00    +0.000 C 
ATOM     13  C   UNL     1       2.590   6.260  18.837  0.00  0.00    +0.000 C 
ENDROOT
BRANCH  10  14
ATOM     14  O   UNL     1       7.359   5.911  15.402  0.00  0.00    +0.000 OA
ATOM     15  H   UNL     1       7.455   5.099  14.872  0.00  0.00    +0.000 HD
ENDBRANCH  10  14
BRANCH  11  16
ATOM     16  C   UNL     1       6.777   4.196  17.542  0.00  0.00    +0.000 C 
BRANCH  16  17
ATOM     17  O   UNL     1       8.001   3.985  16.847  0.00  0.00    +0.000 OA
ATOM     18  H   UNL     1       7.883   4.329  15.940  0.00  0.00    +0.000 HD
ENDBRANCH  16  17
ENDBRANCH  11  16
BRANCH  13  19
ATOM     19  C   UNL     1       2.554   7.474  19.844  0.00  0.00    +0.000 C 
BRANCH  19  20
ATOM     20  C   UNL     1       1.251   8.268  20.096  0.00  0.00    +0.000 C 
BRANCH  20  21
ATOM     21  C   UNL     1       1.340   9.600  19.422  0.00  0.00    +0.000 C 
ATOM     22  C   UNL     1       1.178  10.846  19.885  0.00  0.00    +0.000 C 
ATOM     23  C   UNL     1       1.422  11.842  18.829  0.00  0.00    +0.000 C 
ATOM     24  O   UNL     1       1.726  11.062  17.679  0.00  0.00    +0.000 OA
ATOM     25  C   UNL     1       1.663   9.746  17.999  0.00  0.00    +0.000 C 
ATOM     26  O   UNL     1       1.858   8.821  17.219  0.00  0.00    +0.000 OA
ENDBRANCH  20  21
BRANCH  20  27
ATOM     27  O   UNL     1       1.138   8.517  21.539  0.00  0.00    +0.000 OA
BRANCH  27  28
ATOM     28  C   UNL     1      -0.113   8.619  22.100  0.00  0.00    +0.000 C 
ATOM     29  O   UNL     1      -1.090   8.027  21.718  0.00  0.00    +0.000 OA
BRANCH  28  30
ATOM     30  C   UNL     1      -0.072   9.608  23.269  0.00  0.00    +0.000 C 
ATOM     31  C   UNL     1      -0.975  10.824  23.095  0.00  0.00    +0.000 C 
ENDBRANCH  28  30
ENDBRANCH  27  28
ENDBRANCH  20  27
ENDBRANCH  19  20
ENDBRANCH  13  19
TORSDOF 9
ENDMDL
MODEL 7
REMARK VINA RESULT:      -6.8      1.850      7.233
REMARK  Name = 
REMARK  12 active torsions:
REMARK  status: ('A' for Active; 'I' for Inactive)
REMARK    1  A    between atoms: C_6  and  C_7
REMARK    2  A    between atoms: C_10  and  O_11
REMARK    3  A    between atoms: C_12  and  C_13
REMARK    4  A    between atoms: C_12  and  C_14
REMARK    5  A    between atoms: C_14  and  O_15
REMARK    6  A    between atoms: C_16  and  C_17
REMARK    7  A    between atoms: C_17  and  C_18
REMARK    8  A    between atoms: C_18  and  O_19
REMARK    9  A    between atoms: C_18  and  C_24
REMARK   10  A    between atoms: O_19  and  C_20
REMARK   11  A    between atoms: C_20  and  C_22
REMARK   12  A    between atoms: C_22  and  C_23
REMARK                            x       y       z     vdW  Elec       q    Type
REMARK                         _______ _______ _______ _____ _____    ______ ____
ROOT
ATOM      1  C   UNL     1       2.077   5.042  18.233  0.00  0.00    +0.000 C 
ATOM      2  C   UNL     1       2.600   6.035  18.983  0.00  0.00    +0.000 C 
ATOM      3  C   UNL     1       2.185   6.221  20.423  0.00  0.00    +0.000 C 
ATOM      4  C   UNL     1       1.252   7.436  20.599  0.00  0.00    +0.000 C 
ATOM      5  C   UNL     1       1.670   8.712  19.830  0.00  0.00    +0.000 C 
ATOM      6  C   UNL     1       2.243   8.408  18.393  0.00  0.00    +0.000 C 
ATOM      7  C   UNL     1       1.110   7.888  17.477  0.00  0.00    +0.000 C 
ATOM      8  C   UNL     1       2.885   9.711  17.842  0.00  0.00    +0.000 C 
ATOM      9  C   UNL     1       2.173  11.038  18.106  0.00  0.00    +0.000 C 
ATOM     10  C   UNL     1       1.410  11.191  19.423  0.00  0.00    +0.000 C 
ATOM     11  C   UNL     1       0.606   9.930  19.852  0.00  0.00    +0.000 C 
ATOM     12  C   UNL     1       0.057  10.133  21.286  0.00  0.00    +0.000 C 
ATOM     13  C   UNL     1       3.340   7.236  18.401  0.00  0.00    +0.000 C 
ENDROOT
BRANCH  10  14
ATOM     14  O   UNL     1       0.564  12.348  19.310  0.00  0.00    +0.000 OA
ATOM     15  H   UNL     1       0.955  12.943  18.644  0.00  0.00    +0.000 HD
ENDBRANCH  10  14
BRANCH  11  16
ATOM     16  C   UNL     1      -0.690   9.862  18.982  0.00  0.00    +0.000 C 
BRANCH  16  17
ATOM     17  O   UNL     1      -1.664  10.823  19.371  0.00  0.00    +0.000 OA
ATOM     18  H   UNL     1      -2.080  11.163  18.554  0.00  0.00    +0.000 HD
ENDBRANCH  16  17
ENDBRANCH  11  16
BRANCH  13  19
ATOM     19  C   UNL     1       3.998   7.053  16.979  0.00  0.00    +0.000 C 
BRANCH  19  20
ATOM     20  C   UNL     1       5.044   5.944  16.717  0.00  0.00    +0.000 C 
BRANCH  20  21
ATOM     21  C   UNL     1       6.121   6.018  17.751  0.00  0.00    +0.000 C 
ATOM     22  C   UNL     1       6.377   5.264  18.827  0.00  0.00    +0.000 C 
ATOM     23  C   UNL     1       7.599   5.713  19.513  0.00  0.00    +0.000 C 
ATOM     24  O   UNL     1       8.037   6.830  18.748  0.00  0.00    +0.000 OA
ATOM     25  C   UNL     1       7.173   7.039  17.724  0.00  0.00    +0.000 C 
ATOM     26  O   UNL     1       7.267   7.938  16.896  0.00  0.00    +0.000 OA
ENDBRANCH  20  21
BRANCH  20  27
ATOM     27  O   UNL     1       5.671   6.206  15.414  0.00  0.00    +0.000 OA
BRANCH  27  28
ATOM     28  C   UNL     1       6.443   5.224  14.839  0.00  0.00    +0.000 C 
ATOM     29  O   UNL     1       7.641   5.272  14.718  0.00  0.00    +0.000 OA
BRANCH  28  30
ATOM     30  C   UNL     1       5.546   4.077  14.365  0.00  0.00    +0.000 C 
ATOM     31  C   UNL     1       5.813   3.621  12.935  0.00  0.00    +0.000 C 
ENDBRANCH  28  30
ENDBRANCH  27  28
ENDBRANCH  20  27
ENDBRANCH  19  20
ENDBRANCH  13  19
TORSDOF 9
ENDMDL
MODEL 8
REMARK VINA RESULT:      -6.8      3.720      8.002
REMARK  Name = 
REMARK  12 active torsions:
REMARK  status: ('A' for Active; 'I' for Inactive)
REMARK    1  A    between atoms: C_6  and  C_7
REMARK    2  A    between atoms: C_10  and  O_11
REMARK    3  A    between atoms: C_12  and  C_13
REMARK    4  A    between atoms: C_12  and  C_14
REMARK    5  A    between atoms: C_14  and  O_15
REMARK    6  A    between atoms: C_16  and  C_17
REMARK    7  A    between atoms: C_17  and  C_18
REMARK    8  A    between atoms: C_18  and  O_19
REMARK    9  A    between atoms: C_18  and  C_24
REMARK   10  A    between atoms: O_19  and  C_20
REMARK   11  A    between atoms: C_20  and  C_22
REMARK   12  A    between atoms: C_22  and  C_23
REMARK                            x       y       z     vdW  Elec       q    Type
REMARK                         _______ _______ _______ _____ _____    ______ ____
ROOT
ATOM      1  C   UNL     1       5.169   7.252  17.659  0.00  0.00    +0.000 C 
ATOM      2  C   UNL     1       4.075   6.558  17.279  0.00  0.00    +0.000 C 
ATOM      3  C   UNL     1       2.690   7.020  17.663  0.00  0.00    +0.000 C 
ATOM      4  C   UNL     1       2.081   6.144  18.776  0.00  0.00    +0.000 C 
ATOM      5  C   UNL     1       2.277   4.619  18.604  0.00  0.00    +0.000 C 
ATOM      6  C   UNL     1       3.701   4.238  18.044  0.00  0.00    +0.000 C 
ATOM      7  C   UNL     1       4.781   4.541  19.110  0.00  0.00    +0.000 C 
ATOM      8  C   UNL     1       3.680   2.736  17.647  0.00  0.00    +0.000 C 
ATOM      9  C   UNL     1       2.940   1.756  18.556  0.00  0.00    +0.000 C 
ATOM     10  C   UNL     1       1.691   2.258  19.283  0.00  0.00    +0.000 C 
ATOM     11  C   UNL     1       1.813   3.701  19.852  0.00  0.00    +0.000 C 
ATOM     12  C   UNL     1       0.430   4.168  20.371  0.00  0.00    +0.000 C 
ATOM     13  C   UNL     1       4.120   5.120  16.770  0.00  0.00    +0.000 C 
ENDROOT
BRANCH  10  14
ATOM     14  O   UNL     1       1.367   1.307  20.312  0.00  0.00    +0.000 OA
ATOM     15  H   UNL     1       1.972   0.548  20.222  0.00  0.00    +0.000 HD
ENDBRANCH  10  14
BRANCH  11  16
ATOM     16  C   UNL     1       2.678   3.639  21.151  0.00  0.00    +0.000 C 
BRANCH  16  17
ATOM     17  O   UNL     1       1.941   3.187  22.281  0.00  0.00    +0.000 OA
ATOM     18  H   UNL     1       2.507   2.551  22.762  0.00  0.00    +0.000 HD
ENDBRANCH  16  17
ENDBRANCH  11  16
BRANCH  13  19
ATOM     19  C   UNL     1       5.480   4.622  16.145  0.00  0.00    +0.000 C 
BRANCH  19  20
ATOM     20  C   UNL     1       6.277   5.502  15.154  0.00  0.00    +0.000 C 
BRANCH  20  21
ATOM     21  C   UNL     1       6.511   4.742  13.887  0.00  0.00    +0.000 C 
ATOM     22  C   UNL     1       5.871   3.700  13.343  0.00  0.00    +0.000 C 
ATOM     23  C   UNL     1       6.457   3.337  12.042  0.00  0.00    +0.000 C 
ATOM     24  O   UNL     1       7.529   4.258  11.875  0.00  0.00    +0.000 OA
ATOM     25  C   UNL     1       7.591   5.076  12.955  0.00  0.00    +0.000 C 
ATOM     26  O   UNL     1       8.419   5.965  13.117  0.00  0.00    +0.000 OA
ENDBRANCH  20  21
BRANCH  20  27
ATOM     27  O   UNL     1       7.593   5.779  15.745  0.00  0.00    +0.000 OA
BRANCH  27  28
ATOM     28  C   UNL     1       7.893   5.251  16.979  0.00  0.00    +0.000 C 
ATOM     29  O   UNL     1       8.144   4.092  17.190  0.00  0.00    +0.000 OA
BRANCH  28  30
ATOM     30  C   UNL     1       7.842   6.358  18.037  0.00  0.00    +0.000 C 
ATOM     31  C   UNL     1       8.103   5.877  19.460  0.00  0.00    +0.000 C 
ENDBRANCH  28  30
ENDBRANCH  27  28
ENDBRANCH  20  27
ENDBRANCH  19  20
ENDBRANCH  13  19
TORSDOF 9
ENDMDL
MODEL 9
REMARK VINA RESULT:      -6.7      2.261      7.793
REMARK  Name = 
REMARK  12 active torsions:
REMARK  status: ('A' for Active; 'I' for Inactive)
REMARK    1  A    between atoms: C_6  and  C_7
REMARK    2  A    between atoms: C_10  and  O_11
REMARK    3  A    between atoms: C_12  and  C_13
REMARK    4  A    between atoms: C_12  and  C_14
REMARK    5  A    between atoms: C_14  and  O_15
REMARK    6  A    between atoms: C_16  and  C_17
REMARK    7  A    between atoms: C_17  and  C_18
REMARK    8  A    between atoms: C_18  and  O_19
REMARK    9  A    between atoms: C_18  and  C_24
REMARK   10  A    between atoms: O_19  and  C_20
REMARK   11  A    between atoms: C_20  and  C_22
REMARK   12  A    between atoms: C_22  and  C_23
REMARK                            x       y       z     vdW  Elec       q    Type
REMARK                         _______ _______ _______ _____ _____    ______ ____
ROOT
ATOM      1  C   UNL     1       2.376   9.105  17.749  0.00  0.00    +0.000 C 
ATOM      2  C   UNL     1       1.161   8.885  18.294  0.00  0.00    +0.000 C 
ATOM      3  C   UNL     1      -0.068   9.585  17.762  0.00  0.00    +0.000 C 
ATOM      4  C   UNL     1      -0.545  10.704  18.708  0.00  0.00    +0.000 C 
ATOM      5  C   UNL     1      -0.553  10.344  20.213  0.00  0.00    +0.000 C 
ATOM      6  C   UNL     1       0.689   9.475  20.647  0.00  0.00    +0.000 C 
ATOM      7  C   UNL     1       1.978  10.327  20.569  0.00  0.00    +0.000 C 
ATOM      8  C   UNL     1       0.429   8.942  22.084  0.00  0.00    +0.000 C 
ATOM      9  C   UNL     1      -0.226   9.879  23.097  0.00  0.00    +0.000 C 
ATOM     10  C   UNL     1      -1.252  10.889  22.578  0.00  0.00    +0.000 C 
ATOM     11  C   UNL     1      -0.869  11.563  21.230  0.00  0.00    +0.000 C 
ATOM     12  C   UNL     1      -2.068  12.393  20.709  0.00  0.00    +0.000 C 
ATOM     13  C   UNL     1       0.951   8.237  19.659  0.00  0.00    +0.000 C 
ENDROOT
BRANCH  10  14
ATOM     14  O   UNL     1      -1.476  11.862  23.614  0.00  0.00    +0.000 OA
ATOM     15  H   UNL     1      -1.351  11.420  24.473  0.00  0.00    +0.000 HD
ENDBRANCH  10  14
BRANCH  11  16
ATOM     16  C   UNL     1       0.216  12.649  21.521  0.00  0.00    +0.000 C 
BRANCH  16  17
ATOM     17  O   UNL     1      -0.336  13.848  22.053  0.00  0.00    +0.000 OA
ATOM     18  H   UNL     1      -0.159  14.561  21.408  0.00  0.00    +0.000 HD
ENDBRANCH  16  17
ENDBRANCH  11  16
BRANCH  13  19
ATOM     19  C   UNL     1       2.105   7.305  20.197  0.00  0.00    +0.000 C 
BRANCH  19  20
ATOM     20  C   UNL     1       2.651   6.134  19.347  0.00  0.00    +0.000 C 
BRANCH  20  21
ATOM     21  C   UNL     1       2.038   4.851  19.812  0.00  0.00    +0.000 C 
ATOM     22  C   UNL     1       1.962   4.288  21.024  0.00  0.00    +0.000 C 
ATOM     23  C   UNL     1       1.203   3.027  20.978  0.00  0.00    +0.000 C 
ATOM     24  O   UNL     1       0.853   2.883  19.606  0.00  0.00    +0.000 OA
ATOM     25  C   UNL     1       1.351   3.929  18.903  0.00  0.00    +0.000 C 
ATOM     26  O   UNL     1       1.232   4.084  17.693  0.00  0.00    +0.000 OA
ENDBRANCH  20  21
BRANCH  20  27
ATOM     27  O   UNL     1       4.098   6.035  19.579  0.00  0.00    +0.000 OA
BRANCH  27  28
ATOM     28  C   UNL     1       4.827   5.120  18.855  0.00  0.00    +0.000 C 
ATOM     29  O   UNL     1       5.501   4.244  19.334  0.00  0.00    +0.000 OA
BRANCH  28  30
ATOM     30  C   UNL     1       4.659   5.399  17.358  0.00  0.00    +0.000 C 
ATOM     31  C   UNL     1       4.541   4.147  16.497  0.00  0.00    +0.000 C 
ENDBRANCH  28  30
ENDBRANCH  27  28
ENDBRANCH  20  27
ENDBRANCH  19  20
ENDBRANCH  13  19
TORSDOF 9
ENDMDL
