MODEL 1
REMARK VINA RESULT:      -8.5      0.000      0.000
REMARK  Name = 
REMARK  5 active torsions:
REMARK  status: ('A' for Active; 'I' for Inactive)
REMARK    1  A    between atoms: C_7  and  C_8
REMARK    2  A    between atoms: C_11  and  O_12
REMARK    3  A    between atoms: O_12  and  C_13
REMARK    4  A    between atoms: C_13  and  C_14
REMARK    5  A    between atoms: C_14  and  N_15
REMARK                            x       y       z     vdW  Elec       q    Type
REMARK                         _______ _______ _______ _____ _____    ______ ____
ROOT
ATOM      1  C   UNL     1       1.576   7.728  20.293  0.00  0.00    +0.000 A 
ATOM      2  C   UNL     1       1.959   8.471  19.175  0.00  0.00    +0.000 A 
ATOM      3  C   UNL     1       2.635   7.863  18.107  0.00  0.00    +0.000 A 
ATOM      4  C   UNL     1       2.953   6.507  18.160  0.00  0.00    +0.000 A 
ATOM      5  C   UNL     1       2.454   5.743  19.222  0.00  0.00    +0.000 A 
ATOM      6  C   UNL     1       1.778   6.347  20.291  0.00  0.00    +0.000 A 
ENDROOT
BRANCH   1  13
ATOM      7  O   UNL     1      -1.869  12.460  21.055  0.00  0.00    +0.000 OA
ATOM      8  C   UNL     1      -1.186  11.510  21.397  0.00  0.00    +0.000 C 
ATOM      9  N   UNL     1      -0.866  11.179  22.677  0.00  0.00    +0.000 N 
ATOM     10  C   UNL     1      -0.060  10.106  22.876  0.00  0.00    +0.000 C 
ATOM     11  O   UNL     1       0.334   9.709  23.956  0.00  0.00    +0.000 OA
ATOM     12  C   UNL     1       0.295   9.485  21.556  0.00  0.00    +0.000 C 
ATOM     13  C   UNL     1       1.099   8.417  21.494  0.00  0.00    +0.000 C 
ATOM     14  S   UNL     1      -0.450  10.364  20.286  0.00  0.00    +0.000 S 
ATOM     15  H   UNL     1      -1.184  11.735  23.450  0.00  0.00    +0.000 HD
ENDBRANCH   1  13
BRANCH   4  16
ATOM     16  O   UNL     1       3.753   5.823  17.285  0.00  0.00    +0.000 OA
BRANCH  16  17
ATOM     17  C   UNL     1       4.390   4.610  17.711  0.00  0.00    +0.000 C 
BRANCH  17  18
ATOM     18  C   UNL     1       4.805   3.674  16.541  0.00  0.00    +0.000 C 
BRANCH  18  19
ATOM     19  N   UNL     1       5.884   4.215  15.722  0.00  0.00    +0.000 N 
ATOM     20  C   UNL     1       6.954   4.884  16.259  0.00  0.00    +0.000 A 
ATOM     21  N   UNL     1       7.609   5.560  15.352  0.00  0.00    +0.000 NA
ATOM     22  C   UNL     1       7.176   5.035  14.167  0.00  0.00    +0.000 A 
ATOM     23  C   UNL     1       7.714   5.254  12.892  0.00  0.00    +0.000 A 
ATOM     24  C   UNL     1       7.334   4.402  11.857  0.00  0.00    +0.000 A 
ATOM     25  C   UNL     1       6.362   3.423  12.074  0.00  0.00    +0.000 A 
ATOM     26  C   UNL     1       5.700   3.289  13.315  0.00  0.00    +0.000 A 
ATOM     27  C   UNL     1       6.150   4.100  14.369  0.00  0.00    +0.000 A 
ENDBRANCH  18  19
ENDBRANCH  17  18
ENDBRANCH  16  17
ENDBRANCH   4  16
TORSDOF 5
ENDMDL
MODEL 2
REMARK VINA RESULT:      -8.4      5.842      8.076
REMARK  Name = 
REMARK  5 active torsions:
REMARK  status: ('A' for Active; 'I' for Inactive)
REMARK    1  A    between atoms: C_7  and  C_8
REMARK    2  A    between atoms: C_11  and  O_12
REMARK    3  A    between atoms: O_12  and  C_13
REMARK    4  A    between atoms: C_13  and  C_14
REMARK    5  A    between atoms: C_14  and  N_15
REMARK                            x       y       z     vdW  Elec       q    Type
REMARK                         _______ _______ _______ _____ _____    ______ ____
ROOT
ATOM      1  C   UNL     1       4.422   4.879  17.042  0.00  0.00    +0.000 A 
ATOM      2  C   UNL     1       4.257   6.263  17.134  0.00  0.00    +0.000 A 
ATOM      3  C   UNL     1       5.360   7.124  17.043  0.00  0.00    +0.000 A 
ATOM      4  C   UNL     1       6.643   6.605  16.880  0.00  0.00    +0.000 A 
ATOM      5  C   UNL     1       6.786   5.230  16.659  0.00  0.00    +0.000 A 
ATOM      6  C   UNL     1       5.686   4.366  16.750  0.00  0.00    +0.000 A 
ENDROOT
BRANCH   1  13
ATOM      7  O   UNL     1       2.140   3.183  22.215  0.00  0.00    +0.000 OA
ATOM      8  C   UNL     1       2.230   3.243  21.001  0.00  0.00    +0.000 C 
ATOM      9  N   UNL     1       1.468   2.553  20.110  0.00  0.00    +0.000 N 
ATOM     10  C   UNL     1       1.729   2.711  18.788  0.00  0.00    +0.000 C 
ATOM     11  O   UNL     1       1.154   2.140  17.881  0.00  0.00    +0.000 OA
ATOM     12  C   UNL     1       2.856   3.685  18.607  0.00  0.00    +0.000 C 
ATOM     13  C   UNL     1       3.309   3.992  17.385  0.00  0.00    +0.000 C 
ATOM     14  S   UNL     1       3.395   4.237  20.138  0.00  0.00    +0.000 S 
ATOM     15  H   UNL     1       0.757   1.916  20.422  0.00  0.00    +0.000 HD
ENDBRANCH   1  13
BRANCH   4  16
ATOM     16  O   UNL     1       7.819   7.302  16.950  0.00  0.00    +0.000 OA
BRANCH  16  17
ATOM     17  C   UNL     1       8.030   8.223  18.029  0.00  0.00    +0.000 C 
BRANCH  17  18
ATOM     18  C   UNL     1       8.464   9.643  17.568  0.00  0.00    +0.000 C 
BRANCH  18  19
ATOM     19  N   UNL     1       9.158  10.400  18.604  0.00  0.00    +0.000 N 
ATOM     20  C   UNL     1       9.087  10.069  19.934  0.00  0.00    +0.000 A 
ATOM     21  N   UNL     1       9.491  11.048  20.700  0.00  0.00    +0.000 NA
ATOM     22  C   UNL     1      10.167  11.879  19.852  0.00  0.00    +0.000 A 
ATOM     23  C   UNL     1      10.980  12.968  20.194  0.00  0.00    +0.000 A 
ATOM     24  C   UNL     1      11.820  13.501  19.220  0.00  0.00    +0.000 A 
ATOM     25  C   UNL     1      11.770  13.020  17.909  0.00  0.00    +0.000 A 
ATOM     26  C   UNL     1      10.848  12.026  17.513  0.00  0.00    +0.000 A 
ATOM     27  C   UNL     1      10.064  11.443  18.523  0.00  0.00    +0.000 A 
ENDBRANCH  18  19
ENDBRANCH  17  18
ENDBRANCH  16  17
ENDBRANCH   4  16
TORSDOF 5
ENDMDL
MODEL 3
REMARK VINA RESULT:      -8.3      3.438      5.413
REMARK  Name = 
REMARK  5 active torsions:
REMARK  status: ('A' for Active; 'I' for Inactive)
REMARK    1  A    between atoms: C_7  and  C_8
REMARK    2  A    between atoms: C_11  and  O_12
REMARK    3  A    between atoms: O_12  and  C_13
REMARK    4  A    between atoms: C_13  and  C_14
REMARK    5  A    between atoms: C_14  and  N_15
REMARK                            x       y       z     vdW  Elec       q    Type
REMARK                         _______ _______ _______ _____ _____    ______ ____
ROOT
ATOM      1  C   UNL     1       1.397   9.339  18.857  0.00  0.00    +0.000 A 
ATOM      2  C   UNL     1       2.150   9.173  17.692  0.00  0.00    +0.000 A 
ATOM      3  C   UNL     1       3.039   8.096  17.561  0.00  0.00    +0.000 A 
ATOM      4  C   UNL     1       3.199   7.188  18.605  0.00  0.00    +0.000 A 
ATOM      5  C   UNL     1       2.349   7.285  19.714  0.00  0.00    +0.000 A 
ATOM      6  C   UNL     1       1.460   8.360  19.849  0.00  0.00    +0.000 A 
ENDROOT
BRANCH   1  13
ATOM      7  O   UNL     1      -3.744  11.363  16.781  0.00  0.00    +0.000 OA
ATOM      8  C   UNL     1      -2.721  11.386  17.443  0.00  0.00    +0.000 C 
ATOM      9  N   UNL     1      -2.292  12.424  18.210  0.00  0.00    +0.000 N 
ATOM     10  C   UNL     1      -1.105  12.296  18.853  0.00  0.00    +0.000 C 
ATOM     11  O   UNL     1      -0.581  13.146  19.547  0.00  0.00    +0.000 OA
ATOM     12  C   UNL     1      -0.516  10.945  18.565  0.00  0.00    +0.000 C 
ATOM     13  C   UNL     1       0.669  10.589  19.078  0.00  0.00    +0.000 C 
ATOM     14  S   UNL     1      -1.563  10.068  17.529  0.00  0.00    +0.000 S 
ATOM     15  H   UNL     1      -2.819  13.277  18.268  0.00  0.00    +0.000 HD
ENDBRANCH   1  13
BRANCH   4  16
ATOM     16  O   UNL     1       4.144   6.201  18.689  0.00  0.00    +0.000 OA
BRANCH  16  17
ATOM     17  C   UNL     1       4.692   5.644  17.486  0.00  0.00    +0.000 C 
BRANCH  17  18
ATOM     18  C   UNL     1       4.362   4.138  17.284  0.00  0.00    +0.000 C 
BRANCH  18  19
ATOM     19  N   UNL     1       3.112   3.730  17.914  0.00  0.00    +0.000 N 
ATOM     20  C   UNL     1       1.965   3.497  17.197  0.00  0.00    +0.000 A 
ATOM     21  N   UNL     1       0.908   3.475  17.966  0.00  0.00    +0.000 NA
ATOM     22  C   UNL     1       1.415   3.333  19.227  0.00  0.00    +0.000 A 
ATOM     23  C   UNL     1       0.707   3.045  20.401  0.00  0.00    +0.000 A 
ATOM     24  C   UNL     1       1.423   2.640  21.525  0.00  0.00    +0.000 A 
ATOM     25  C   UNL     1       2.820   2.626  21.500  0.00  0.00    +0.000 A 
ATOM     26  C   UNL     1       3.552   3.059  20.372  0.00  0.00    +0.000 A 
ATOM     27  C   UNL     1       2.816   3.387  19.222  0.00  0.00    +0.000 A 
ENDBRANCH  18  19
ENDBRANCH  17  18
ENDBRANCH  16  17
ENDBRANCH   4  16
TORSDOF 5
ENDMDL
MODEL 4
REMARK VINA RESULT:      -8.3      2.458      3.655
REMARK  Name = 
REMARK  5 active torsions:
REMARK  status: ('A' for Active; 'I' for Inactive)
REMARK    1  A    between atoms: C_7  and  C_8
REMARK    2  A    between atoms: C_11  and  O_12
REMARK    3  A    between atoms: O_12  and  C_13
REMARK    4  A    between atoms: C_13  and  C_14
REMARK    5  A    between atoms: C_14  and  N_15
REMARK                            x       y       z     vdW  Elec       q    Type
REMARK                         _______ _______ _______ _____ _____    ______ ____
ROOT
ATOM      1  C   UNL     1       0.276  10.008  19.806  0.00  0.00    +0.000 A 
ATOM      2  C   UNL     1       0.556   9.185  20.900  0.00  0.00    +0.000 A 
ATOM      3  C   UNL     1       1.436   8.101  20.774  0.00  0.00    +0.000 A 
ATOM      4  C   UNL     1       2.029   7.818  19.545  0.00  0.00    +0.000 A 
ATOM      5  C   UNL     1       1.847   8.720  18.490  0.00  0.00    +0.000 A 
ATOM      6  C   UNL     1       0.967   9.804  18.611  0.00  0.00    +0.000 A 
ENDROOT
BRANCH   1  13
ATOM      7  O   UNL     1      -4.427  10.967  16.371  0.00  0.00    +0.000 OA
ATOM      8  C   UNL     1      -3.688  11.139  17.325  0.00  0.00    +0.000 C 
ATOM      9  N   UNL     1      -3.824  12.104  18.274  0.00  0.00    +0.000 N 
ATOM     10  C   UNL     1      -2.885  12.176  19.251  0.00  0.00    +0.000 C 
ATOM     11  O   UNL     1      -2.857  13.000  20.145  0.00  0.00    +0.000 OA
ATOM     12  C   UNL     1      -1.864  11.093  19.054  0.00  0.00    +0.000 C 
ATOM     13  C   UNL     1      -0.823  10.971  19.887  0.00  0.00    +0.000 C 
ATOM     14  S   UNL     1      -2.264  10.168  17.667  0.00  0.00    +0.000 S 
ATOM     15  H   UNL     1      -4.575  12.769  18.232  0.00  0.00    +0.000 HD
ENDBRANCH   1  13
BRANCH   4  16
ATOM     16  O   UNL     1       2.763   6.706  19.232  0.00  0.00    +0.000 OA
BRANCH  16  17
ATOM     17  C   UNL     1       2.253   5.773  18.268  0.00  0.00    +0.000 C 
BRANCH  17  18
ATOM     18  C   UNL     1       2.866   4.349  18.386  0.00  0.00    +0.000 C 
BRANCH  18  19
ATOM     19  N   UNL     1       4.305   4.318  18.151  0.00  0.00    +0.000 N 
ATOM     20  C   UNL     1       5.206   3.985  19.131  0.00  0.00    +0.000 A 
ATOM     21  N   UNL     1       6.423   4.341  18.813  0.00  0.00    +0.000 NA
ATOM     22  C   UNL     1       6.361   4.577  17.468  0.00  0.00    +0.000 A 
ATOM     23  C   UNL     1       7.433   4.781  16.590  0.00  0.00    +0.000 A 
ATOM     24  C   UNL     1       7.193   4.703  15.220  0.00  0.00    +0.000 A 
ATOM     25  C   UNL     1       5.891   4.527  14.744  0.00  0.00    +0.000 A 
ATOM     26  C   UNL     1       4.779   4.471  15.613  0.00  0.00    +0.000 A 
ATOM     27  C   UNL     1       5.047   4.471  16.992  0.00  0.00    +0.000 A 
ENDBRANCH  18  19
ENDBRANCH  17  18
ENDBRANCH  16  17
ENDBRANCH   4  16
TORSDOF 5
ENDMDL
MODEL 5
REMARK VINA RESULT:      -8.3      3.284      4.224
REMARK  Name = 
REMARK  5 active torsions:
REMARK  status: ('A' for Active; 'I' for Inactive)
REMARK    1  A    between atoms: C_7  and  C_8
REMARK    2  A    between atoms: C_11  and  O_12
REMARK    3  A    between atoms: O_12  and  C_13
REMARK    4  A    between atoms: C_13  and  C_14
REMARK    5  A    between atoms: C_14  and  N_15
REMARK                            x       y       z     vdW  Elec       q    Type
REMARK                         _______ _______ _______ _____ _____    ______ ____
ROOT
ATOM      1  C   UNL     1       1.069   9.533  19.710  0.00  0.00    +0.000 A 
ATOM      2  C   UNL     1       0.762   8.931  20.932  0.00  0.00    +0.000 A 
ATOM      3  C   UNL     1       1.178   7.621  21.211  0.00  0.00    +0.000 A 
ATOM      4  C   UNL     1       1.888   6.893  20.258  0.00  0.00    +0.000 A 
ATOM      5  C   UNL     1       2.304   7.545  19.090  0.00  0.00    +0.000 A 
ATOM      6  C   UNL     1       1.889   8.854  18.808  0.00  0.00    +0.000 A 
ENDROOT
BRANCH   1  13
ATOM      7  O   UNL     1      -3.249  10.811  15.895  0.00  0.00    +0.000 OA
ATOM      8  C   UNL     1      -2.410  11.040  16.748  0.00  0.00    +0.000 C 
ATOM      9  N   UNL     1      -2.082  12.268  17.233  0.00  0.00    +0.000 N 
ATOM     10  C   UNL     1      -1.093  12.346  18.158  0.00  0.00    +0.000 C 
ATOM     11  O   UNL     1      -0.672  13.372  18.658  0.00  0.00    +0.000 OA
ATOM     12  C   UNL     1      -0.574  10.971  18.464  0.00  0.00    +0.000 C 
ATOM     13  C   UNL     1       0.423  10.792  19.339  0.00  0.00    +0.000 C 
ATOM     14  S   UNL     1      -1.424   9.813  17.529  0.00  0.00    +0.000 S 
ATOM     15  H   UNL     1      -2.531  13.098  16.888  0.00  0.00    +0.000 HD
ENDBRANCH   1  13
BRANCH   4  16
ATOM     16  O   UNL     1       2.205   5.563  20.319  0.00  0.00    +0.000 OA
BRANCH  16  17
ATOM     17  C   UNL     1       1.499   4.631  19.487  0.00  0.00    +0.000 C 
BRANCH  17  18
ATOM     18  C   UNL     1       2.279   4.214  18.208  0.00  0.00    +0.000 C 
BRANCH  18  19
ATOM     19  N   UNL     1       3.727   4.289  18.364  0.00  0.00    +0.000 N 
ATOM     20  C   UNL     1       4.449   3.332  19.029  0.00  0.00    +0.000 A 
ATOM     21  N   UNL     1       5.648   3.754  19.337  0.00  0.00    +0.000 NA
ATOM     22  C   UNL     1       5.826   4.856  18.550  0.00  0.00    +0.000 A 
ATOM     23  C   UNL     1       7.016   5.563  18.332  0.00  0.00    +0.000 A 
ATOM     24  C   UNL     1       7.067   6.464  17.272  0.00  0.00    +0.000 A 
ATOM     25  C   UNL     1       5.922   6.725  16.514  0.00  0.00    +0.000 A 
ATOM     26  C   UNL     1       4.676   6.133  16.817  0.00  0.00    +0.000 A 
ATOM     27  C   UNL     1       4.659   5.168  17.838  0.00  0.00    +0.000 A 
ENDBRANCH  18  19
ENDBRANCH  17  18
ENDBRANCH  16  17
ENDBRANCH   4  16
TORSDOF 5
ENDMDL
MODEL 6
REMARK VINA RESULT:      -8.3      3.569      9.525
REMARK  Name = 
REMARK  5 active torsions:
REMARK  status: ('A' for Active; 'I' for Inactive)
REMARK    1  A    between atoms: C_7  and  C_8
REMARK    2  A    between atoms: C_11  and  O_12
REMARK    3  A    between atoms: O_12  and  C_13
REMARK    4  A    between atoms: C_13  and  C_14
REMARK    5  A    between atoms: C_14  and  N_15
REMARK                            x       y       z     vdW  Elec       q    Type
REMARK                         _______ _______ _______ _____ _____    ______ ____
ROOT
ATOM      1  C   UNL     1       2.585   6.912  19.124  0.00  0.00    +0.000 A 
ATOM      2  C   UNL     1       1.982   7.504  20.237  0.00  0.00    +0.000 A 
ATOM      3  C   UNL     1       1.399   8.776  20.144  0.00  0.00    +0.000 A 
ATOM      4  C   UNL     1       1.433   9.477  18.940  0.00  0.00    +0.000 A 
ATOM      5  C   UNL     1       1.921   8.826  17.800  0.00  0.00    +0.000 A 
ATOM      6  C   UNL     1       2.505   7.555  17.889  0.00  0.00    +0.000 A 
ENDROOT
BRANCH   1  13
ATOM      7  O   UNL     1       7.583   5.098  16.563  0.00  0.00    +0.000 OA
ATOM      8  C   UNL     1       6.638   5.040  17.330  0.00  0.00    +0.000 C 
ATOM      9  N   UNL     1       6.349   4.004  18.163  0.00  0.00    +0.000 N 
ATOM     10  C   UNL     1       5.230   4.090  18.925  0.00  0.00    +0.000 C 
ATOM     11  O   UNL     1       4.829   3.234  19.690  0.00  0.00    +0.000 OA
ATOM     12  C   UNL     1       4.542   5.399  18.670  0.00  0.00    +0.000 C 
ATOM     13  C   UNL     1       3.399   5.708  19.296  0.00  0.00    +0.000 C 
ATOM     14  S   UNL     1       5.425   6.299  17.508  0.00  0.00    +0.000 S 
ATOM     15  H   UNL     1       6.925   3.182  18.185  0.00  0.00    +0.000 HD
ENDBRANCH   1  13
BRANCH   4  16
ATOM     16  O   UNL     1       1.065  10.781  18.745  0.00  0.00    +0.000 OA
BRANCH  16  17
ATOM     17  C   UNL     1       0.411  11.495  19.804  0.00  0.00    +0.000 C 
BRANCH  17  18
ATOM     18  C   UNL     1      -0.949  10.876  20.233  0.00  0.00    +0.000 C 
BRANCH  18  19
ATOM     19  N   UNL     1      -2.064  11.286  19.386  0.00  0.00    +0.000 N 
ATOM     20  C   UNL     1      -2.899  12.323  19.715  0.00  0.00    +0.000 A 
ATOM     21  N   UNL     1      -4.000  12.302  19.011  0.00  0.00    +0.000 NA
ATOM     22  C   UNL     1      -3.716  11.461  17.972  0.00  0.00    +0.000 A 
ATOM     23  C   UNL     1      -4.476  11.253  16.814  0.00  0.00    +0.000 A 
ATOM     24  C   UNL     1      -3.882  10.595  15.740  0.00  0.00    +0.000 A 
ATOM     25  C   UNL     1      -2.593  10.070  15.864  0.00  0.00    +0.000 A 
ATOM     26  C   UNL     1      -1.871  10.139  17.076  0.00  0.00    +0.000 A 
ATOM     27  C   UNL     1      -2.452  10.874  18.123  0.00  0.00    +0.000 A 
ENDBRANCH  18  19
ENDBRANCH  17  18
ENDBRANCH  16  17
ENDBRANCH   4  16
TORSDOF 5
ENDMDL
MODEL 7
REMARK VINA RESULT:      -8.3      2.158      3.127
REMARK  Name = 
REMARK  5 active torsions:
REMARK  status: ('A' for Active; 'I' for Inactive)
REMARK    1  A    between atoms: C_7  and  C_8
REMARK    2  A    between atoms: C_11  and  O_12
REMARK    3  A    between atoms: O_12  and  C_13
REMARK    4  A    between atoms: C_13  and  C_14
REMARK    5  A    between atoms: C_14  and  N_15
REMARK                            x       y       z     vdW  Elec       q    Type
REMARK                         _______ _______ _______ _____ _____    ______ ____
ROOT
ATOM      1  C   UNL     1       1.654   7.411  20.504  0.00  0.00    +0.000 A 
ATOM      2  C   UNL     1       1.541   6.071  20.879  0.00  0.00    +0.000 A 
ATOM      3  C   UNL     1       1.856   5.045  19.976  0.00  0.00    +0.000 A 
ATOM      4  C   UNL     1       2.268   5.353  18.681  0.00  0.00    +0.000 A 
ATOM      5  C   UNL     1       2.503   6.694  18.354  0.00  0.00    +0.000 A 
ATOM      6  C   UNL     1       2.189   7.722  19.253  0.00  0.00    +0.000 A 
ENDROOT
BRANCH   1  13
ATOM      7  O   UNL     1      -1.566  12.216  19.327  0.00  0.00    +0.000 OA
ATOM      8  C   UNL     1      -0.983  11.408  20.029  0.00  0.00    +0.000 C 
ATOM      9  N   UNL     1      -0.826  11.491  21.377  0.00  0.00    +0.000 N 
ATOM     10  C   UNL     1      -0.112  10.518  21.998  0.00  0.00    +0.000 C 
ATOM     11  O   UNL     1       0.137  10.474  23.188  0.00  0.00    +0.000 OA
ATOM     12  C   UNL     1       0.349   9.505  20.990  0.00  0.00    +0.000 C 
ATOM     13  C   UNL     1       1.091   8.454  21.362  0.00  0.00    +0.000 C 
ATOM     14  S   UNL     1      -0.198   9.955  19.429  0.00  0.00    +0.000 S 
ATOM     15  H   UNL     1      -1.193  12.269  21.894  0.00  0.00    +0.000 HD
ENDBRANCH   1  13
BRANCH   4  16
ATOM     16  O   UNL     1       2.439   4.470  17.649  0.00  0.00    +0.000 OA
BRANCH  16  17
ATOM     17  C   UNL     1       3.435   3.444  17.756  0.00  0.00    +0.000 C 
BRANCH  17  18
ATOM     18  C   UNL     1       4.568   3.553  16.697  0.00  0.00    +0.000 C 
BRANCH  18  19
ATOM     19  N   UNL     1       5.266   4.833  16.727  0.00  0.00    +0.000 N 
ATOM     20  C   UNL     1       4.937   5.873  15.895  0.00  0.00    +0.000 A 
ATOM     21  N   UNL     1       5.879   6.778  15.853  0.00  0.00    +0.000 NA
ATOM     22  C   UNL     1       6.658   6.499  16.940  0.00  0.00    +0.000 A 
ATOM     23  C   UNL     1       7.680   7.291  17.480  0.00  0.00    +0.000 A 
ATOM     24  C   UNL     1       8.151   6.987  18.755  0.00  0.00    +0.000 A 
ATOM     25  C   UNL     1       7.680   5.857  19.427  0.00  0.00    +0.000 A 
ATOM     26  C   UNL     1       6.760   4.964  18.834  0.00  0.00    +0.000 A 
ATOM     27  C   UNL     1       6.237   5.326  17.582  0.00  0.00    +0.000 A 
ENDBRANCH  18  19
ENDBRANCH  17  18
ENDBRANCH  16  17
ENDBRANCH   4  16
TORSDOF 5
ENDMDL
MODEL 8
REMARK VINA RESULT:      -8.2      3.026      4.062
REMARK  Name = 
REMARK  5 active torsions:
REMARK  status: ('A' for Active; 'I' for Inactive)
REMARK    1  A    between atoms: C_7  and  C_8
REMARK    2  A    between atoms: C_11  and  O_12
REMARK    3  A    between atoms: O_12  and  C_13
REMARK    4  A    between atoms: C_13  and  C_14
REMARK    5  A    between atoms: C_14  and  N_15
REMARK                            x       y       z     vdW  Elec       q    Type
REMARK                         _______ _______ _______ _____ _____    ______ ____
ROOT
ATOM      1  C   UNL     1       1.064   9.364  19.610  0.00  0.00    +0.000 A 
ATOM      2  C   UNL     1       1.061   8.554  20.748  0.00  0.00    +0.000 A 
ATOM      3  C   UNL     1       1.632   7.273  20.718  0.00  0.00    +0.000 A 
ATOM      4  C   UNL     1       2.193   6.784  19.540  0.00  0.00    +0.000 A 
ATOM      5  C   UNL     1       2.309   7.647  18.444  0.00  0.00    +0.000 A 
ATOM      6  C   UNL     1       1.739   8.927  18.470  0.00  0.00    +0.000 A 
ENDROOT
BRANCH   1  13
ATOM      7  O   UNL     1      -3.405  11.095  16.166  0.00  0.00    +0.000 OA
ATOM      8  C   UNL     1      -2.600  11.181  17.076  0.00  0.00    +0.000 C 
ATOM      9  N   UNL     1      -2.436  12.255  17.895  0.00  0.00    +0.000 N 
ATOM     10  C   UNL     1      -1.462  12.197  18.838  0.00  0.00    +0.000 C 
ATOM     11  O   UNL     1      -1.178  13.086  19.618  0.00  0.00    +0.000 OA
ATOM     12  C   UNL     1      -0.763  10.870  18.763  0.00  0.00    +0.000 C 
ATOM     13  C   UNL     1       0.254  10.582  19.586  0.00  0.00    +0.000 C 
ATOM     14  S   UNL     1      -1.455   9.922  17.514  0.00  0.00    +0.000 S 
ATOM     15  H   UNL     1      -2.993  13.083  17.782  0.00  0.00    +0.000 HD
ENDBRANCH   1  13
BRANCH   4  16
ATOM     16  O   UNL     1       2.625   5.505  19.314  0.00  0.00    +0.000 OA
BRANCH  16  17
ATOM     17  C   UNL     1       2.350   4.880  18.052  0.00  0.00    +0.000 C 
BRANCH  17  18
ATOM     18  C   UNL     1       3.616   4.338  17.329  0.00  0.00    +0.000 C 
BRANCH  18  19
ATOM     19  N   UNL     1       4.666   5.339  17.175  0.00  0.00    +0.000 N 
ATOM     20  C   UNL     1       4.600   6.341  16.241  0.00  0.00    +0.000 A 
ATOM     21  N   UNL     1       5.765   6.904  16.050  0.00  0.00    +0.000 NA
ATOM     22  C   UNL     1       6.508   6.508  17.126  0.00  0.00    +0.000 A 
ATOM     23  C   UNL     1       7.760   6.996  17.522  0.00  0.00    +0.000 A 
ATOM     24  C   UNL     1       8.217   6.690  18.802  0.00  0.00    +0.000 A 
ATOM     25  C   UNL     1       7.483   5.832  19.624  0.00  0.00    +0.000 A 
ATOM     26  C   UNL     1       6.293   5.210  19.182  0.00  0.00    +0.000 A 
ATOM     27  C   UNL     1       5.805   5.591  17.921  0.00  0.00    +0.000 A 
ENDBRANCH  18  19
ENDBRANCH  17  18
ENDBRANCH  16  17
ENDBRANCH   4  16
TORSDOF 5
ENDMDL
MODEL 9
REMARK VINA RESULT:      -8.2      5.858      8.428
REMARK  Name = 
REMARK  5 active torsions:
REMARK  status: ('A' for Active; 'I' for Inactive)
REMARK    1  A    between atoms: C_7  and  C_8
REMARK    2  A    between atoms: C_11  and  O_12
REMARK    3  A    between atoms: O_12  and  C_13
REMARK    4  A    between atoms: C_13  and  C_14
REMARK    5  A    between atoms: C_14  and  N_15
REMARK                            x       y       z     vdW  Elec       q    Type
REMARK                         _______ _______ _______ _____ _____    ______ ____
ROOT
ATOM      1  C   UNL     1       4.767   4.943  17.184  0.00  0.00    +0.000 A 
ATOM      2  C   UNL     1       4.533   6.320  17.225  0.00  0.00    +0.000 A 
ATOM      3  C   UNL     1       5.599   7.230  17.189  0.00  0.00    +0.000 A 
ATOM      4  C   UNL     1       6.913   6.768  17.133  0.00  0.00    +0.000 A 
ATOM      5  C   UNL     1       7.134   5.396  16.960  0.00  0.00    +0.000 A 
ATOM      6  C   UNL     1       6.071   4.483  16.996  0.00  0.00    +0.000 A 
ENDROOT
BRANCH   1  13
ATOM      7  O   UNL     1       2.235   3.224  22.231  0.00  0.00    +0.000 OA
ATOM      8  C   UNL     1       2.400   3.270  21.024  0.00  0.00    +0.000 C 
ATOM      9  N   UNL     1       1.726   2.534  20.099  0.00  0.00    +0.000 N 
ATOM     10  C   UNL     1       2.064   2.684  18.794  0.00  0.00    +0.000 C 
ATOM     11  O   UNL     1       1.573   2.076  17.862  0.00  0.00    +0.000 OA
ATOM     12  C   UNL     1       3.157   3.705  18.667  0.00  0.00    +0.000 C 
ATOM     13  C   UNL     1       3.674   4.013  17.471  0.00  0.00    +0.000 C 
ATOM     14  S   UNL     1       3.573   4.301  20.220  0.00  0.00    +0.000 S 
ATOM     15  H   UNL     1       1.025   1.871  20.376  0.00  0.00    +0.000 HD
ENDBRANCH   1  13
BRANCH   4  16
ATOM     16  O   UNL     1       8.048   7.522  17.266  0.00  0.00    +0.000 OA
BRANCH  16  17
ATOM     17  C   UNL     1       7.950   8.861  17.770  0.00  0.00    +0.000 C 
BRANCH  17  18
ATOM     18  C   UNL     1       8.870   9.143  18.991  0.00  0.00    +0.000 C 
BRANCH  18  19
ATOM     19  N   UNL     1       9.379  10.510  19.028  0.00  0.00    +0.000 N 
ATOM     20  C   UNL     1       9.767  11.185  17.898  0.00  0.00    +0.000 A 
ATOM     21  N   UNL     1      10.487  12.237  18.184  0.00  0.00    +0.000 NA
ATOM     22  C   UNL     1      10.259  12.446  19.515  0.00  0.00    +0.000 A 
ATOM     23  C   UNL     1      10.621  13.566  20.275  0.00  0.00    +0.000 A 
ATOM     24  C   UNL     1      10.041  13.731  21.530  0.00  0.00    +0.000 A 
ATOM     25  C   UNL     1       9.200  12.745  22.051  0.00  0.00    +0.000 A 
ATOM     26  C   UNL     1       8.945  11.539  21.361  0.00  0.00    +0.000 A 
ATOM     27  C   UNL     1       9.473  11.423  20.064  0.00  0.00    +0.000 A 
ENDBRANCH  18  19
ENDBRANCH  17  18
ENDBRANCH  16  17
ENDBRANCH   4  16
TORSDOF 5
ENDMDL
