MODEL 1
REMARK VINA RESULT:      -8.5      0.000      0.000
REMARK  Name = 
REMARK  2 active torsions:
REMARK  status: ('A' for Active; 'I' for Inactive)
REMARK    1  A    between atoms: C_4  and  C_5
REMARK    2  A    between atoms: C_7  and  C_8
REMARK                            x       y       z     vdW  Elec       q    Type
REMARK                         _______ _______ _______ _____ _____    ______ ____
ROOT
ATOM      1  C   UNL     1       2.937   6.818  18.153  0.00  0.00    +0.000 A 
ATOM      2  N   UNL     1       2.489   5.559  18.311  0.00  0.00    +0.000 NA
ATOM      3  C   UNL     1       3.148   4.504  17.766  0.00  0.00    +0.000 A 
ATOM      4  C   UNL     1       4.307   4.792  17.038  0.00  0.00    +0.000 A 
ATOM      5  S   UNL     1       5.401   3.750  16.211  0.00  0.00    +0.000 S 
ATOM      6  C   UNL     1       6.390   5.050  15.714  0.00  0.00    +0.000 A 
ATOM      7  C   UNL     1       5.908   6.258  16.156  0.00  0.00    +0.000 A 
ATOM      8  C   UNL     1       4.711   6.122  16.920  0.00  0.00    +0.000 A 
ATOM      9  N   UNL     1       4.035   7.158  17.470  0.00  0.00    +0.000 NA
ENDROOT
BRANCH   1  13
ATOM     10  C   UNL     1       0.621   9.954  19.993  0.00  0.00    +0.000 A 
ATOM     11  C   UNL     1       0.953  10.032  18.646  0.00  0.00    +0.000 A 
ATOM     12  C   UNL     1       1.704   9.012  18.055  0.00  0.00    +0.000 A 
ATOM     13  C   UNL     1       2.142   7.888  18.789  0.00  0.00    +0.000 A 
ATOM     14  C   UNL     1       1.788   7.839  20.149  0.00  0.00    +0.000 A 
ATOM     15  C   UNL     1       1.037   8.860  20.746  0.00  0.00    +0.000 A 
ENDBRANCH   1  13
BRANCH   3  16
ATOM     16  C   UNL     1       2.561   3.122  18.002  0.00  0.00    +0.000 C 
ATOM     17  C   UNL     1       3.423   2.278  18.956  0.00  0.00    +0.000 C 
ATOM     18  C   UNL     1       3.313   2.692  20.425  0.00  0.00    +0.000 C 
ATOM     19  C   UNL     1       1.868   2.818  20.900  0.00  0.00    +0.000 C 
ATOM     20  C   UNL     1       0.971   3.619  19.959  0.00  0.00    +0.000 C 
ATOM     21  C   UNL     1       1.107   3.180  18.501  0.00  0.00    +0.000 C 
ENDBRANCH   3  16
TORSDOF 2
ENDMDL
MODEL 2
REMARK VINA RESULT:      -8.5      0.036      1.050
REMARK  Name = 
REMARK  2 active torsions:
REMARK  status: ('A' for Active; 'I' for Inactive)
REMARK    1  A    between atoms: C_4  and  C_5
REMARK    2  A    between atoms: C_7  and  C_8
REMARK                            x       y       z     vdW  Elec       q    Type
REMARK                         _______ _______ _______ _____ _____    ______ ____
ROOT
ATOM      1  C   UNL     1       2.953   6.797  18.151  0.00  0.00    +0.000 A 
ATOM      2  N   UNL     1       2.508   5.537  18.312  0.00  0.00    +0.000 NA
ATOM      3  C   UNL     1       3.166   4.483  17.763  0.00  0.00    +0.000 A 
ATOM      4  C   UNL     1       4.319   4.774  17.027  0.00  0.00    +0.000 A 
ATOM      5  S   UNL     1       5.409   3.734  16.192  0.00  0.00    +0.000 S 
ATOM      6  C   UNL     1       6.391   5.035  15.687  0.00  0.00    +0.000 A 
ATOM      7  C   UNL     1       5.910   6.243  16.133  0.00  0.00    +0.000 A 
ATOM      8  C   UNL     1       4.719   6.104  16.905  0.00  0.00    +0.000 A 
ATOM      9  N   UNL     1       4.045   7.139  17.460  0.00  0.00    +0.000 NA
ENDROOT
BRANCH   1  13
ATOM     10  C   UNL     1       0.634   9.901  20.039  0.00  0.00    +0.000 A 
ATOM     11  C   UNL     1       1.054   8.800  20.776  0.00  0.00    +0.000 A 
ATOM     12  C   UNL     1       1.806   7.797  20.157  0.00  0.00    +0.000 A 
ATOM     13  C   UNL     1       2.160   7.865  18.792  0.00  0.00    +0.000 A 
ATOM     14  C   UNL     1       1.721   8.994  18.077  0.00  0.00    +0.000 A 
ATOM     15  C   UNL     1       0.966  10.000  18.692  0.00  0.00    +0.000 A 
ENDBRANCH   1  13
BRANCH   3  16
ATOM     16  C   UNL     1       2.583   3.100  18.004  0.00  0.00    +0.000 C 
ATOM     17  C   UNL     1       3.439   2.269  18.976  0.00  0.00    +0.000 C 
ATOM     18  C   UNL     1       3.310   2.694  20.439  0.00  0.00    +0.000 C 
ATOM     19  C   UNL     1       1.859   2.816  20.897  0.00  0.00    +0.000 C 
ATOM     20  C   UNL     1       0.968   3.604  19.939  0.00  0.00    +0.000 C 
ATOM     21  C   UNL     1       1.124   3.154  18.486  0.00  0.00    +0.000 C 
ENDBRANCH   3  16
TORSDOF 2
ENDMDL
MODEL 3
REMARK VINA RESULT:      -8.2      0.798      1.699
REMARK  Name = 
REMARK  2 active torsions:
REMARK  status: ('A' for Active; 'I' for Inactive)
REMARK    1  A    between atoms: C_4  and  C_5
REMARK    2  A    between atoms: C_7  and  C_8
REMARK                            x       y       z     vdW  Elec       q    Type
REMARK                         _______ _______ _______ _____ _____    ______ ____
ROOT
ATOM      1  C   UNL     1       2.787   7.189  18.586  0.00  0.00    +0.000 A 
ATOM      2  N   UNL     1       2.777   6.012  19.240  0.00  0.00    +0.000 NA
ATOM      3  C   UNL     1       3.561   4.978  18.840  0.00  0.00    +0.000 A 
ATOM      4  C   UNL     1       4.373   5.199  17.723  0.00  0.00    +0.000 A 
ATOM      5  S   UNL     1       5.488   4.158  16.923  0.00  0.00    +0.000 S 
ATOM      6  C   UNL     1       5.904   5.351  15.775  0.00  0.00    +0.000 A 
ATOM      7  C   UNL     1       5.214   6.522  15.981  0.00  0.00    +0.000 A 
ATOM      8  C   UNL     1       4.331   6.446  17.099  0.00  0.00    +0.000 A 
ATOM      9  N   UNL     1       3.538   7.461  17.515  0.00  0.00    +0.000 NA
ENDROOT
BRANCH   1  13
ATOM     10  C   UNL     1       0.177  10.254  20.128  0.00  0.00    +0.000 A 
ATOM     11  C   UNL     1       0.626   9.237  20.962  0.00  0.00    +0.000 A 
ATOM     12  C   UNL     1       1.473   8.246  20.456  0.00  0.00    +0.000 A 
ATOM     13  C   UNL     1       1.894   8.243  19.109  0.00  0.00    +0.000 A 
ATOM     14  C   UNL     1       1.423   9.287  18.293  0.00  0.00    +0.000 A 
ATOM     15  C   UNL     1       0.573  10.281  18.795  0.00  0.00    +0.000 A 
ENDBRANCH   1  13
BRANCH   3  16
ATOM     16  C   UNL     1       3.477   3.692  19.644  0.00  0.00    +0.000 C 
ATOM     17  C   UNL     1       2.479   3.798  20.809  0.00  0.00    +0.000 C 
ATOM     18  C   UNL     1       1.012   3.748  20.379  0.00  0.00    +0.000 C 
ATOM     19  C   UNL     1       0.704   2.576  19.450  0.00  0.00    +0.000 C 
ATOM     20  C   UNL     1       1.696   2.416  18.301  0.00  0.00    +0.000 C 
ATOM     21  C   UNL     1       3.151   2.472  18.767  0.00  0.00    +0.000 C 
ENDBRANCH   3  16
TORSDOF 2
ENDMDL
MODEL 4
REMARK VINA RESULT:      -8.2      1.664      4.291
REMARK  Name = 
REMARK  2 active torsions:
REMARK  status: ('A' for Active; 'I' for Inactive)
REMARK    1  A    between atoms: C_4  and  C_5
REMARK    2  A    between atoms: C_7  and  C_8
REMARK                            x       y       z     vdW  Elec       q    Type
REMARK                         _______ _______ _______ _____ _____    ______ ____
ROOT
ATOM      1  C   UNL     1       2.505   6.605  19.421  0.00  0.00    +0.000 A 
ATOM      2  N   UNL     1       3.454   6.192  18.560  0.00  0.00    +0.000 NA
ATOM      3  C   UNL     1       3.981   4.943  18.641  0.00  0.00    +0.000 A 
ATOM      4  C   UNL     1       3.491   4.116  19.656  0.00  0.00    +0.000 A 
ATOM      5  S   UNL     1       3.897   2.496  20.078  0.00  0.00    +0.000 S 
ATOM      6  C   UNL     1       2.776   2.464  21.365  0.00  0.00    +0.000 A 
ATOM      7  C   UNL     1       2.103   3.657  21.487  0.00  0.00    +0.000 A 
ATOM      8  C   UNL     1       2.506   4.613  20.509  0.00  0.00    +0.000 A 
ATOM      9  N   UNL     1       1.997   5.864  20.411  0.00  0.00    +0.000 NA
ENDROOT
BRANCH   1  13
ATOM     10  C   UNL     1       1.025  10.622  18.912  0.00  0.00    +0.000 A 
ATOM     11  C   UNL     1       0.797   9.941  20.102  0.00  0.00    +0.000 A 
ATOM     12  C   UNL     1       1.279   8.639  20.261  0.00  0.00    +0.000 A 
ATOM     13  C   UNL     1       2.003   7.982  19.241  0.00  0.00    +0.000 A 
ATOM     14  C   UNL     1       2.219   8.700  18.052  0.00  0.00    +0.000 A 
ATOM     15  C   UNL     1       1.736  10.005  17.887  0.00  0.00    +0.000 A 
ENDBRANCH   1  13
BRANCH   3  16
ATOM     16  C   UNL     1       5.047   4.573  17.622  0.00  0.00    +0.000 C 
ATOM     17  C   UNL     1       5.038   5.512  16.403  0.00  0.00    +0.000 C 
ATOM     18  C   UNL     1       5.631   6.894  16.678  0.00  0.00    +0.000 C 
ATOM     19  C   UNL     1       6.997   6.831  17.357  0.00  0.00    +0.000 C 
ATOM     20  C   UNL     1       7.055   5.880  18.551  0.00  0.00    +0.000 C 
ATOM     21  C   UNL     1       6.453   4.510  18.241  0.00  0.00    +0.000 C 
ENDBRANCH   3  16
TORSDOF 2
ENDMDL
MODEL 5
REMARK VINA RESULT:      -8.2      0.794      1.324
REMARK  Name = 
REMARK  2 active torsions:
REMARK  status: ('A' for Active; 'I' for Inactive)
REMARK    1  A    between atoms: C_4  and  C_5
REMARK    2  A    between atoms: C_7  and  C_8
REMARK                            x       y       z     vdW  Elec       q    Type
REMARK                         _______ _______ _______ _____ _____    ______ ____
ROOT
ATOM      1  C   UNL     1       2.799   7.176  18.602  0.00  0.00    +0.000 A 
ATOM      2  N   UNL     1       2.794   5.994  19.246  0.00  0.00    +0.000 NA
ATOM      3  C   UNL     1       3.576   4.964  18.832  0.00  0.00    +0.000 A 
ATOM      4  C   UNL     1       4.380   5.194  17.711  0.00  0.00    +0.000 A 
ATOM      5  S   UNL     1       5.488   4.159  16.894  0.00  0.00    +0.000 S 
ATOM      6  C   UNL     1       5.896   5.362  15.753  0.00  0.00    +0.000 A 
ATOM      7  C   UNL     1       5.206   6.531  15.973  0.00  0.00    +0.000 A 
ATOM      8  C   UNL     1       4.332   6.445  17.097  0.00  0.00    +0.000 A 
ATOM      9  N   UNL     1       3.542   7.457  17.527  0.00  0.00    +0.000 NA
ENDROOT
BRANCH   1  13
ATOM     10  C   UNL     1       0.208  10.253  20.154  0.00  0.00    +0.000 A 
ATOM     11  C   UNL     1       0.610  10.285  18.824  0.00  0.00    +0.000 A 
ATOM     12  C   UNL     1       1.449   9.285  18.327  0.00  0.00    +0.000 A 
ATOM     13  C   UNL     1       1.909   8.226  19.139  0.00  0.00    +0.000 A 
ATOM     14  C   UNL     1       1.483   8.221  20.479  0.00  0.00    +0.000 A 
ATOM     15  C   UNL     1       0.643   9.223  20.982  0.00  0.00    +0.000 A 
ENDBRANCH   1  13
BRANCH   3  16
ATOM     16  C   UNL     1       3.498   3.671  19.627  0.00  0.00    +0.000 C 
ATOM     17  C   UNL     1       2.527   3.775  20.815  0.00  0.00    +0.000 C 
ATOM     18  C   UNL     1       1.051   3.742  20.418  0.00  0.00    +0.000 C 
ATOM     19  C   UNL     1       0.712   2.581  19.486  0.00  0.00    +0.000 C 
ATOM     20  C   UNL     1       1.676   2.423  18.313  0.00  0.00    +0.000 C 
ATOM     21  C   UNL     1       3.142   2.461  18.746  0.00  0.00    +0.000 C 
ENDBRANCH   3  16
TORSDOF 2
ENDMDL
MODEL 6
REMARK VINA RESULT:      -8.2      1.665      4.187
REMARK  Name = 
REMARK  2 active torsions:
REMARK  status: ('A' for Active; 'I' for Inactive)
REMARK    1  A    between atoms: C_4  and  C_5
REMARK    2  A    between atoms: C_7  and  C_8
REMARK                            x       y       z     vdW  Elec       q    Type
REMARK                         _______ _______ _______ _____ _____    ______ ____
ROOT
ATOM      1  C   UNL     1       2.497   6.609  19.433  0.00  0.00    +0.000 A 
ATOM      2  N   UNL     1       3.444   6.200  18.568  0.00  0.00    +0.000 NA
ATOM      3  C   UNL     1       3.973   4.951  18.643  0.00  0.00    +0.000 A 
ATOM      4  C   UNL     1       3.486   4.120  19.657  0.00  0.00    +0.000 A 
ATOM      5  S   UNL     1       3.896   2.500  20.073  0.00  0.00    +0.000 S 
ATOM      6  C   UNL     1       2.780   2.463  21.364  0.00  0.00    +0.000 A 
ATOM      7  C   UNL     1       2.106   3.654  21.492  0.00  0.00    +0.000 A 
ATOM      8  C   UNL     1       2.504   4.614  20.515  0.00  0.00    +0.000 A 
ATOM      9  N   UNL     1       1.993   5.865  20.422  0.00  0.00    +0.000 NA
ENDROOT
BRANCH   1  13
ATOM     10  C   UNL     1       1.039  10.632  18.907  0.00  0.00    +0.000 A 
ATOM     11  C   UNL     1       1.747  10.008  17.886  0.00  0.00    +0.000 A 
ATOM     12  C   UNL     1       2.217   8.704  18.063  0.00  0.00    +0.000 A 
ATOM     13  C   UNL     1       1.993   7.986  19.259  0.00  0.00    +0.000 A 
ATOM     14  C   UNL     1       1.272   8.645  20.270  0.00  0.00    +0.000 A 
ATOM     15  C   UNL     1       0.801   9.953  20.098  0.00  0.00    +0.000 A 
ENDBRANCH   1  13
BRANCH   3  16
ATOM     16  C   UNL     1       5.035   4.585  17.619  0.00  0.00    +0.000 C 
ATOM     17  C   UNL     1       5.031   5.536  16.410  0.00  0.00    +0.000 C 
ATOM     18  C   UNL     1       5.632   6.913  16.698  0.00  0.00    +0.000 C 
ATOM     19  C   UNL     1       6.998   6.835  17.375  0.00  0.00    +0.000 C 
ATOM     20  C   UNL     1       7.052   5.871  18.559  0.00  0.00    +0.000 C 
ATOM     21  C   UNL     1       6.442   4.508  18.236  0.00  0.00    +0.000 C 
ENDBRANCH   3  16
TORSDOF 2
ENDMDL
MODEL 7
REMARK VINA RESULT:      -7.9      1.725      4.140
REMARK  Name = 
REMARK  2 active torsions:
REMARK  status: ('A' for Active; 'I' for Inactive)
REMARK    1  A    between atoms: C_4  and  C_5
REMARK    2  A    between atoms: C_7  and  C_8
REMARK                            x       y       z     vdW  Elec       q    Type
REMARK                         _______ _______ _______ _____ _____    ______ ____
ROOT
ATOM      1  C   UNL     1       2.520   6.576  19.582  0.00  0.00    +0.000 A 
ATOM      2  N   UNL     1       3.671   6.245  18.968  0.00  0.00    +0.000 NA
ATOM      3  C   UNL     1       4.227   5.016  19.129  0.00  0.00    +0.000 A 
ATOM      4  C   UNL     1       3.545   4.120  19.959  0.00  0.00    +0.000 A 
ATOM      5  S   UNL     1       3.918   2.499  20.407  0.00  0.00    +0.000 S 
ATOM      6  C   UNL     1       2.519   2.358  21.374  0.00  0.00    +0.000 A 
ATOM      7  C   UNL     1       1.776   3.515  21.371  0.00  0.00    +0.000 A 
ATOM      8  C   UNL     1       2.356   4.534  20.559  0.00  0.00    +0.000 A 
ATOM      9  N   UNL     1       1.823   5.766  20.386  0.00  0.00    +0.000 NA
ENDROOT
BRANCH   1  13
ATOM     10  C   UNL     1       1.036  10.556  18.845  0.00  0.00    +0.000 A 
ATOM     11  C   UNL     1       1.747   9.883  17.858  0.00  0.00    +0.000 A 
ATOM     12  C   UNL     1       2.226   8.593  18.103  0.00  0.00    +0.000 A 
ATOM     13  C   UNL     1       2.007   7.939  19.335  0.00  0.00    +0.000 A 
ATOM     14  C   UNL     1       1.282   8.645  20.311  0.00  0.00    +0.000 A 
ATOM     15  C   UNL     1       0.803   9.939  20.071  0.00  0.00    +0.000 A 
ENDBRANCH   1  13
BRANCH   3  16
ATOM     16  C   UNL     1       5.527   4.741  18.393  0.00  0.00    +0.000 C 
ATOM     17  C   UNL     1       5.320   3.846  17.159  0.00  0.00    +0.000 C 
ATOM     18  C   UNL     1       4.677   4.563  15.971  0.00  0.00    +0.000 C 
ATOM     19  C   UNL     1       5.366   5.882  15.628  0.00  0.00    +0.000 C 
ATOM     20  C   UNL     1       5.623   6.782  16.834  0.00  0.00    +0.000 C 
ATOM     21  C   UNL     1       6.265   6.033  18.002  0.00  0.00    +0.000 C 
ENDBRANCH   3  16
TORSDOF 2
ENDMDL
MODEL 8
REMARK VINA RESULT:      -7.9      1.718      4.239
REMARK  Name = 
REMARK  2 active torsions:
REMARK  status: ('A' for Active; 'I' for Inactive)
REMARK    1  A    between atoms: C_4  and  C_5
REMARK    2  A    between atoms: C_7  and  C_8
REMARK                            x       y       z     vdW  Elec       q    Type
REMARK                         _______ _______ _______ _____ _____    ______ ____
ROOT
ATOM      1  C   UNL     1       2.532   6.584  19.560  0.00  0.00    +0.000 A 
ATOM      2  N   UNL     1       3.689   6.254  18.958  0.00  0.00    +0.000 NA
ATOM      3  C   UNL     1       4.243   5.024  19.122  0.00  0.00    +0.000 A 
ATOM      4  C   UNL     1       3.552   4.127  19.943  0.00  0.00    +0.000 A 
ATOM      5  S   UNL     1       3.920   2.505  20.391  0.00  0.00    +0.000 S 
ATOM      6  C   UNL     1       2.512   2.363  21.344  0.00  0.00    +0.000 A 
ATOM      7  C   UNL     1       1.769   3.519  21.335  0.00  0.00    +0.000 A 
ATOM      8  C   UNL     1       2.358   4.540  20.532  0.00  0.00    +0.000 A 
ATOM      9  N   UNL     1       1.827   5.773  20.356  0.00  0.00    +0.000 NA
ENDROOT
BRANCH   1  13
ATOM     10  C   UNL     1       1.029  10.561  18.850  0.00  0.00    +0.000 A 
ATOM     11  C   UNL     1       0.801   9.938  20.071  0.00  0.00    +0.000 A 
ATOM     12  C   UNL     1       1.291   8.648  20.295  0.00  0.00    +0.000 A 
ATOM     13  C   UNL     1       2.022   7.947  19.311  0.00  0.00    +0.000 A 
ATOM     14  C   UNL     1       2.237   8.607  18.088  0.00  0.00    +0.000 A 
ATOM     15  C   UNL     1       1.746   9.898  17.858  0.00  0.00    +0.000 A 
ENDBRANCH   1  13
BRANCH   3  16
ATOM     16  C   UNL     1       5.551   4.750  18.398  0.00  0.00    +0.000 C 
ATOM     17  C   UNL     1       5.360   3.836  17.176  0.00  0.00    +0.000 C 
ATOM     18  C   UNL     1       4.718   4.530  15.974  0.00  0.00    +0.000 C 
ATOM     19  C   UNL     1       5.398   5.850  15.616  0.00  0.00    +0.000 C 
ATOM     20  C   UNL     1       5.639   6.769  16.811  0.00  0.00    +0.000 C 
ATOM     21  C   UNL     1       6.279   6.043  17.994  0.00  0.00    +0.000 C 
ENDBRANCH   3  16
TORSDOF 2
ENDMDL
MODEL 9
REMARK VINA RESULT:      -7.7      1.446      4.132
REMARK  Name = 
REMARK  2 active torsions:
REMARK  status: ('A' for Active; 'I' for Inactive)
REMARK    1  A    between atoms: C_4  and  C_5
REMARK    2  A    between atoms: C_7  and  C_8
REMARK                            x       y       z     vdW  Elec       q    Type
REMARK                         _______ _______ _______ _____ _____    ______ ____
ROOT
ATOM      1  C   UNL     1       2.527   6.365  18.684  0.00  0.00    +0.000 A 
ATOM      2  N   UNL     1       3.647   6.167  17.963  0.00  0.00    +0.000 NA
ATOM      3  C   UNL     1       4.137   4.918  17.753  0.00  0.00    +0.000 A 
ATOM      4  C   UNL     1       3.423   3.857  18.320  0.00  0.00    +0.000 A 
ATOM      5  S   UNL     1       3.715   2.160  18.280  0.00  0.00    +0.000 S 
ATOM      6  C   UNL     1       2.329   1.818  19.216  0.00  0.00    +0.000 A 
ATOM      7  C   UNL     1       1.651   2.962  19.563  0.00  0.00    +0.000 A 
ATOM      8  C   UNL     1       2.271   4.140  19.053  0.00  0.00    +0.000 A 
ATOM      9  N   UNL     1       1.803   5.395  19.251  0.00  0.00    +0.000 NA
ENDROOT
BRANCH   1  13
ATOM     10  C   UNL     1       1.225  10.444  19.182  0.00  0.00    +0.000 A 
ATOM     11  C   UNL     1       1.069   9.532  20.218  0.00  0.00    +0.000 A 
ATOM     12  C   UNL     1       1.493   8.210  20.051  0.00  0.00    +0.000 A 
ATOM     13  C   UNL     1       2.086   7.765  18.849  0.00  0.00    +0.000 A 
ATOM     14  C   UNL     1       2.232   8.714  17.822  0.00  0.00    +0.000 A 
ATOM     15  C   UNL     1       1.806  10.038  17.984  0.00  0.00    +0.000 A 
ENDBRANCH   1  13
BRANCH   3  16
ATOM     16  C   UNL     1       5.406   4.801  16.925  0.00  0.00    +0.000 C 
ATOM     17  C   UNL     1       5.721   6.094  16.155  0.00  0.00    +0.000 C 
ATOM     18  C   UNL     1       6.269   7.223  17.029  0.00  0.00    +0.000 C 
ATOM     19  C   UNL     1       7.428   6.776  17.918  0.00  0.00    +0.000 C 
ATOM     20  C   UNL     1       7.167   5.474  18.672  0.00  0.00    +0.000 C 
ATOM     21  C   UNL     1       6.619   4.370  17.769  0.00  0.00    +0.000 C 
ENDBRANCH   3  16
TORSDOF 2
ENDMDL
