MODEL 1
REMARK VINA RESULT:      -8.4      0.000      0.000
REMARK  Name = 
REMARK  6 active torsions:
REMARK  status: ('A' for Active; 'I' for Inactive)
REMARK    1  A    between atoms: C_2  and  C_3
REMARK    2  A    between atoms: C_3  and  N_4
REMARK    3  A    between atoms: N_4  and  C_5
REMARK    4  A    between atoms: C_5  and  C_6
REMARK    5  A    between atoms: C_5  and  C_12
REMARK    6  A    between atoms: N_18  and  C_19
REMARK                            x       y       z     vdW  Elec       q    Type
REMARK                         _______ _______ _______ _____ _____    ______ ____
ROOT
ATOM      1  N   UNL     1       2.560   7.583  18.821  0.00  0.00    +0.000 NA
ATOM      2  H   UNL     1       1.834   7.341  19.501  0.00  0.00    +0.000 HD
ENDROOT
BRANCH   1   3
ATOM      3  C   UNL     1       1.993   8.613  17.929  0.00  0.00    +0.000 C 
BRANCH   3   5
ATOM      4  O   UNL     1      -0.045   9.856  18.091  0.00  0.00    +0.000 OA
ATOM      5  C   UNL     1       0.968   9.478  18.670  0.00  0.00    +0.000 C 
ATOM      6  N   UNL     1       1.327   9.805  19.972  0.00  0.00    +0.000 N 
ATOM      7  H   UNL     1       2.292   9.645  20.250  0.00  0.00    +0.000 HD
BRANCH   6   8
ATOM      8  C   UNL     1       0.507  10.456  20.925  0.00  0.00    +0.000 A 
ATOM      9  C   UNL     1      -0.174   9.738  21.918  0.00  0.00    +0.000 A 
ATOM     10  C   UNL     1      -0.938  10.393  22.890  0.00  0.00    +0.000 A 
ATOM     11  C   UNL     1      -1.037  11.779  22.888  0.00  0.00    +0.000 A 
ATOM     12  C   UNL     1      -0.377  12.513  21.908  0.00  0.00    +0.000 A 
ATOM     13  C   UNL     1       0.392  11.856  20.937  0.00  0.00    +0.000 A 
ATOM     14 BR   UNL     1       1.235  12.949  19.635  0.00  0.00    +0.000 Br
ENDBRANCH   6   8
ENDBRANCH   3   5
ENDBRANCH   1   3
BRANCH   1  15
ATOM     15  C   UNL     1       2.929   6.332  18.120  0.00  0.00    +0.000 C 
BRANCH  15  16
ATOM     16  C   UNL     1       4.440   6.140  18.084  0.00  0.00    +0.000 A 
ATOM     17  C   UNL     1       5.111   5.410  19.078  0.00  0.00    +0.000 A 
ATOM     18  C   UNL     1       6.506   5.366  19.111  0.00  0.00    +0.000 A 
ATOM     19  C   UNL     1       7.250   6.057  18.155  0.00  0.00    +0.000 A 
ATOM     20  C   UNL     1       6.599   6.764  17.149  0.00  0.00    +0.000 A 
ATOM     21  C   UNL     1       5.204   6.794  17.104  0.00  0.00    +0.000 A 
ENDBRANCH  15  16
BRANCH  15  22
ATOM     22  C   UNL     1       2.176   5.124  18.681  0.00  0.00    +0.000 A 
ATOM     23  C   UNL     1       1.790   5.118  20.033  0.00  0.00    +0.000 A 
ATOM     24  C   UNL     1       1.150   4.009  20.593  0.00  0.00    +0.000 A 
ATOM     25  C   UNL     1       0.874   2.893  19.809  0.00  0.00    +0.000 A 
ATOM     26  C   UNL     1       1.226   2.889  18.461  0.00  0.00    +0.000 A 
ATOM     27  C   UNL     1       1.865   3.997  17.899  0.00  0.00    +0.000 A 
ENDBRANCH  15  22
ENDBRANCH   1  15
TORSDOF 6
ENDMDL
MODEL 2
REMARK VINA RESULT:      -8.3      1.102      1.227
REMARK  Name = 
REMARK  6 active torsions:
REMARK  status: ('A' for Active; 'I' for Inactive)
REMARK    1  A    between atoms: C_2  and  C_3
REMARK    2  A    between atoms: C_3  and  N_4
REMARK    3  A    between atoms: N_4  and  C_5
REMARK    4  A    between atoms: C_5  and  C_6
REMARK    5  A    between atoms: C_5  and  C_12
REMARK    6  A    between atoms: N_18  and  C_19
REMARK                            x       y       z     vdW  Elec       q    Type
REMARK                         _______ _______ _______ _____ _____    ______ ____
ROOT
ATOM      1  N   UNL     1       3.149   7.400  18.332  0.00  0.00    +0.000 NA
ATOM      2  H   UNL     1       2.696   7.337  19.249  0.00  0.00    +0.000 HD
ENDROOT
BRANCH   1   3
ATOM      3  C   UNL     1       2.416   8.419  17.555  0.00  0.00    +0.000 C 
BRANCH   3   5
ATOM      4  O   UNL     1       0.323   9.530  17.885  0.00  0.00    +0.000 OA
ATOM      5  C   UNL     1       1.342   9.096  18.412  0.00  0.00    +0.000 C 
ATOM      6  N   UNL     1       1.664   9.199  19.761  0.00  0.00    +0.000 N 
ATOM      7  H   UNL     1       2.630   9.032  20.029  0.00  0.00    +0.000 HD
BRANCH   6   8
ATOM      8  C   UNL     1       0.800   9.637  20.793  0.00  0.00    +0.000 A 
ATOM      9  C   UNL     1       0.187   8.730  21.669  0.00  0.00    +0.000 A 
ATOM     10  C   UNL     1      -0.621   9.173  22.721  0.00  0.00    +0.000 A 
ATOM     11  C   UNL     1      -0.834  10.532  22.919  0.00  0.00    +0.000 A 
ATOM     12  C   UNL     1      -0.243  11.451  22.058  0.00  0.00    +0.000 A 
ATOM     13  C   UNL     1       0.571  11.006  21.006  0.00  0.00    +0.000 A 
ATOM     14 BR   UNL     1       1.312  12.341  19.879  0.00  0.00    +0.000 Br
ENDBRANCH   6   8
ENDBRANCH   3   5
ENDBRANCH   1   3
BRANCH   1  15
ATOM     15  C   UNL     1       3.097   6.048  17.732  0.00  0.00    +0.000 C 
BRANCH  15  16
ATOM     16  C   UNL     1       4.491   5.542  17.382  0.00  0.00    +0.000 A 
ATOM     17  C   UNL     1       5.646   6.206  17.825  0.00  0.00    +0.000 A 
ATOM     18  C   UNL     1       6.910   5.816  17.378  0.00  0.00    +0.000 A 
ATOM     19  C   UNL     1       7.036   4.760  16.476  0.00  0.00    +0.000 A 
ATOM     20  C   UNL     1       5.903   4.075  16.048  0.00  0.00    +0.000 A 
ATOM     21  C   UNL     1       4.641   4.453  16.508  0.00  0.00    +0.000 A 
ENDBRANCH  15  16
BRANCH  15  22
ATOM     22  C   UNL     1       2.296   5.073  18.597  0.00  0.00    +0.000 A 
ATOM     23  C   UNL     1       2.259   5.256  19.991  0.00  0.00    +0.000 A 
ATOM     24  C   UNL     1       1.582   4.354  20.816  0.00  0.00    +0.000 A 
ATOM     25  C   UNL     1       0.923   3.261  20.263  0.00  0.00    +0.000 A 
ATOM     26  C   UNL     1       0.928   3.074  18.882  0.00  0.00    +0.000 A 
ATOM     27  C   UNL     1       1.602   3.976  18.055  0.00  0.00    +0.000 A 
ENDBRANCH  15  22
ENDBRANCH   1  15
TORSDOF 6
ENDMDL
MODEL 3
REMARK VINA RESULT:      -8.3      1.911      2.496
REMARK  Name = 
REMARK  6 active torsions:
REMARK  status: ('A' for Active; 'I' for Inactive)
REMARK    1  A    between atoms: C_2  and  C_3
REMARK    2  A    between atoms: C_3  and  N_4
REMARK    3  A    between atoms: N_4  and  C_5
REMARK    4  A    between atoms: C_5  and  C_6
REMARK    5  A    between atoms: C_5  and  C_12
REMARK    6  A    between atoms: N_18  and  C_19
REMARK                            x       y       z     vdW  Elec       q    Type
REMARK                         _______ _______ _______ _____ _____    ______ ____
ROOT
ATOM      1  N   UNL     1       3.197   7.380  18.443  0.00  0.00    +0.000 NA
ATOM      2  H   UNL     1       2.740   7.243  19.350  0.00  0.00    +0.000 HD
ENDROOT
BRANCH   1   3
ATOM      3  C   UNL     1       2.415   8.398  17.713  0.00  0.00    +0.000 C 
BRANCH   3   5
ATOM      4  O   UNL     1       1.322   8.750  19.813  0.00  0.00    +0.000 OA
ATOM      5  C   UNL     1       1.455   9.133  18.655  0.00  0.00    +0.000 C 
ATOM      6  N   UNL     1       0.761  10.181  18.062  0.00  0.00    +0.000 N 
ATOM      7  H   UNL     1       0.769  10.240  17.047  0.00  0.00    +0.000 HD
BRANCH   6   8
ATOM      8  C   UNL     1      -0.066  11.116  18.731  0.00  0.00    +0.000 A 
ATOM      9  C   UNL     1       0.464  12.048  19.635  0.00  0.00    +0.000 A 
ATOM     10  C   UNL     1      -0.350  13.005  20.248  0.00  0.00    +0.000 A 
ATOM     11  C   UNL     1      -1.712  13.050  19.972  0.00  0.00    +0.000 A 
ATOM     12  C   UNL     1      -2.262  12.131  19.085  0.00  0.00    +0.000 A 
ATOM     13  C   UNL     1      -1.444  11.175  18.466  0.00  0.00    +0.000 A 
ATOM     14 BR   UNL     1      -2.298   9.957  17.289  0.00  0.00    +0.000 Br
ENDBRANCH   6   8
ENDBRANCH   3   5
ENDBRANCH   1   3
BRANCH   1  15
ATOM     15  C   UNL     1       3.225   6.062  17.771  0.00  0.00    +0.000 C 
BRANCH  15  16
ATOM     16  C   UNL     1       4.653   5.623  17.469  0.00  0.00    +0.000 A 
ATOM     17  C   UNL     1       5.019   5.134  16.205  0.00  0.00    +0.000 A 
ATOM     18  C   UNL     1       6.291   4.602  15.987  0.00  0.00    +0.000 A 
ATOM     19  C   UNL     1       7.212   4.545  17.031  0.00  0.00    +0.000 A 
ATOM     20  C   UNL     1       6.873   5.048  18.283  0.00  0.00    +0.000 A 
ATOM     21  C   UNL     1       5.608   5.597  18.498  0.00  0.00    +0.000 A 
ENDBRANCH  15  16
BRANCH  15  22
ATOM     22  C   UNL     1       2.418   5.015  18.541  0.00  0.00    +0.000 A 
ATOM     23  C   UNL     1       1.970   3.860  17.874  0.00  0.00    +0.000 A 
ATOM     24  C   UNL     1       1.184   2.910  18.531  0.00  0.00    +0.000 A 
ATOM     25  C   UNL     1       0.843   3.090  19.868  0.00  0.00    +0.000 A 
ATOM     26  C   UNL     1       1.297   4.215  20.554  0.00  0.00    +0.000 A 
ATOM     27  C   UNL     1       2.083   5.166  19.899  0.00  0.00    +0.000 A 
ENDBRANCH  15  22
ENDBRANCH   1  15
TORSDOF 6
ENDMDL
MODEL 4
REMARK VINA RESULT:      -8.2      2.028      2.400
REMARK  Name = 
REMARK  6 active torsions:
REMARK  status: ('A' for Active; 'I' for Inactive)
REMARK    1  A    between atoms: C_2  and  C_3
REMARK    2  A    between atoms: C_3  and  N_4
REMARK    3  A    between atoms: N_4  and  C_5
REMARK    4  A    between atoms: C_5  and  C_6
REMARK    5  A    between atoms: C_5  and  C_12
REMARK    6  A    between atoms: N_18  and  C_19
REMARK                            x       y       z     vdW  Elec       q    Type
REMARK                         _______ _______ _______ _____ _____    ______ ____
ROOT
ATOM      1  N   UNL     1       3.320   7.163  18.406  0.00  0.00    +0.000 NA
ATOM      2  H   UNL     1       2.884   7.088  19.330  0.00  0.00    +0.000 HD
ENDROOT
BRANCH   1   3
ATOM      3  C   UNL     1       2.538   8.151  17.637  0.00  0.00    +0.000 C 
BRANCH   3   5
ATOM      4  O   UNL     1       1.438   8.638  19.705  0.00  0.00    +0.000 OA
ATOM      5  C   UNL     1       1.687   9.021  18.567  0.00  0.00    +0.000 C 
ATOM      6  N   UNL     1       1.217  10.193  17.985  0.00  0.00    +0.000 N 
ATOM      7  H   UNL     1       1.279  10.276  16.974  0.00  0.00    +0.000 HD
BRANCH   6   8
ATOM      8  C   UNL     1       0.543  11.244  18.654  0.00  0.00    +0.000 A 
ATOM      9  C   UNL     1       1.240  12.193  19.416  0.00  0.00    +0.000 A 
ATOM     10  C   UNL     1       0.574  13.260  20.027  0.00  0.00    +0.000 A 
ATOM     11  C   UNL     1      -0.802  13.400  19.891  0.00  0.00    +0.000 A 
ATOM     12  C   UNL     1      -1.516  12.466  19.147  0.00  0.00    +0.000 A 
ATOM     13  C   UNL     1      -0.848  11.399  18.530  0.00  0.00    +0.000 A 
ATOM     14 BR   UNL     1      -1.917  10.172  17.556  0.00  0.00    +0.000 Br
ENDBRANCH   6   8
ENDBRANCH   3   5
ENDBRANCH   1   3
BRANCH   1  15
ATOM     15  C   UNL     1       3.306   5.806  17.812  0.00  0.00    +0.000 C 
BRANCH  15  16
ATOM     16  C   UNL     1       4.720   5.288  17.581  0.00  0.00    +0.000 A 
ATOM     17  C   UNL     1       5.741   5.493  18.523  0.00  0.00    +0.000 A 
ATOM     18  C   UNL     1       7.060   5.141  18.233  0.00  0.00    +0.000 A 
ATOM     19  C   UNL     1       7.379   4.584  16.996  0.00  0.00    +0.000 A 
ATOM     20  C   UNL     1       6.374   4.350  16.062  0.00  0.00    +0.000 A 
ATOM     21  C   UNL     1       5.052   4.686  16.357  0.00  0.00    +0.000 A 
ENDBRANCH  15  16
BRANCH  15  22
ATOM     22  C   UNL     1       2.430   4.844  18.615  0.00  0.00    +0.000 A 
ATOM     23  C   UNL     1       1.852   3.735  17.971  0.00  0.00    +0.000 A 
ATOM     24  C   UNL     1       1.002   2.866  18.660  0.00  0.00    +0.000 A 
ATOM     25  C   UNL     1       0.724   3.083  20.006  0.00  0.00    +0.000 A 
ATOM     26  C   UNL     1       1.305   4.162  20.669  0.00  0.00    +0.000 A 
ATOM     27  C   UNL     1       2.156   5.031  19.982  0.00  0.00    +0.000 A 
ENDBRANCH  15  22
ENDBRANCH   1  15
TORSDOF 6
ENDMDL
MODEL 5
REMARK VINA RESULT:      -8.2      1.330      1.812
REMARK  Name = 
REMARK  6 active torsions:
REMARK  status: ('A' for Active; 'I' for Inactive)
REMARK    1  A    between atoms: C_2  and  C_3
REMARK    2  A    between atoms: C_3  and  N_4
REMARK    3  A    between atoms: N_4  and  C_5
REMARK    4  A    between atoms: C_5  and  C_6
REMARK    5  A    between atoms: C_5  and  C_12
REMARK    6  A    between atoms: N_18  and  C_19
REMARK                            x       y       z     vdW  Elec       q    Type
REMARK                         _______ _______ _______ _____ _____    ______ ____
ROOT
ATOM      1  N   UNL     1       2.695   7.591  18.684  0.00  0.00    +0.000 NA
ATOM      2  H   UNL     1       2.007   7.391  19.415  0.00  0.00    +0.000 HD
ENDROOT
BRANCH   1   3
ATOM      3  C   UNL     1       2.066   8.540  17.744  0.00  0.00    +0.000 C 
BRANCH   3   5
ATOM      4  O   UNL     1       2.003  10.873  18.271  0.00  0.00    +0.000 OA
ATOM      5  C   UNL     1       1.521   9.765  18.484  0.00  0.00    +0.000 C 
ATOM      6  N   UNL     1       0.518   9.481  19.404  0.00  0.00    +0.000 N 
ATOM      7  H   UNL     1       0.382   8.509  19.670  0.00  0.00    +0.000 HD
BRANCH   6   8
ATOM      8  C   UNL     1      -0.261  10.432  20.107  0.00  0.00    +0.000 A 
ATOM      9  C   UNL     1      -1.102  11.330  19.436  0.00  0.00    +0.000 A 
ATOM     10  C   UNL     1      -1.911  12.228  20.140  0.00  0.00    +0.000 A 
ATOM     11  C   UNL     1      -1.896  12.247  21.529  0.00  0.00    +0.000 A 
ATOM     12  C   UNL     1      -1.063  11.371  22.218  0.00  0.00    +0.000 A 
ATOM     13  C   UNL     1      -0.256  10.467  21.512  0.00  0.00    +0.000 A 
ATOM     14 BR   UNL     1       0.856   9.330  22.546  0.00  0.00    +0.000 Br
ENDBRANCH   6   8
ENDBRANCH   3   5
ENDBRANCH   1   3
BRANCH   1  15
ATOM     15  C   UNL     1       3.054   6.295  18.064  0.00  0.00    +0.000 C 
BRANCH  15  16
ATOM     16  C   UNL     1       4.564   6.093  18.036  0.00  0.00    +0.000 A 
ATOM     17  C   UNL     1       5.237   5.434  19.078  0.00  0.00    +0.000 A 
ATOM     18  C   UNL     1       6.632   5.385  19.107  0.00  0.00    +0.000 A 
ATOM     19  C   UNL     1       7.374   5.999  18.099  0.00  0.00    +0.000 A 
ATOM     20  C   UNL     1       6.721   6.633  17.046  0.00  0.00    +0.000 A 
ATOM     21  C   UNL     1       5.327   6.668  17.006  0.00  0.00    +0.000 A 
ENDBRANCH  15  16
BRANCH  15  22
ATOM     22  C   UNL     1       2.297   5.130  18.705  0.00  0.00    +0.000 A 
ATOM     23  C   UNL     1       2.000   3.992  17.934  0.00  0.00    +0.000 A 
ATOM     24  C   UNL     1       1.264   2.933  18.470  0.00  0.00    +0.000 A 
ATOM     25  C   UNL     1       0.821   2.988  19.788  0.00  0.00    +0.000 A 
ATOM     26  C   UNL     1       1.125   4.096  20.576  0.00  0.00    +0.000 A 
ATOM     27  C   UNL     1       1.862   5.155  20.042  0.00  0.00    +0.000 A 
ENDBRANCH  15  22
ENDBRANCH   1  15
TORSDOF 6
ENDMDL
MODEL 6
REMARK VINA RESULT:      -8.2      1.340      1.465
REMARK  Name = 
REMARK  6 active torsions:
REMARK  status: ('A' for Active; 'I' for Inactive)
REMARK    1  A    between atoms: C_2  and  C_3
REMARK    2  A    between atoms: C_3  and  N_4
REMARK    3  A    between atoms: N_4  and  C_5
REMARK    4  A    between atoms: C_5  and  C_6
REMARK    5  A    between atoms: C_5  and  C_12
REMARK    6  A    between atoms: N_18  and  C_19
REMARK                            x       y       z     vdW  Elec       q    Type
REMARK                         _______ _______ _______ _____ _____    ______ ____
ROOT
ATOM      1  N   UNL     1       2.727   7.593  18.606  0.00  0.00    +0.000 NA
ATOM      2  H   UNL     1       2.072   7.399  19.370  0.00  0.00    +0.000 HD
ENDROOT
BRANCH   1   3
ATOM      3  C   UNL     1       2.033   8.485  17.656  0.00  0.00    +0.000 C 
BRANCH   3   5
ATOM      4  O   UNL     1       2.103  10.836  18.092  0.00  0.00    +0.000 OA
ATOM      5  C   UNL     1       1.561   9.766  18.350  0.00  0.00    +0.000 C 
ATOM      6  N   UNL     1       0.551   9.574  19.285  0.00  0.00    +0.000 N 
ATOM      7  H   UNL     1       0.363   8.622  19.589  0.00  0.00    +0.000 HD
BRANCH   6   8
ATOM      8  C   UNL     1      -0.170  10.593  19.954  0.00  0.00    +0.000 A 
ATOM      9  C   UNL     1       0.286  11.141  21.161  0.00  0.00    +0.000 A 
ATOM     10  C   UNL     1      -0.402  12.186  21.787  0.00  0.00    +0.000 A 
ATOM     11  C   UNL     1      -1.561  12.704  21.219  0.00  0.00    +0.000 A 
ATOM     12  C   UNL     1      -2.037  12.171  20.026  0.00  0.00    +0.000 A 
ATOM     13  C   UNL     1      -1.345  11.126  19.397  0.00  0.00    +0.000 A 
ATOM     14 BR   UNL     1      -2.090  10.459  17.785  0.00  0.00    +0.000 Br
ENDBRANCH   6   8
ENDBRANCH   3   5
ENDBRANCH   1   3
BRANCH   1  15
ATOM     15  C   UNL     1       3.106   6.286  18.022  0.00  0.00    +0.000 C 
BRANCH  15  16
ATOM     16  C   UNL     1       4.613   6.070  18.077  0.00  0.00    +0.000 A 
ATOM     17  C   UNL     1       5.216   5.368  19.133  0.00  0.00    +0.000 A 
ATOM     18  C   UNL     1       6.606   5.304  19.245  0.00  0.00    +0.000 A 
ATOM     19  C   UNL     1       7.413   5.946  18.306  0.00  0.00    +0.000 A 
ATOM     20  C   UNL     1       6.830   6.624  17.240  0.00  0.00    +0.000 A 
ATOM     21  C   UNL     1       5.441   6.673  17.117  0.00  0.00    +0.000 A 
ENDBRANCH  15  16
BRANCH  15  22
ATOM     22  C   UNL     1       2.304   5.136  18.634  0.00  0.00    +0.000 A 
ATOM     23  C   UNL     1       1.927   5.201  19.988  0.00  0.00    +0.000 A 
ATOM     24  C   UNL     1       1.242   4.145  20.594  0.00  0.00    +0.000 A 
ATOM     25  C   UNL     1       0.912   3.012  19.856  0.00  0.00    +0.000 A 
ATOM     26  C   UNL     1       1.255   2.938  18.508  0.00  0.00    +0.000 A 
ATOM     27  C   UNL     1       1.939   3.994  17.899  0.00  0.00    +0.000 A 
ENDBRANCH  15  22
ENDBRANCH   1  15
TORSDOF 6
ENDMDL
MODEL 7
REMARK VINA RESULT:      -8.2      1.978      2.308
REMARK  Name = 
REMARK  6 active torsions:
REMARK  status: ('A' for Active; 'I' for Inactive)
REMARK    1  A    between atoms: C_2  and  C_3
REMARK    2  A    between atoms: C_3  and  N_4
REMARK    3  A    between atoms: N_4  and  C_5
REMARK    4  A    between atoms: C_5  and  C_6
REMARK    5  A    between atoms: C_5  and  C_12
REMARK    6  A    between atoms: N_18  and  C_19
REMARK                            x       y       z     vdW  Elec       q    Type
REMARK                         _______ _______ _______ _____ _____    ______ ____
ROOT
ATOM      1  N   UNL     1       3.247   7.248  18.423  0.00  0.00    +0.000 NA
ATOM      2  H   UNL     1       2.816   7.157  19.348  0.00  0.00    +0.000 HD
ENDROOT
BRANCH   1   3
ATOM      3  C   UNL     1       2.516   8.312  17.708  0.00  0.00    +0.000 C 
BRANCH   3   5
ATOM      4  O   UNL     1       1.375   8.620  19.789  0.00  0.00    +0.000 OA
ATOM      5  C   UNL     1       1.525   9.019  18.638  0.00  0.00    +0.000 C 
ATOM      6  N   UNL     1       0.824  10.063  18.045  0.00  0.00    +0.000 N 
ATOM      7  H   UNL     1       0.852  10.134  17.031  0.00  0.00    +0.000 HD
BRANCH   6   8
ATOM      8  C   UNL     1      -0.032  10.975  18.708  0.00  0.00    +0.000 A 
ATOM      9  C   UNL     1       0.450  11.848  19.693  0.00  0.00    +0.000 A 
ATOM     10  C   UNL     1      -0.391  12.785  20.303  0.00  0.00    +0.000 A 
ATOM     11  C   UNL     1      -1.730  12.868  19.942  0.00  0.00    +0.000 A 
ATOM     12  C   UNL     1      -2.234  12.006  18.973  0.00  0.00    +0.000 A 
ATOM     13  C   UNL     1      -1.390  11.071  18.358  0.00  0.00    +0.000 A 
ATOM     14 BR   UNL     1      -2.180   9.931  17.064  0.00  0.00    +0.000 Br
ENDBRANCH   6   8
ENDBRANCH   3   5
ENDBRANCH   1   3
BRANCH   1  15
ATOM     15  C   UNL     1       3.150   5.923  17.770  0.00  0.00    +0.000 C 
BRANCH  15  16
ATOM     16  C   UNL     1       4.521   5.416  17.340  0.00  0.00    +0.000 A 
ATOM     17  C   UNL     1       5.698   6.098  17.685  0.00  0.00    +0.000 A 
ATOM     18  C   UNL     1       6.931   5.703  17.162  0.00  0.00    +0.000 A 
ATOM     19  C   UNL     1       7.003   4.624  16.282  0.00  0.00    +0.000 A 
ATOM     20  C   UNL     1       5.849   3.921  15.951  0.00  0.00    +0.000 A 
ATOM     21  C   UNL     1       4.619   4.304  16.487  0.00  0.00    +0.000 A 
ENDBRANCH  15  16
BRANCH  15  22
ATOM     22  C   UNL     1       2.374   4.922  18.628  0.00  0.00    +0.000 A 
ATOM     23  C   UNL     1       2.461   4.999  20.029  0.00  0.00    +0.000 A 
ATOM     24  C   UNL     1       1.809   4.069  20.842  0.00  0.00    +0.000 A 
ATOM     25  C   UNL     1       1.051   3.052  20.270  0.00  0.00    +0.000 A 
ATOM     26  C   UNL     1       0.932   2.972  18.884  0.00  0.00    +0.000 A 
ATOM     27  C   UNL     1       1.582   3.903  18.069  0.00  0.00    +0.000 A 
ENDBRANCH  15  22
ENDBRANCH   1  15
TORSDOF 6
ENDMDL
MODEL 8
REMARK VINA RESULT:      -8.2      1.785      2.007
REMARK  Name = 
REMARK  6 active torsions:
REMARK  status: ('A' for Active; 'I' for Inactive)
REMARK    1  A    between atoms: C_2  and  C_3
REMARK    2  A    between atoms: C_3  and  N_4
REMARK    3  A    between atoms: N_4  and  C_5
REMARK    4  A    between atoms: C_5  and  C_6
REMARK    5  A    between atoms: C_5  and  C_12
REMARK    6  A    between atoms: N_18  and  C_19
REMARK                            x       y       z     vdW  Elec       q    Type
REMARK                         _______ _______ _______ _____ _____    ______ ____
ROOT
ATOM      1  N   UNL     1       2.984   7.276  18.575  0.00  0.00    +0.000 NA
ATOM      2  H   UNL     1       2.389   7.114  19.393  0.00  0.00    +0.000 HD
ENDROOT
BRANCH   1   3
ATOM      3  C   UNL     1       2.364   8.367  17.797  0.00  0.00    +0.000 C 
BRANCH   3   5
ATOM      4  O   UNL     1       1.300   8.933  19.864  0.00  0.00    +0.000 OA
ATOM      5  C   UNL     1       1.433   9.208  18.676  0.00  0.00    +0.000 C 
ATOM      6  N   UNL     1       0.760  10.218  17.998  0.00  0.00    +0.000 N 
ATOM      7  H   UNL     1       0.761  10.186  16.982  0.00  0.00    +0.000 HD
BRANCH   6   8
ATOM      8  C   UNL     1      -0.036  11.230  18.587  0.00  0.00    +0.000 A 
ATOM      9  C   UNL     1      -1.367  10.993  18.955  0.00  0.00    +0.000 A 
ATOM     10  C   UNL     1      -2.130  11.980  19.588  0.00  0.00    +0.000 A 
ATOM     11  C   UNL     1      -1.577  13.225  19.864  0.00  0.00    +0.000 A 
ATOM     12  C   UNL     1      -0.260  13.487  19.501  0.00  0.00    +0.000 A 
ATOM     13  C   UNL     1       0.505  12.495  18.871  0.00  0.00    +0.000 A 
ATOM     14 BR   UNL     1       2.283  12.961  18.400  0.00  0.00    +0.000 Br
ENDBRANCH   6   8
ENDBRANCH   3   5
ENDBRANCH   1   3
BRANCH   1  15
ATOM     15  C   UNL     1       3.061   5.994  17.838  0.00  0.00    +0.000 C 
BRANCH  15  16
ATOM     16  C   UNL     1       4.506   5.602  17.556  0.00  0.00    +0.000 A 
ATOM     17  C   UNL     1       4.937   5.266  16.263  0.00  0.00    +0.000 A 
ATOM     18  C   UNL     1       6.224   4.770  16.047  0.00  0.00    +0.000 A 
ATOM     19  C   UNL     1       7.096   4.597  17.120  0.00  0.00    +0.000 A 
ATOM     20  C   UNL     1       6.693   4.951  18.404  0.00  0.00    +0.000 A 
ATOM     21  C   UNL     1       5.413   5.463  18.620  0.00  0.00    +0.000 A 
ENDBRANCH  15  16
BRANCH  15  22
ATOM     22  C   UNL     1       2.257   4.892  18.530  0.00  0.00    +0.000 A 
ATOM     23  C   UNL     1       1.880   5.053  19.875  0.00  0.00    +0.000 A 
ATOM     24  C   UNL     1       1.193   4.044  20.554  0.00  0.00    +0.000 A 
ATOM     25  C   UNL     1       0.860   2.863  19.898  0.00  0.00    +0.000 A 
ATOM     26  C   UNL     1       1.202   2.694  18.558  0.00  0.00    +0.000 A 
ATOM     27  C   UNL     1       1.889   3.702  17.877  0.00  0.00    +0.000 A 
ENDBRANCH  15  22
ENDBRANCH   1  15
TORSDOF 6
ENDMDL
MODEL 9
REMARK VINA RESULT:      -8.1      1.462      1.785
REMARK  Name = 
REMARK  6 active torsions:
REMARK  status: ('A' for Active; 'I' for Inactive)
REMARK    1  A    between atoms: C_2  and  C_3
REMARK    2  A    between atoms: C_3  and  N_4
REMARK    3  A    between atoms: N_4  and  C_5
REMARK    4  A    between atoms: C_5  and  C_6
REMARK    5  A    between atoms: C_5  and  C_12
REMARK    6  A    between atoms: N_18  and  C_19
REMARK                            x       y       z     vdW  Elec       q    Type
REMARK                         _______ _______ _______ _____ _____    ______ ____
ROOT
ATOM      1  N   UNL     1       2.758   7.343  18.508  0.00  0.00    +0.000 NA
ATOM      2  H   UNL     1       1.970   7.244  19.155  0.00  0.00    +0.000 HD
ENDROOT
BRANCH   1   3
ATOM      3  C   UNL     1       2.398   8.402  17.545  0.00  0.00    +0.000 C 
BRANCH   3   5
ATOM      4  O   UNL     1       2.336  10.743  18.039  0.00  0.00    +0.000 OA
ATOM      5  C   UNL     1       1.852   9.638  18.267  0.00  0.00    +0.000 C 
ATOM      6  N   UNL     1       0.848   9.368  19.189  0.00  0.00    +0.000 N 
ATOM      7  H   UNL     1       0.711   8.400  19.468  0.00  0.00    +0.000 HD
BRANCH   6   8
ATOM      8  C   UNL     1       0.068  10.328  19.878  0.00  0.00    +0.000 A 
ATOM      9  C   UNL     1       0.461  10.833  21.125  0.00  0.00    +0.000 A 
ATOM     10  C   UNL     1      -0.285  11.823  21.773  0.00  0.00    +0.000 A 
ATOM     11  C   UNL     1      -1.440  12.328  21.188  0.00  0.00    +0.000 A 
ATOM     12  C   UNL     1      -1.855  11.837  19.954  0.00  0.00    +0.000 A 
ATOM     13  C   UNL     1      -1.104  10.848  19.303  0.00  0.00    +0.000 A 
ATOM     14 BR   UNL     1      -1.767  10.234  17.635  0.00  0.00    +0.000 Br
ENDBRANCH   6   8
ENDBRANCH   3   5
ENDBRANCH   1   3
BRANCH   1  15
ATOM     15  C   UNL     1       2.967   6.019  17.879  0.00  0.00    +0.000 C 
BRANCH  15  16
ATOM     16  C   UNL     1       4.450   5.712  17.712  0.00  0.00    +0.000 A 
ATOM     17  C   UNL     1       5.011   5.464  16.449  0.00  0.00    +0.000 A 
ATOM     18  C   UNL     1       6.337   5.043  16.328  0.00  0.00    +0.000 A 
ATOM     19  C   UNL     1       7.118   4.857  17.468  0.00  0.00    +0.000 A 
ATOM     20  C   UNL     1       6.584   5.124  18.725  0.00  0.00    +0.000 A 
ATOM     21  C   UNL     1       5.265   5.562  18.846  0.00  0.00    +0.000 A 
ENDBRANCH  15  16
BRANCH  15  22
ATOM     22  C   UNL     1       2.197   4.916  18.607  0.00  0.00    +0.000 A 
ATOM     23  C   UNL     1       1.882   5.077  19.968  0.00  0.00    +0.000 A 
ATOM     24  C   UNL     1       1.228   4.067  20.679  0.00  0.00    +0.000 A 
ATOM     25  C   UNL     1       0.867   2.885  20.039  0.00  0.00    +0.000 A 
ATOM     26  C   UNL     1       1.149   2.715  18.685  0.00  0.00    +0.000 A 
ATOM     27  C   UNL     1       1.802   3.724  17.973  0.00  0.00    +0.000 A 
ENDBRANCH  15  22
ENDBRANCH   1  15
TORSDOF 6
ENDMDL
