MODEL 1
REMARK VINA RESULT:      -7.3      0.000      0.000
REMARK  Name = 
REMARK  4 active torsions:
REMARK  status: ('A' for Active; 'I' for Inactive)
REMARK    1  A    between atoms: C_1  and  C_2
REMARK    2  A    between atoms: C_5  and  C_6
REMARK    3  A    between atoms: C_7  and  N_8
REMARK    4  A    between atoms: C_9  and  C_11
REMARK                            x       y       z     vdW  Elec       q    Type
REMARK                         _______ _______ _______ _____ _____    ______ ____
ROOT
ATOM      1  N   UNL     1       4.312   5.053  17.592  0.00  0.00    +0.000 N 
ATOM      2  C   UNL     1       5.681   4.841  17.644  0.00  0.00    +0.000 C 
ATOM      3  O   UNL     1       6.331   4.621  18.664  0.00  0.00    +0.000 OA
ATOM      4  H   UNL     1       3.911   4.958  16.665  0.00  0.00    +0.000 HD
ENDROOT
BRANCH   1  11
ATOM      5  C   UNL     1       2.424   2.656  21.491  0.00  0.00    +0.000 C 
ATOM      6  C   UNL     1       2.510   3.885  20.634  0.00  0.00    +0.000 A 
ATOM      7  C   UNL     1       1.804   5.044  20.965  0.00  0.00    +0.000 A 
ATOM      8  C   UNL     1       1.931   6.195  20.186  0.00  0.00    +0.000 A 
ATOM      9  C   UNL     1       2.774   6.217  19.063  0.00  0.00    +0.000 A 
ATOM     10  C   UNL     1       2.842   7.459  18.220  0.00  0.00    +0.000 C 
ATOM     11  C   UNL     1       3.464   5.045  18.711  0.00  0.00    +0.000 A 
ATOM     12  C   UNL     1       3.325   3.890  19.493  0.00  0.00    +0.000 A 
ENDBRANCH   1  11
BRANCH   2  13
ATOM     13  C   UNL     1       6.296   4.816  16.291  0.00  0.00    +0.000 A 
ATOM     14  N   UNL     1       5.899   3.963  15.278  0.00  0.00    +0.000 NA
ATOM     15  C   UNL     1       6.698   4.259  14.283  0.00  0.00    +0.000 A 
ATOM     16  N   UNL     1       7.554   5.238  14.668  0.00  0.00    +0.000 N 
ATOM     17  N   UNL     1       7.297   5.651  15.922  0.00  0.00    +0.000 NA
ATOM     18  H   UNL     1       8.311   5.665  14.146  0.00  0.00    +0.000 HD
ENDBRANCH   2  13
TORSDOF 2
ENDMDL
MODEL 2
REMARK VINA RESULT:      -7.3      0.924      2.128
REMARK  Name = 
REMARK  4 active torsions:
REMARK  status: ('A' for Active; 'I' for Inactive)
REMARK    1  A    between atoms: C_1  and  C_2
REMARK    2  A    between atoms: C_5  and  C_6
REMARK    3  A    between atoms: C_7  and  N_8
REMARK    4  A    between atoms: C_9  and  C_11
REMARK                            x       y       z     vdW  Elec       q    Type
REMARK                         _______ _______ _______ _____ _____    ______ ____
ROOT
ATOM      1  N   UNL     1       4.125   4.824  17.346  0.00  0.00    +0.000 N 
ATOM      2  C   UNL     1       5.492   4.650  17.503  0.00  0.00    +0.000 C 
ATOM      3  O   UNL     1       6.061   4.381  18.559  0.00  0.00    +0.000 OA
ATOM      4  H   UNL     1       3.808   4.780  16.384  0.00  0.00    +0.000 HD
ENDROOT
BRANCH   1  11
ATOM      5  C   UNL     1       1.525   6.953  20.982  0.00  0.00    +0.000 C 
ATOM      6  C   UNL     1       1.899   5.735  20.189  0.00  0.00    +0.000 A 
ATOM      7  C   UNL     1       1.285   4.504  20.428  0.00  0.00    +0.000 A 
ATOM      8  C   UNL     1       1.608   3.390  19.650  0.00  0.00    +0.000 A 
ATOM      9  C   UNL     1       2.546   3.485  18.610  0.00  0.00    +0.000 A 
ATOM     10  C   UNL     1       2.906   2.250  17.831  0.00  0.00    +0.000 C 
ATOM     11  C   UNL     1       3.186   4.714  18.385  0.00  0.00    +0.000 A 
ATOM     12  C   UNL     1       2.863   5.827  19.175  0.00  0.00    +0.000 A 
ENDBRANCH   1  11
BRANCH   2  13
ATOM     13  C   UNL     1       6.219   4.737  16.209  0.00  0.00    +0.000 A 
ATOM     14  N   UNL     1       5.923   3.962  15.104  0.00  0.00    +0.000 NA
ATOM     15  C   UNL     1       6.798   4.341  14.207  0.00  0.00    +0.000 A 
ATOM     16  N   UNL     1       7.603   5.295  14.738  0.00  0.00    +0.000 N 
ATOM     17  N   UNL     1       7.235   5.607  15.993  0.00  0.00    +0.000 NA
ATOM     18  H   UNL     1       8.395   5.768  14.317  0.00  0.00    +0.000 HD
ENDBRANCH   2  13
TORSDOF 2
ENDMDL
MODEL 3
REMARK VINA RESULT:      -7.1      2.854      6.089
REMARK  Name = 
REMARK  4 active torsions:
REMARK  status: ('A' for Active; 'I' for Inactive)
REMARK    1  A    between atoms: C_1  and  C_2
REMARK    2  A    between atoms: C_5  and  C_6
REMARK    3  A    between atoms: C_7  and  N_8
REMARK    4  A    between atoms: C_9  and  C_11
REMARK                            x       y       z     vdW  Elec       q    Type
REMARK                         _______ _______ _______ _____ _____    ______ ____
ROOT
ATOM      1  N   UNL     1       4.005   4.100  18.290  0.00  0.00    +0.000 N 
ATOM      2  C   UNL     1       3.448   2.858  18.550  0.00  0.00    +0.000 C 
ATOM      3  O   UNL     1       3.792   1.798  18.032  0.00  0.00    +0.000 OA
ATOM      4  H   UNL     1       3.787   4.808  18.983  0.00  0.00    +0.000 HD
ENDROOT
BRANCH   1  11
ATOM      5  C   UNL     1       5.775   3.874  13.672  0.00  0.00    +0.000 C 
ATOM      6  C   UNL     1       5.957   4.217  15.121  0.00  0.00    +0.000 A 
ATOM      7  C   UNL     1       7.135   4.812  15.577  0.00  0.00    +0.000 A 
ATOM      8  C   UNL     1       7.273   5.170  16.919  0.00  0.00    +0.000 A 
ATOM      9  C   UNL     1       6.232   4.949  17.834  0.00  0.00    +0.000 A 
ATOM     10  C   UNL     1       6.439   5.299  19.281  0.00  0.00    +0.000 C 
ATOM     11  C   UNL     1       5.056   4.325  17.386  0.00  0.00    +0.000 A 
ATOM     12  C   UNL     1       4.928   3.961  16.038  0.00  0.00    +0.000 A 
ENDBRANCH   1  11
BRANCH   2  13
ATOM     13  C   UNL     1       2.417   2.920  19.621  0.00  0.00    +0.000 A 
ATOM     14  N   UNL     1       2.683   2.713  20.961  0.00  0.00    +0.000 NA
ATOM     15  C   UNL     1       1.515   2.842  21.539  0.00  0.00    +0.000 A 
ATOM     16  N   UNL     1       0.573   3.102  20.599  0.00  0.00    +0.000 N 
ATOM     17  N   UNL     1       1.117   3.207  19.373  0.00  0.00    +0.000 NA
ATOM     18  H   UNL     1      -0.427   3.223  20.715  0.00  0.00    +0.000 HD
ENDBRANCH   2  13
TORSDOF 2
ENDMDL
MODEL 4
REMARK VINA RESULT:      -7.0      2.540      6.052
REMARK  Name = 
REMARK  4 active torsions:
REMARK  status: ('A' for Active; 'I' for Inactive)
REMARK    1  A    between atoms: C_1  and  C_2
REMARK    2  A    between atoms: C_5  and  C_6
REMARK    3  A    between atoms: C_7  and  N_8
REMARK    4  A    between atoms: C_9  and  C_11
REMARK                            x       y       z     vdW  Elec       q    Type
REMARK                         _______ _______ _______ _____ _____    ______ ____
ROOT
ATOM      1  N   UNL     1       4.354   3.881  18.515  0.00  0.00    +0.000 N 
ATOM      2  C   UNL     1       3.101   4.447  18.690  0.00  0.00    +0.000 C 
ATOM      3  O   UNL     1       2.626   5.355  18.011  0.00  0.00    +0.000 OA
ATOM      4  H   UNL     1       4.476   2.988  18.981  0.00  0.00    +0.000 HD
ENDROOT
BRANCH   1  11
ATOM      5  C   UNL     1       5.737   3.887  13.761  0.00  0.00    +0.000 C 
ATOM      6  C   UNL     1       5.980   4.280  15.189  0.00  0.00    +0.000 A 
ATOM      7  C   UNL     1       7.071   5.077  15.540  0.00  0.00    +0.000 A 
ATOM      8  C   UNL     1       7.258   5.476  16.865  0.00  0.00    +0.000 A 
ATOM      9  C   UNL     1       6.352   5.094  17.867  0.00  0.00    +0.000 A 
ATOM     10  C   UNL     1       6.618   5.499  19.290  0.00  0.00    +0.000 C 
ATOM     11  C   UNL     1       5.269   4.269  17.523  0.00  0.00    +0.000 A 
ATOM     12  C   UNL     1       5.092   3.866  16.192  0.00  0.00    +0.000 A 
ENDBRANCH   1  11
BRANCH   2  13
ATOM     13  C   UNL     1       2.324   3.767  19.760  0.00  0.00    +0.000 A 
ATOM     14  N   UNL     1       2.897   3.046  20.791  0.00  0.00    +0.000 NA
ATOM     15  C   UNL     1       1.873   2.613  21.483  0.00  0.00    +0.000 A 
ATOM     16  N   UNL     1       0.724   3.036  20.899  0.00  0.00    +0.000 N 
ATOM     17  N   UNL     1       0.972   3.812  19.829  0.00  0.00    +0.000 NA
ATOM     18  H   UNL     1      -0.235   2.846  21.168  0.00  0.00    +0.000 HD
ENDBRANCH   2  13
TORSDOF 2
ENDMDL
MODEL 5
REMARK VINA RESULT:      -7.0      2.512      5.716
REMARK  Name = 
REMARK  4 active torsions:
REMARK  status: ('A' for Active; 'I' for Inactive)
REMARK    1  A    between atoms: C_1  and  C_2
REMARK    2  A    between atoms: C_5  and  C_6
REMARK    3  A    between atoms: C_7  and  N_8
REMARK    4  A    between atoms: C_9  and  C_11
REMARK                            x       y       z     vdW  Elec       q    Type
REMARK                         _______ _______ _______ _____ _____    ______ ____
ROOT
ATOM      1  N   UNL     1       3.460   4.224  18.241  0.00  0.00    +0.000 N 
ATOM      2  C   UNL     1       4.028   3.607  19.345  0.00  0.00    +0.000 C 
ATOM      3  O   UNL     1       5.233   3.492  19.558  0.00  0.00    +0.000 OA
ATOM      4  H   UNL     1       2.479   4.457  18.354  0.00  0.00    +0.000 HD
ENDROOT
BRANCH   1  11
ATOM      5  C   UNL     1       6.219   3.723  14.161  0.00  0.00    +0.000 C 
ATOM      6  C   UNL     1       5.560   4.596  15.190  0.00  0.00    +0.000 A 
ATOM      7  C   UNL     1       5.613   5.988  15.093  0.00  0.00    +0.000 A 
ATOM      8  C   UNL     1       4.956   6.787  16.030  0.00  0.00    +0.000 A 
ATOM      9  C   UNL     1       4.223   6.212  17.080  0.00  0.00    +0.000 A 
ATOM     10  C   UNL     1       3.575   7.107  18.099  0.00  0.00    +0.000 C 
ATOM     11  C   UNL     1       4.191   4.813  17.197  0.00  0.00    +0.000 A 
ATOM     12  C   UNL     1       4.860   4.017  16.257  0.00  0.00    +0.000 A 
ENDBRANCH   1  11
BRANCH   2  13
ATOM     13  C   UNL     1       3.003   3.160  20.326  0.00  0.00    +0.000 A 
ATOM     14  N   UNL     1       1.644   3.358  20.167  0.00  0.00    +0.000 NA
ATOM     15  C   UNL     1       1.120   2.835  21.247  0.00  0.00    +0.000 A 
ATOM     16  N   UNL     1       2.108   2.350  22.039  0.00  0.00    +0.000 N 
ATOM     17  N   UNL     1       3.315   2.496  21.464  0.00  0.00    +0.000 NA
ATOM     18  H   UNL     1       2.038   1.916  22.952  0.00  0.00    +0.000 HD
ENDBRANCH   2  13
TORSDOF 2
ENDMDL
MODEL 6
REMARK VINA RESULT:      -6.9      2.821      6.024
REMARK  Name = 
REMARK  4 active torsions:
REMARK  status: ('A' for Active; 'I' for Inactive)
REMARK    1  A    between atoms: C_1  and  C_2
REMARK    2  A    between atoms: C_5  and  C_6
REMARK    3  A    between atoms: C_7  and  N_8
REMARK    4  A    between atoms: C_9  and  C_11
REMARK                            x       y       z     vdW  Elec       q    Type
REMARK                         _______ _______ _______ _____ _____    ______ ____
ROOT
ATOM      1  N   UNL     1       4.097   3.949  18.531  0.00  0.00    +0.000 N 
ATOM      2  C   UNL     1       4.181   2.918  19.454  0.00  0.00    +0.000 C 
ATOM      3  O   UNL     1       5.131   2.148  19.580  0.00  0.00    +0.000 OA
ATOM      4  H   UNL     1       3.377   4.633  18.736  0.00  0.00    +0.000 HD
ENDROOT
BRANCH   1  11
ATOM      5  C   UNL     1       5.784   3.801  13.879  0.00  0.00    +0.000 C 
ATOM      6  C   UNL     1       5.958   4.197  15.316  0.00  0.00    +0.000 A 
ATOM      7  C   UNL     1       7.074   4.926  15.731  0.00  0.00    +0.000 A 
ATOM      8  C   UNL     1       7.200   5.330  17.062  0.00  0.00    +0.000 A 
ATOM      9  C   UNL     1       6.208   5.021  18.005  0.00  0.00    +0.000 A 
ATOM     10  C   UNL     1       6.407   5.426  19.439  0.00  0.00    +0.000 C 
ATOM     11  C   UNL     1       5.098   4.263  17.598  0.00  0.00    +0.000 A 
ATOM     12  C   UNL     1       4.982   3.855  16.262  0.00  0.00    +0.000 A 
ENDBRANCH   1  11
BRANCH   2  13
ATOM     13  C   UNL     1       3.009   2.887  20.369  0.00  0.00    +0.000 A 
ATOM     14  N   UNL     1       1.730   3.258  19.997  0.00  0.00    +0.000 NA
ATOM     15  C   UNL     1       1.025   3.098  21.089  0.00  0.00    +0.000 A 
ATOM     16  N   UNL     1       1.831   2.661  22.087  0.00  0.00    +0.000 N 
ATOM     17  N   UNL     1       3.090   2.469  21.654  0.00  0.00    +0.000 NA
ATOM     18  H   UNL     1       1.601   2.472  23.056  0.00  0.00    +0.000 HD
ENDBRANCH   2  13
TORSDOF 2
ENDMDL
MODEL 7
REMARK VINA RESULT:      -6.9      0.500      1.002
REMARK  Name = 
REMARK  4 active torsions:
REMARK  status: ('A' for Active; 'I' for Inactive)
REMARK    1  A    between atoms: C_1  and  C_2
REMARK    2  A    between atoms: C_5  and  C_6
REMARK    3  A    between atoms: C_7  and  N_8
REMARK    4  A    between atoms: C_9  and  C_11
REMARK                            x       y       z     vdW  Elec       q    Type
REMARK                         _______ _______ _______ _____ _____    ______ ____
ROOT
ATOM      1  N   UNL     1       4.182   4.895  17.398  0.00  0.00    +0.000 N 
ATOM      2  C   UNL     1       5.568   4.912  17.395  0.00  0.00    +0.000 C 
ATOM      3  O   UNL     1       6.282   5.058  18.385  0.00  0.00    +0.000 OA
ATOM      4  H   UNL     1       3.768   4.510  16.555  0.00  0.00    +0.000 HD
ENDROOT
BRANCH   1  11
ATOM      5  C   UNL     1       2.200   2.933  21.488  0.00  0.00    +0.000 C 
ATOM      6  C   UNL     1       2.391   4.099  20.564  0.00  0.00    +0.000 A 
ATOM      7  C   UNL     1       1.839   5.348  20.858  0.00  0.00    +0.000 A 
ATOM      8  C   UNL     1       2.064   6.437  20.013  0.00  0.00    +0.000 A 
ATOM      9  C   UNL     1       2.854   6.304  18.861  0.00  0.00    +0.000 A 
ATOM     10  C   UNL     1       3.029   7.486  17.949  0.00  0.00    +0.000 C 
ATOM     11  C   UNL     1       3.388   5.043  18.547  0.00  0.00    +0.000 A 
ATOM     12  C   UNL     1       3.150   3.952  19.395  0.00  0.00    +0.000 A 
ENDBRANCH   1  11
BRANCH   2  13
ATOM     13  C   UNL     1       6.129   4.639  16.045  0.00  0.00    +0.000 A 
ATOM     14  N   UNL     1       7.053   5.452  15.415  0.00  0.00    +0.000 NA
ATOM     15  C   UNL     1       7.258   4.862  14.263  0.00  0.00    +0.000 A 
ATOM     16  N   UNL     1       6.490   3.749  14.183  0.00  0.00    +0.000 N 
ATOM     17  N   UNL     1       5.794   3.548  15.317  0.00  0.00    +0.000 NA
ATOM     18  H   UNL     1       6.394   3.094  13.415  0.00  0.00    +0.000 HD
ENDBRANCH   2  13
TORSDOF 2
ENDMDL
MODEL 8
REMARK VINA RESULT:      -6.8      2.732      5.891
REMARK  Name = 
REMARK  4 active torsions:
REMARK  status: ('A' for Active; 'I' for Inactive)
REMARK    1  A    between atoms: C_1  and  C_2
REMARK    2  A    between atoms: C_5  and  C_6
REMARK    3  A    between atoms: C_7  and  N_8
REMARK    4  A    between atoms: C_9  and  C_11
REMARK                            x       y       z     vdW  Elec       q    Type
REMARK                         _______ _______ _______ _____ _____    ______ ____
ROOT
ATOM      1  N   UNL     1       3.656   4.514  18.414  0.00  0.00    +0.000 N 
ATOM      2  C   UNL     1       2.446   3.839  18.394  0.00  0.00    +0.000 C 
ATOM      3  O   UNL     1       1.780   3.595  17.390  0.00  0.00    +0.000 OA
ATOM      4  H   UNL     1       4.184   4.397  19.273  0.00  0.00    +0.000 HD
ENDROOT
BRANCH   1  11
ATOM      5  C   UNL     1       6.257   3.709  14.279  0.00  0.00    +0.000 C 
ATOM      6  C   UNL     1       5.592   4.654  15.236  0.00  0.00    +0.000 A 
ATOM      7  C   UNL     1       5.554   6.026  14.983  0.00  0.00    +0.000 A 
ATOM      8  C   UNL     1       4.891   6.889  15.857  0.00  0.00    +0.000 A 
ATOM      9  C   UNL     1       4.242   6.397  17.001  0.00  0.00    +0.000 A 
ATOM     10  C   UNL     1       3.585   7.364  17.946  0.00  0.00    +0.000 C 
ATOM     11  C   UNL     1       4.302   5.020  17.274  0.00  0.00    +0.000 A 
ATOM     12  C   UNL     1       4.978   4.161  16.396  0.00  0.00    +0.000 A 
ENDBRANCH   1  11
BRANCH   2  13
ATOM     13  C   UNL     1       2.059   3.342  19.741  0.00  0.00    +0.000 A 
ATOM     14  N   UNL     1       2.953   2.817  20.656  0.00  0.00    +0.000 NA
ATOM     15  C   UNL     1       2.204   2.495  21.681  0.00  0.00    +0.000 A 
ATOM     16  N   UNL     1       0.910   2.796  21.407  0.00  0.00    +0.000 N 
ATOM     17  N   UNL     1       0.786   3.381  20.201  0.00  0.00    +0.000 NA
ATOM     18  H   UNL     1       0.085   2.643  21.976  0.00  0.00    +0.000 HD
ENDBRANCH   2  13
TORSDOF 2
ENDMDL
MODEL 9
REMARK VINA RESULT:      -6.7      3.482      4.820
REMARK  Name = 
REMARK  4 active torsions:
REMARK  status: ('A' for Active; 'I' for Inactive)
REMARK    1  A    between atoms: C_1  and  C_2
REMARK    2  A    between atoms: C_5  and  C_6
REMARK    3  A    between atoms: C_7  and  N_8
REMARK    4  A    between atoms: C_9  and  C_11
REMARK                            x       y       z     vdW  Elec       q    Type
REMARK                         _______ _______ _______ _____ _____    ______ ____
ROOT
ATOM      1  N   UNL     1       2.767   6.366  20.039  0.00  0.00    +0.000 N 
ATOM      2  C   UNL     1       2.281   5.069  20.100  0.00  0.00    +0.000 C 
ATOM      3  O   UNL     1       1.098   4.754  20.208  0.00  0.00    +0.000 OA
ATOM      4  H   UNL     1       3.718   6.438  19.692  0.00  0.00    +0.000 HD
ENDROOT
BRANCH   1  11
ATOM      5  C   UNL     1      -0.274   9.326  22.588  0.00  0.00    +0.000 C 
ATOM      6  C   UNL     1       0.458   8.989  21.322  0.00  0.00    +0.000 A 
ATOM      7  C   UNL     1       0.401   9.835  20.212  0.00  0.00    +0.000 A 
ATOM      8  C   UNL     1       1.125   9.534  19.057  0.00  0.00    +0.000 A 
ATOM      9  C   UNL     1       1.929   8.385  18.989  0.00  0.00    +0.000 A 
ATOM     10  C   UNL     1       2.650   8.069  17.708  0.00  0.00    +0.000 C 
ATOM     11  C   UNL     1       1.966   7.518  20.093  0.00  0.00    +0.000 A 
ATOM     12  C   UNL     1       1.230   7.822  21.246  0.00  0.00    +0.000 A 
ENDBRANCH   1  11
BRANCH   2  13
ATOM     13  C   UNL     1       3.358   4.058  19.926  0.00  0.00    +0.000 A 
ATOM     14  N   UNL     1       3.285   2.763  20.403  0.00  0.00    +0.000 NA
ATOM     15  C   UNL     1       4.430   2.232  20.052  0.00  0.00    +0.000 A 
ATOM     16  N   UNL     1       5.176   3.158  19.401  0.00  0.00    +0.000 N 
ATOM     17  N   UNL     1       4.508   4.317  19.259  0.00  0.00    +0.000 NA
ATOM     18  H   UNL     1       6.116   3.074  19.031  0.00  0.00    +0.000 HD
ENDBRANCH   2  13
TORSDOF 2
ENDMDL
