MODEL 1
REMARK VINA RESULT:      -7.7      0.000      0.000
REMARK  Name = 
REMARK  7 active torsions:
REMARK  status: ('A' for Active; 'I' for Inactive)
REMARK    1  A    between atoms: C_1  and  C_2
REMARK    2  A    between atoms: C_2  and  C_3
REMARK    3  A    between atoms: C_3  and  C_4
REMARK    4  A    between atoms: C_7  and  C_8
REMARK    5  A    between atoms: C_11  and  C_12
REMARK    6  A    between atoms: C_12  and  O_14
REMARK    7  A    between atoms: O_14  and  C_15
REMARK                            x       y       z     vdW  Elec       q    Type
REMARK                         _______ _______ _______ _____ _____    ______ ____
ROOT
ATOM      1  C   UNL     1       2.978   6.695  18.518  0.00  0.00    +0.000 A 
ATOM      2  C   UNL     1       2.609   6.067  19.723  0.00  0.00    +0.000 A 
ATOM      3  C   UNL     1       1.785   6.706  20.656  0.00  0.00    +0.000 A 
ATOM      4  C   UNL     1       1.313   7.997  20.412  0.00  0.00    +0.000 A 
ATOM      5  C   UNL     1       1.678   8.647  19.228  0.00  0.00    +0.000 A 
ATOM      6  C   UNL     1       2.502   8.001  18.299  0.00  0.00    +0.000 A 
ENDROOT
BRANCH   1  10
ATOM      7  C   UNL     1       5.332   4.635  15.646  0.00  0.00    +0.000 A 
ATOM      8  C   UNL     1       5.389   6.027  15.678  0.00  0.00    +0.000 A 
ATOM      9  C   UNL     1       4.645   6.728  16.625  0.00  0.00    +0.000 A 
ATOM     10  C   UNL     1       3.846   6.028  17.526  0.00  0.00    +0.000 A 
ATOM     11  N   UNL     1       3.809   4.671  17.534  0.00  0.00    +0.000 NA
ATOM     12  C   UNL     1       4.542   4.015  16.606  0.00  0.00    +0.000 A 
BRANCH   7  13
ATOM     13  C   UNL     1       6.100   3.843  14.623  0.00  0.00    +0.000 C 
BRANCH  13  15
ATOM     14  C   UNL     1       6.118   3.037  12.233  0.00  0.00    +0.000 C 
ATOM     15  C   UNL     1       5.606   4.096  13.196  0.00  0.00    +0.000 C 
ENDBRANCH  13  15
ENDBRANCH   7  13
ENDBRANCH   1  10
BRANCH   4  16
ATOM     16  C   UNL     1       0.356   8.589  21.387  0.00  0.00    +0.000 C 
ATOM     17  O   UNL     1      -0.673   8.037  21.750  0.00  0.00    +0.000 OA
BRANCH  16  18
ATOM     18  O   UNL     1       0.762   9.867  21.712  0.00  0.00    +0.000 OA
BRANCH  18  19
ATOM     19  C   UNL     1      -0.262  10.823  21.757  0.00  0.00    +0.000 A 
ATOM     20  C   UNL     1      -0.698  11.355  20.545  0.00  0.00    +0.000 A 
ATOM     21  C   UNL     1      -1.813  12.194  20.529  0.00  0.00    +0.000 A 
ATOM     22  C   UNL     1      -2.485  12.479  21.719  0.00  0.00    +0.000 A 
ATOM     23 BR   UNL     1      -4.018  13.586  21.692  0.00  0.00    +0.000 Br
ATOM     24  C   UNL     1      -2.052  11.941  22.929  0.00  0.00    +0.000 A 
ATOM     25  C   UNL     1      -0.940  11.101  22.949  0.00  0.00    +0.000 A 
ENDBRANCH  18  19
ENDBRANCH  16  18
ENDBRANCH   4  16
TORSDOF 6
ENDMDL
MODEL 2
REMARK VINA RESULT:      -7.6      1.656      2.016
REMARK  Name = 
REMARK  7 active torsions:
REMARK  status: ('A' for Active; 'I' for Inactive)
REMARK    1  A    between atoms: C_1  and  C_2
REMARK    2  A    between atoms: C_2  and  C_3
REMARK    3  A    between atoms: C_3  and  C_4
REMARK    4  A    between atoms: C_7  and  C_8
REMARK    5  A    between atoms: C_11  and  C_12
REMARK    6  A    between atoms: C_12  and  O_14
REMARK    7  A    between atoms: O_14  and  C_15
REMARK                            x       y       z     vdW  Elec       q    Type
REMARK                         _______ _______ _______ _____ _____    ______ ____
ROOT
ATOM      1  C   UNL     1       2.961   7.216  18.263  0.00  0.00    +0.000 A 
ATOM      2  C   UNL     1       2.529   6.861  19.556  0.00  0.00    +0.000 A 
ATOM      3  C   UNL     1       1.661   7.679  20.285  0.00  0.00    +0.000 A 
ATOM      4  C   UNL     1       1.205   8.883  19.744  0.00  0.00    +0.000 A 
ATOM      5  C   UNL     1       1.632   9.263  18.466  0.00  0.00    +0.000 A 
ATOM      6  C   UNL     1       2.501   8.438  17.742  0.00  0.00    +0.000 A 
ENDROOT
BRANCH   1  10
ATOM      7  C   UNL     1       5.433   4.638  15.964  0.00  0.00    +0.000 A 
ATOM      8  C   UNL     1       5.790   5.982  16.072  0.00  0.00    +0.000 A 
ATOM      9  C   UNL     1       5.010   6.845  16.838  0.00  0.00    +0.000 A 
ATOM     10  C   UNL     1       3.876   6.356  17.485  0.00  0.00    +0.000 A 
ATOM     11  N   UNL     1       3.538   5.043  17.423  0.00  0.00    +0.000 NA
ATOM     12  C   UNL     1       4.313   4.226  16.674  0.00  0.00    +0.000 A 
BRANCH   7  13
ATOM     13  C   UNL     1       6.234   3.680  15.126  0.00  0.00    +0.000 C 
BRANCH  13  15
ATOM     14  C   UNL     1       6.981   4.306  12.799  0.00  0.00    +0.000 C 
ATOM     15  C   UNL     1       5.851   3.738  13.645  0.00  0.00    +0.000 C 
ENDBRANCH  13  15
ENDBRANCH   7  13
ENDBRANCH   1  10
BRANCH   4  16
ATOM     16  C   UNL     1       0.202   9.664  20.518  0.00  0.00    +0.000 C 
ATOM     17  O   UNL     1      -0.465   9.198  21.430  0.00  0.00    +0.000 OA
BRANCH  16  18
ATOM     18  O   UNL     1       0.082  10.927  19.973  0.00  0.00    +0.000 OA
BRANCH  18  19
ATOM     19  C   UNL     1      -1.162  11.209  19.394  0.00  0.00    +0.000 A 
ATOM     20  C   UNL     1      -1.568  10.415  18.323  0.00  0.00    +0.000 A 
ATOM     21  C   UNL     1      -2.859  10.561  17.815  0.00  0.00    +0.000 A 
ATOM     22  C   UNL     1      -3.732  11.487  18.390  0.00  0.00    +0.000 A 
ATOM     23 BR   UNL     1      -5.493  11.659  17.725  0.00  0.00    +0.000 Br
ATOM     24  C   UNL     1      -3.327  12.275  19.466  0.00  0.00    +0.000 A 
ATOM     25  C   UNL     1      -2.039  12.130  19.977  0.00  0.00    +0.000 A 
ENDBRANCH  18  19
ENDBRANCH  16  18
ENDBRANCH   4  16
TORSDOF 6
ENDMDL
MODEL 3
REMARK VINA RESULT:      -7.6      2.046      3.049
REMARK  Name = 
REMARK  7 active torsions:
REMARK  status: ('A' for Active; 'I' for Inactive)
REMARK    1  A    between atoms: C_1  and  C_2
REMARK    2  A    between atoms: C_2  and  C_3
REMARK    3  A    between atoms: C_3  and  C_4
REMARK    4  A    between atoms: C_7  and  C_8
REMARK    5  A    between atoms: C_11  and  C_12
REMARK    6  A    between atoms: C_12  and  O_14
REMARK    7  A    between atoms: O_14  and  C_15
REMARK                            x       y       z     vdW  Elec       q    Type
REMARK                         _______ _______ _______ _____ _____    ______ ____
ROOT
ATOM      1  C   UNL     1       2.214   7.878  18.559  0.00  0.00    +0.000 A 
ATOM      2  C   UNL     1       1.847   9.022  17.825  0.00  0.00    +0.000 A 
ATOM      3  C   UNL     1       1.113  10.059  18.409  0.00  0.00    +0.000 A 
ATOM      4  C   UNL     1       0.718   9.977  19.746  0.00  0.00    +0.000 A 
ATOM      5  C   UNL     1       1.059   8.843  20.492  0.00  0.00    +0.000 A 
ATOM      6  C   UNL     1       1.795   7.810  19.900  0.00  0.00    +0.000 A 
ENDROOT
BRANCH   1  10
ATOM      7  C   UNL     1       4.615   4.823  16.843  0.00  0.00    +0.000 A 
ATOM      8  C   UNL     1       3.480   4.453  17.562  0.00  0.00    +0.000 A 
ATOM      9  C   UNL     1       2.661   5.434  18.116  0.00  0.00    +0.000 A 
ATOM     10  C   UNL     1       2.991   6.778  17.951  0.00  0.00    +0.000 A 
ATOM     11  N   UNL     1       4.071   7.157  17.220  0.00  0.00    +0.000 NA
ATOM     12  C   UNL     1       4.847   6.184  16.691  0.00  0.00    +0.000 A 
BRANCH   7  13
ATOM     13  C   UNL     1       5.537   3.794  16.250  0.00  0.00    +0.000 C 
BRANCH  13  15
ATOM     14  C   UNL     1       6.122   3.920  13.800  0.00  0.00    +0.000 C 
ATOM     15  C   UNL     1       6.481   4.389  15.201  0.00  0.00    +0.000 C 
ENDBRANCH  13  15
ENDBRANCH   7  13
ENDBRANCH   1  10
BRANCH   4  16
ATOM     16  C   UNL     1       0.031  11.153  20.347  0.00  0.00    +0.000 C 
ATOM     17  O   UNL     1      -0.076  11.335  21.552  0.00  0.00    +0.000 OA
BRANCH  16  18
ATOM     18  O   UNL     1      -0.538  11.914  19.347  0.00  0.00    +0.000 OA
BRANCH  18  19
ATOM     19  C   UNL     1      -1.904  11.690  19.133  0.00  0.00    +0.000 A 
ATOM     20  C   UNL     1      -2.805  12.441  19.886  0.00  0.00    +0.000 A 
ATOM     21  C   UNL     1      -4.169  12.360  19.601  0.00  0.00    +0.000 A 
ATOM     22  C   UNL     1      -4.614  11.541  18.561  0.00  0.00    +0.000 A 
ATOM     23 BR   UNL     1      -6.457  11.459  18.151  0.00  0.00    +0.000 Br
ATOM     24  C   UNL     1      -3.711  10.796  17.805  0.00  0.00    +0.000 A 
ATOM     25  C   UNL     1      -2.348  10.876  18.085  0.00  0.00    +0.000 A 
ENDBRANCH  18  19
ENDBRANCH  16  18
ENDBRANCH   4  16
TORSDOF 6
ENDMDL
MODEL 4
REMARK VINA RESULT:      -7.5      0.444      1.061
REMARK  Name = 
REMARK  7 active torsions:
REMARK  status: ('A' for Active; 'I' for Inactive)
REMARK    1  A    between atoms: C_1  and  C_2
REMARK    2  A    between atoms: C_2  and  C_3
REMARK    3  A    between atoms: C_3  and  C_4
REMARK    4  A    between atoms: C_7  and  C_8
REMARK    5  A    between atoms: C_11  and  C_12
REMARK    6  A    between atoms: C_12  and  O_14
REMARK    7  A    between atoms: O_14  and  C_15
REMARK                            x       y       z     vdW  Elec       q    Type
REMARK                         _______ _______ _______ _____ _____    ______ ____
ROOT
ATOM      1  C   UNL     1       3.047   6.770  18.406  0.00  0.00    +0.000 A 
ATOM      2  C   UNL     1       2.532   8.052  18.132  0.00  0.00    +0.000 A 
ATOM      3  C   UNL     1       1.685   8.706  19.032  0.00  0.00    +0.000 A 
ATOM      4  C   UNL     1       1.322   8.090  20.232  0.00  0.00    +0.000 A 
ATOM      5  C   UNL     1       1.810   6.811  20.520  0.00  0.00    +0.000 A 
ATOM      6  C   UNL     1       2.658   6.164  19.614  0.00  0.00    +0.000 A 
ENDROOT
BRANCH   1  10
ATOM      7  C   UNL     1       5.489   4.624  15.674  0.00  0.00    +0.000 A 
ATOM      8  C   UNL     1       5.533   6.017  15.654  0.00  0.00    +0.000 A 
ATOM      9  C   UNL     1       4.760   6.746  16.554  0.00  0.00    +0.000 A 
ATOM     10  C   UNL     1       3.945   6.073  17.462  0.00  0.00    +0.000 A 
ATOM     11  N   UNL     1       3.920   4.718  17.521  0.00  0.00    +0.000 NA
ATOM     12  C   UNL     1       4.682   4.033  16.638  0.00  0.00    +0.000 A 
BRANCH   7  13
ATOM     13  C   UNL     1       6.289   3.801  14.702  0.00  0.00    +0.000 C 
BRANCH  13  15
ATOM     14  C   UNL     1       6.723   3.809  12.217  0.00  0.00    +0.000 C 
ATOM     15  C   UNL     1       5.662   3.771  13.306  0.00  0.00    +0.000 C 
ENDBRANCH  13  15
ENDBRANCH   7  13
ENDBRANCH   1  10
BRANCH   4  16
ATOM     16  C   UNL     1       0.504   8.872  21.201  0.00  0.00    +0.000 C 
ATOM     17  O   UNL     1      -0.413   8.395  21.855  0.00  0.00    +0.000 OA
BRANCH  16  18
ATOM     18  O   UNL     1       0.875  10.200  21.150  0.00  0.00    +0.000 OA
BRANCH  18  19
ATOM     19  C   UNL     1      -0.186  11.115  21.187  0.00  0.00    +0.000 A 
ATOM     20  C   UNL     1      -0.856  11.370  19.993  0.00  0.00    +0.000 A 
ATOM     21  C   UNL     1      -2.010  12.155  20.010  0.00  0.00    +0.000 A 
ATOM     22  C   UNL     1      -2.485  12.665  21.221  0.00  0.00    +0.000 A 
ATOM     23 BR   UNL     1      -4.067  13.699  21.250  0.00  0.00    +0.000 Br
ATOM     24  C   UNL     1      -1.817  12.403  22.415  0.00  0.00    +0.000 A 
ATOM     25  C   UNL     1      -0.666  11.617  22.401  0.00  0.00    +0.000 A 
ENDBRANCH  18  19
ENDBRANCH  16  18
ENDBRANCH   4  16
TORSDOF 6
ENDMDL
MODEL 5
REMARK VINA RESULT:      -7.5      1.813      2.511
REMARK  Name = 
REMARK  7 active torsions:
REMARK  status: ('A' for Active; 'I' for Inactive)
REMARK    1  A    between atoms: C_1  and  C_2
REMARK    2  A    between atoms: C_2  and  C_3
REMARK    3  A    between atoms: C_3  and  C_4
REMARK    4  A    between atoms: C_7  and  C_8
REMARK    5  A    between atoms: C_11  and  C_12
REMARK    6  A    between atoms: C_12  and  O_14
REMARK    7  A    between atoms: O_14  and  C_15
REMARK                            x       y       z     vdW  Elec       q    Type
REMARK                         _______ _______ _______ _____ _____    ______ ____
ROOT
ATOM      1  C   UNL     1       2.645   7.330  18.443  0.00  0.00    +0.000 A 
ATOM      2  C   UNL     1       2.186   8.528  17.864  0.00  0.00    +0.000 A 
ATOM      3  C   UNL     1       1.443   9.456  18.601  0.00  0.00    +0.000 A 
ATOM      4  C   UNL     1       1.132   9.207  19.939  0.00  0.00    +0.000 A 
ATOM      5  C   UNL     1       1.566   8.016  20.532  0.00  0.00    +0.000 A 
ATOM      6  C   UNL     1       2.309   7.092  19.788  0.00  0.00    +0.000 A 
ENDROOT
BRANCH   1  10
ATOM      7  C   UNL     1       5.072   4.608  16.266  0.00  0.00    +0.000 A 
ATOM      8  C   UNL     1       3.995   4.104  16.994  0.00  0.00    +0.000 A 
ATOM      9  C   UNL     1       3.169   4.976  17.699  0.00  0.00    +0.000 A 
ATOM     10  C   UNL     1       3.433   6.344  17.673  0.00  0.00    +0.000 A 
ATOM     11  N   UNL     1       4.453   6.855  16.938  0.00  0.00    +0.000 NA
ATOM     12  C   UNL     1       5.238   5.987  16.261  0.00  0.00    +0.000 A 
BRANCH   7  13
ATOM     13  C   UNL     1       6.002   3.697  15.512  0.00  0.00    +0.000 C 
BRANCH  13  15
ATOM     14  C   UNL     1       5.839   3.637  12.996  0.00  0.00    +0.000 C 
ATOM     15  C   UNL     1       6.483   4.313  14.196  0.00  0.00    +0.000 C 
ENDBRANCH  13  15
ENDBRANCH   7  13
ENDBRANCH   1  10
BRANCH   4  16
ATOM     16  C   UNL     1       0.430  10.273  20.706  0.00  0.00    +0.000 C 
ATOM     17  O   UNL     1       0.651  10.521  21.883  0.00  0.00    +0.000 OA
BRANCH  16  18
ATOM     18  O   UNL     1      -0.552  10.836  19.917  0.00  0.00    +0.000 OA
BRANCH  18  19
ATOM     19  C   UNL     1      -0.569  12.237  19.898  0.00  0.00    +0.000 A 
ATOM     20  C   UNL     1       0.269  12.878  18.988  0.00  0.00    +0.000 A 
ATOM     21  C   UNL     1       0.175  14.261  18.829  0.00  0.00    +0.000 A 
ATOM     22  C   UNL     1      -0.761  14.984  19.571  0.00  0.00    +0.000 A 
ATOM     23 BR   UNL     1      -0.913  16.853  19.330  0.00  0.00    +0.000 Br
ATOM     24  C   UNL     1      -1.603  14.341  20.476  0.00  0.00    +0.000 A 
ATOM     25  C   UNL     1      -1.513  12.959  20.636  0.00  0.00    +0.000 A 
ENDBRANCH  18  19
ENDBRANCH  16  18
ENDBRANCH   4  16
TORSDOF 6
ENDMDL
MODEL 6
REMARK VINA RESULT:      -7.4      0.437      1.427
REMARK  Name = 
REMARK  7 active torsions:
REMARK  status: ('A' for Active; 'I' for Inactive)
REMARK    1  A    between atoms: C_1  and  C_2
REMARK    2  A    between atoms: C_2  and  C_3
REMARK    3  A    between atoms: C_3  and  C_4
REMARK    4  A    between atoms: C_7  and  C_8
REMARK    5  A    between atoms: C_11  and  C_12
REMARK    6  A    between atoms: C_12  and  O_14
REMARK    7  A    between atoms: O_14  and  C_15
REMARK                            x       y       z     vdW  Elec       q    Type
REMARK                         _______ _______ _______ _____ _____    ______ ____
ROOT
ATOM      1  C   UNL     1       3.060   6.716  18.406  0.00  0.00    +0.000 A 
ATOM      2  C   UNL     1       2.575   8.021  18.198  0.00  0.00    +0.000 A 
ATOM      3  C   UNL     1       1.731   8.642  19.124  0.00  0.00    +0.000 A 
ATOM      4  C   UNL     1       1.342   7.970  20.284  0.00  0.00    +0.000 A 
ATOM      5  C   UNL     1       1.800   6.666  20.506  0.00  0.00    +0.000 A 
ATOM      6  C   UNL     1       2.645   6.052  19.575  0.00  0.00    +0.000 A 
ENDROOT
BRANCH   1  10
ATOM      7  C   UNL     1       5.487   4.671  15.584  0.00  0.00    +0.000 A 
ATOM      8  C   UNL     1       5.567   6.062  15.647  0.00  0.00    +0.000 A 
ATOM      9  C   UNL     1       4.799   6.756  16.579  0.00  0.00    +0.000 A 
ATOM     10  C   UNL     1       3.954   6.052  17.434  0.00  0.00    +0.000 A 
ATOM     11  N   UNL     1       3.894   4.697  17.413  0.00  0.00    +0.000 NA
ATOM     12  C   UNL     1       4.651   4.046  16.500  0.00  0.00    +0.000 A 
BRANCH   7  13
ATOM     13  C   UNL     1       6.281   3.887  14.575  0.00  0.00    +0.000 C 
BRANCH  13  15
ATOM     14  C   UNL     1       6.475   3.330  12.122  0.00  0.00    +0.000 C 
ATOM     15  C   UNL     1       5.530   3.706  13.253  0.00  0.00    +0.000 C 
ENDBRANCH  13  15
ENDBRANCH   7  13
ENDBRANCH   1  10
BRANCH   4  16
ATOM     16  C   UNL     1       0.529   8.714  21.286  0.00  0.00    +0.000 C 
ATOM     17  O   UNL     1      -0.347   8.200  21.967  0.00  0.00    +0.000 OA
BRANCH  16  18
ATOM     18  O   UNL     1       0.850  10.055  21.233  0.00  0.00    +0.000 OA
BRANCH  18  19
ATOM     19  C   UNL     1      -0.247  10.928  21.210  0.00  0.00    +0.000 A 
ATOM     20  C   UNL     1      -0.651  11.484  22.422  0.00  0.00    +0.000 A 
ATOM     21  C   UNL     1      -1.637  12.472  22.425  0.00  0.00    +0.000 A 
ATOM     22  C   UNL     1      -2.198  12.898  21.219  0.00  0.00    +0.000 A 
ATOM     23 BR   UNL     1      -3.508  14.261  21.221  0.00  0.00    +0.000 Br
ATOM     24  C   UNL     1      -1.787  12.345  20.008  0.00  0.00    +0.000 A 
ATOM     25  C   UNL     1      -0.801  11.361  20.001  0.00  0.00    +0.000 A 
ENDBRANCH  18  19
ENDBRANCH  16  18
ENDBRANCH   4  16
TORSDOF 6
ENDMDL
MODEL 7
REMARK VINA RESULT:      -7.3      1.986      2.701
REMARK  Name = 
REMARK  7 active torsions:
REMARK  status: ('A' for Active; 'I' for Inactive)
REMARK    1  A    between atoms: C_1  and  C_2
REMARK    2  A    between atoms: C_2  and  C_3
REMARK    3  A    between atoms: C_3  and  C_4
REMARK    4  A    between atoms: C_7  and  C_8
REMARK    5  A    between atoms: C_11  and  C_12
REMARK    6  A    between atoms: C_12  and  O_14
REMARK    7  A    between atoms: O_14  and  C_15
REMARK                            x       y       z     vdW  Elec       q    Type
REMARK                         _______ _______ _______ _____ _____    ______ ____
ROOT
ATOM      1  C   UNL     1       2.607   7.371  18.549  0.00  0.00    +0.000 A 
ATOM      2  C   UNL     1       2.146   8.570  17.973  0.00  0.00    +0.000 A 
ATOM      3  C   UNL     1       1.402   9.496  18.712  0.00  0.00    +0.000 A 
ATOM      4  C   UNL     1       1.091   9.243  20.049  0.00  0.00    +0.000 A 
ATOM      5  C   UNL     1       1.526   8.051  20.640  0.00  0.00    +0.000 A 
ATOM      6  C   UNL     1       2.272   7.131  19.894  0.00  0.00    +0.000 A 
ENDROOT
BRANCH   1  10
ATOM      7  C   UNL     1       5.038   4.659  16.363  0.00  0.00    +0.000 A 
ATOM      8  C   UNL     1       3.975   4.150  17.109  0.00  0.00    +0.000 A 
ATOM      9  C   UNL     1       3.148   5.018  17.817  0.00  0.00    +0.000 A 
ATOM     10  C   UNL     1       3.396   6.389  17.777  0.00  0.00    +0.000 A 
ATOM     11  N   UNL     1       4.401   6.905  17.025  0.00  0.00    +0.000 NA
ATOM     12  C   UNL     1       5.188   6.040  16.345  0.00  0.00    +0.000 A 
BRANCH   7  13
ATOM     13  C   UNL     1       5.968   3.753  15.605  0.00  0.00    +0.000 C 
BRANCH  13  15
ATOM     14  C   UNL     1       5.963   3.676  13.083  0.00  0.00    +0.000 C 
ATOM     15  C   UNL     1       6.488   4.396  14.316  0.00  0.00    +0.000 C 
ENDBRANCH  13  15
ENDBRANCH   7  13
ENDBRANCH   1  10
BRANCH   4  16
ATOM     16  C   UNL     1       0.388  10.307  20.818  0.00  0.00    +0.000 C 
ATOM     17  O   UNL     1      -0.766  10.212  21.209  0.00  0.00    +0.000 OA
BRANCH  16  18
ATOM     18  O   UNL     1       1.200  11.419  20.912  0.00  0.00    +0.000 OA
BRANCH  18  19
ATOM     19  C   UNL     1       0.608  12.623  20.506  0.00  0.00    +0.000 A 
ATOM     20  C   UNL     1       0.412  13.602  21.478  0.00  0.00    +0.000 A 
ATOM     21  C   UNL     1      -0.032  14.868  21.093  0.00  0.00    +0.000 A 
ATOM     22  C   UNL     1      -0.264  15.142  19.743  0.00  0.00    +0.000 A 
ATOM     23 BR   UNL     1      -0.832  16.867  19.217  0.00  0.00    +0.000 Br
ATOM     24  C   UNL     1      -0.061  14.163  18.772  0.00  0.00    +0.000 A 
ATOM     25  C   UNL     1       0.385  12.899  19.153  0.00  0.00    +0.000 A 
ENDBRANCH  18  19
ENDBRANCH  16  18
ENDBRANCH   4  16
TORSDOF 6
ENDMDL
MODEL 8
REMARK VINA RESULT:      -7.3      1.637      1.927
REMARK  Name = 
REMARK  7 active torsions:
REMARK  status: ('A' for Active; 'I' for Inactive)
REMARK    1  A    between atoms: C_1  and  C_2
REMARK    2  A    between atoms: C_2  and  C_3
REMARK    3  A    between atoms: C_3  and  C_4
REMARK    4  A    between atoms: C_7  and  C_8
REMARK    5  A    between atoms: C_11  and  C_12
REMARK    6  A    between atoms: C_12  and  O_14
REMARK    7  A    between atoms: O_14  and  C_15
REMARK                            x       y       z     vdW  Elec       q    Type
REMARK                         _______ _______ _______ _____ _____    ______ ____
ROOT
ATOM      1  C   UNL     1       2.875   7.087  18.424  0.00  0.00    +0.000 A 
ATOM      2  C   UNL     1       2.510   6.689  19.724  0.00  0.00    +0.000 A 
ATOM      3  C   UNL     1       1.686   7.485  20.527  0.00  0.00    +0.000 A 
ATOM      4  C   UNL     1       1.209   8.708  20.052  0.00  0.00    +0.000 A 
ATOM      5  C   UNL     1       1.570   9.131  18.767  0.00  0.00    +0.000 A 
ATOM      6  C   UNL     1       2.394   8.329  17.970  0.00  0.00    +0.000 A 
ENDROOT
BRANCH   1  10
ATOM      7  C   UNL     1       5.220   4.556  15.947  0.00  0.00    +0.000 A 
ATOM      8  C   UNL     1       5.404   5.935  15.854  0.00  0.00    +0.000 A 
ATOM      9  C   UNL     1       4.665   6.788  16.671  0.00  0.00    +0.000 A 
ATOM     10  C   UNL     1       3.743   6.252  17.569  0.00  0.00    +0.000 A 
ATOM     11  N   UNL     1       3.581   4.911  17.700  0.00  0.00    +0.000 NA
ATOM     12  C   UNL     1       4.312   4.105  16.897  0.00  0.00    +0.000 A 
BRANCH   7  13
ATOM     13  C   UNL     1       5.979   3.604  15.065  0.00  0.00    +0.000 C 
BRANCH  13  15
ATOM     14  C   UNL     1       6.062   3.462  12.548  0.00  0.00    +0.000 C 
ATOM     15  C   UNL     1       6.468   4.266  13.774  0.00  0.00    +0.000 C 
ENDBRANCH  13  15
ENDBRANCH   7  13
ENDBRANCH   1  10
BRANCH   4  16
ATOM     16  C   UNL     1       0.251   9.466  20.904  0.00  0.00    +0.000 C 
ATOM     17  O   UNL     1       0.274   9.454  22.127  0.00  0.00    +0.000 OA
BRANCH  16  18
ATOM     18  O   UNL     1      -0.697  10.071  20.105  0.00  0.00    +0.000 OA
BRANCH  18  19
ATOM     19  C   UNL     1      -0.445  11.414  19.797  0.00  0.00    +0.000 A 
ATOM     20  C   UNL     1      -0.782  11.854  18.519  0.00  0.00    +0.000 A 
ATOM     21  C   UNL     1      -0.690  13.214  18.217  0.00  0.00    +0.000 A 
ATOM     22  C   UNL     1      -0.275  14.116  19.199  0.00  0.00    +0.000 A 
ATOM     23 BR   UNL     1      -0.184  15.962  18.801  0.00  0.00    +0.000 Br
ATOM     24  C   UNL     1       0.055  13.675  20.479  0.00  0.00    +0.000 A 
ATOM     25  C   UNL     1      -0.038  12.318  20.783  0.00  0.00    +0.000 A 
ENDBRANCH  18  19
ENDBRANCH  16  18
ENDBRANCH   4  16
TORSDOF 6
ENDMDL
MODEL 9
REMARK VINA RESULT:      -7.3      0.743      1.108
REMARK  Name = 
REMARK  7 active torsions:
REMARK  status: ('A' for Active; 'I' for Inactive)
REMARK    1  A    between atoms: C_1  and  C_2
REMARK    2  A    between atoms: C_2  and  C_3
REMARK    3  A    between atoms: C_3  and  C_4
REMARK    4  A    between atoms: C_7  and  C_8
REMARK    5  A    between atoms: C_11  and  C_12
REMARK    6  A    between atoms: C_12  and  O_14
REMARK    7  A    between atoms: O_14  and  C_15
REMARK                            x       y       z     vdW  Elec       q    Type
REMARK                         _______ _______ _______ _____ _____    ______ ____
ROOT
ATOM      1  C   UNL     1       2.919   6.572  18.513  0.00  0.00    +0.000 A 
ATOM      2  C   UNL     1       2.568   6.006  19.753  0.00  0.00    +0.000 A 
ATOM      3  C   UNL     1       1.784   6.703  20.678  0.00  0.00    +0.000 A 
ATOM      4  C   UNL     1       1.335   7.994  20.390  0.00  0.00    +0.000 A 
ATOM      5  C   UNL     1       1.683   8.583  19.170  0.00  0.00    +0.000 A 
ATOM      6  C   UNL     1       2.467   7.878  18.249  0.00  0.00    +0.000 A 
ENDROOT
BRANCH   1  10
ATOM      7  C   UNL     1       5.436   4.608  15.712  0.00  0.00    +0.000 A 
ATOM      8  C   UNL     1       4.588   3.834  16.503  0.00  0.00    +0.000 A 
ATOM      9  C   UNL     1       3.736   4.453  17.414  0.00  0.00    +0.000 A 
ATOM     10  C   UNL     1       3.744   5.842  17.529  0.00  0.00    +0.000 A 
ATOM     11  N   UNL     1       4.534   6.612  16.738  0.00  0.00    +0.000 NA
ATOM     12  C   UNL     1       5.351   5.987  15.860  0.00  0.00    +0.000 A 
BRANCH   7  13
ATOM     13  C   UNL     1       6.389   3.977  14.735  0.00  0.00    +0.000 C 
BRANCH  13  15
ATOM     14  C   UNL     1       7.281   4.579  12.453  0.00  0.00    +0.000 C 
ATOM     15  C   UNL     1       7.148   5.015  13.904  0.00  0.00    +0.000 C 
ENDBRANCH  13  15
ENDBRANCH   7  13
ENDBRANCH   1  10
BRANCH   4  16
ATOM     16  C   UNL     1       0.418   8.650  21.363  0.00  0.00    +0.000 C 
ATOM     17  O   UNL     1      -0.581   8.115  21.821  0.00  0.00    +0.000 OA
BRANCH  16  18
ATOM     18  O   UNL     1       0.819   9.955  21.564  0.00  0.00    +0.000 OA
BRANCH  18  19
ATOM     19  C   UNL     1      -0.221  10.892  21.628  0.00  0.00    +0.000 A 
ATOM     20  C   UNL     1      -0.716  11.386  20.423  0.00  0.00    +0.000 A 
ATOM     21  C   UNL     1      -1.848  12.203  20.432  0.00  0.00    +0.000 A 
ATOM     22  C   UNL     1      -2.476  12.506  21.642  0.00  0.00    +0.000 A 
ATOM     23 BR   UNL     1      -4.030  13.583  21.651  0.00  0.00    +0.000 Br
ATOM     24  C   UNL     1      -1.984  12.005  22.845  0.00  0.00    +0.000 A 
ATOM     25  C   UNL     1      -0.855  11.187  22.839  0.00  0.00    +0.000 A 
ENDBRANCH  18  19
ENDBRANCH  16  18
ENDBRANCH   4  16
TORSDOF 6
ENDMDL
