MODEL 1
REMARK VINA RESULT:      -7.5      0.000      0.000
REMARK  Name = 
REMARK  14 active torsions:
REMARK  status: ('A' for Active; 'I' for Inactive)
REMARK    1  A    between atoms: C_1  and  C_2
REMARK    2  A    between atoms: C_2  and  C_4
REMARK    3  A    between atoms: C_4  and  C_5
REMARK    4  A    between atoms: C_6  and  C_7
REMARK    5  A    between atoms: C_8  and  C_9
REMARK    6  A    between atoms: C_10  and  C_11
REMARK    7  A    between atoms: C_12  and  C_13
REMARK    8  A    between atoms: C_14  and  C_15
REMARK    9  A    between atoms: C_16  and  C_17
REMARK   10  A    between atoms: C_18  and  C_19
REMARK   11  A    between atoms: C_20  and  C_21
REMARK   12  A    between atoms: C_22  and  C_23
REMARK   13  A    between atoms: C_23  and  C_24
REMARK   14  A    between atoms: C_24  and  O_26
REMARK                            x       y       z     vdW  Elec       q    Type
REMARK                         _______ _______ _______ _____ _____    ______ ____
ROOT
ATOM      1  C   UNL     1       8.328   9.482  17.686  0.00  0.00    +0.000 C 
ATOM      2  C   UNL     1       8.160   8.267  18.226  0.00  0.00    +0.000 C 
ENDROOT
BRANCH   1   4
ATOM      3  C   UNL     1       9.336  10.558  19.636  0.00  0.00    +0.000 C 
ATOM      4  C   UNL     1       9.051  10.555  18.327  0.00  0.00    +0.000 C 
BRANCH   3   6
ATOM      5  C   UNL     1       9.841  12.216  21.385  0.00  0.00    +0.000 C 
ATOM      6  C   UNL     1      10.164  11.564  20.257  0.00  0.00    +0.000 C 
BRANCH   5   8
ATOM      7  C   UNL     1       8.562  12.249  23.479  0.00  0.00    +0.000 C 
ATOM      8  C   UNL     1       8.648  11.972  22.170  0.00  0.00    +0.000 C 
BRANCH   7  11
ATOM      9  C   UNL     1       7.088  12.548  25.448  0.00  0.00    +0.000 C 
ATOM     10  C   UNL     1       7.999  13.548  26.110  0.00  0.00    +0.000 C 
ATOM     11  C   UNL     1       7.370  11.977  24.261  0.00  0.00    +0.000 C 
BRANCH   9  13
ATOM     12  C   UNL     1       5.685  10.872  26.877  0.00  0.00    +0.000 C 
ATOM     13  C   UNL     1       5.823  12.210  26.193  0.00  0.00    +0.000 C 
ATOM     14  O   UNL     1       4.901  13.024  26.246  0.00  0.00    +0.000 OA
ENDBRANCH   9  13
ENDBRANCH   7  11
ENDBRANCH   5   8
ENDBRANCH   3   6
ENDBRANCH   1   4
BRANCH   2  15
ATOM     15  C   UNL     1       7.457   7.201  17.550  0.00  0.00    +0.000 C 
ATOM     16  C   UNL     1       7.040   6.094  18.179  0.00  0.00    +0.000 C 
BRANCH  16  17
ATOM     17  C   UNL     1       6.354   5.005  17.521  0.00  0.00    +0.000 C 
ATOM     18  C   UNL     1       5.032   5.000  17.299  0.00  0.00    +0.000 C 
BRANCH  18  19
ATOM     19  C   UNL     1       4.365   3.966  16.542  0.00  0.00    +0.000 C 
ATOM     20  C   UNL     1       3.188   3.414  16.879  0.00  0.00    +0.000 C 
BRANCH  20  21
ATOM     21  C   UNL     1       2.400   3.808  18.025  0.00  0.00    +0.000 C 
ATOM     22  C   UNL     1       1.928   2.953  18.945  0.00  0.00    +0.000 C 
BRANCH  22  23
ATOM     23  C   UNL     1       1.112   3.415  20.123  0.00  0.00    +0.000 C 
BRANCH  23  24
ATOM     24  C   UNL     1       1.946   3.823  21.328  0.00  0.00    +0.000 C 
ATOM     25  O   UNL     1       2.144   3.080  22.280  0.00  0.00    +0.000 OA
BRANCH  24  26
ATOM     26  O   UNL     1       2.396   5.098  21.316  0.00  0.00    +0.000 OA
ATOM     27  H   UNL     1       1.768   5.746  21.691  0.00  0.00    +0.000 HD
ENDBRANCH  24  26
ENDBRANCH  23  24
ENDBRANCH  22  23
ENDBRANCH  20  21
ENDBRANCH  18  19
ENDBRANCH  16  17
ENDBRANCH   2  15
TORSDOF 12
ENDMDL
MODEL 2
REMARK VINA RESULT:      -7.2      1.117      1.615
REMARK  Name = 
REMARK  14 active torsions:
REMARK  status: ('A' for Active; 'I' for Inactive)
REMARK    1  A    between atoms: C_1  and  C_2
REMARK    2  A    between atoms: C_2  and  C_4
REMARK    3  A    between atoms: C_4  and  C_5
REMARK    4  A    between atoms: C_6  and  C_7
REMARK    5  A    between atoms: C_8  and  C_9
REMARK    6  A    between atoms: C_10  and  C_11
REMARK    7  A    between atoms: C_12  and  C_13
REMARK    8  A    between atoms: C_14  and  C_15
REMARK    9  A    between atoms: C_16  and  C_17
REMARK   10  A    between atoms: C_18  and  C_19
REMARK   11  A    between atoms: C_20  and  C_21
REMARK   12  A    between atoms: C_22  and  C_23
REMARK   13  A    between atoms: C_23  and  C_24
REMARK   14  A    between atoms: C_24  and  O_26
REMARK                            x       y       z     vdW  Elec       q    Type
REMARK                         _______ _______ _______ _____ _____    ______ ____
ROOT
ATOM      1  C   UNL     1       9.105  10.048  19.485  0.00  0.00    +0.000 C 
ATOM      2  C   UNL     1       8.754   9.969  18.194  0.00  0.00    +0.000 C 
ENDROOT
BRANCH   1   4
ATOM      3  C   UNL     1       9.585  12.397  19.965  0.00  0.00    +0.000 C 
ATOM      4  C   UNL     1       9.925  11.103  20.034  0.00  0.00    +0.000 C 
BRANCH   3   6
ATOM      5  C   UNL     1       9.921  14.090  21.720  0.00  0.00    +0.000 C 
ATOM      6  C   UNL     1      10.335  13.442  20.619  0.00  0.00    +0.000 C 
BRANCH   5   8
ATOM      7  C   UNL     1       8.576  12.790  23.306  0.00  0.00    +0.000 C 
ATOM      8  C   UNL     1       8.697  13.805  22.438  0.00  0.00    +0.000 C 
BRANCH   7  11
ATOM      9  C   UNL     1       7.097  12.794  25.295  0.00  0.00    +0.000 C 
ATOM     10  C   UNL     1       8.112  13.471  26.179  0.00  0.00    +0.000 C 
ATOM     11  C   UNL     1       7.336  12.498  24.002  0.00  0.00    +0.000 C 
BRANCH   9  13
ATOM     12  C   UNL     1       5.393  11.014  26.160  0.00  0.00    +0.000 C 
ATOM     13  C   UNL     1       5.777  12.456  25.939  0.00  0.00    +0.000 C 
ATOM     14  O   UNL     1       5.012  13.355  26.286  0.00  0.00    +0.000 OA
ENDBRANCH   9  13
ENDBRANCH   7  11
ENDBRANCH   5   8
ENDBRANCH   3   6
ENDBRANCH   1   4
BRANCH   2  15
ATOM     15  C   UNL     1       7.908   8.919  17.675  0.00  0.00    +0.000 C 
ATOM     16  C   UNL     1       8.036   7.637  18.043  0.00  0.00    +0.000 C 
BRANCH  16  17
ATOM     17  C   UNL     1       7.216   6.566  17.523  0.00  0.00    +0.000 C 
ATOM     18  C   UNL     1       5.994   6.763  17.011  0.00  0.00    +0.000 C 
BRANCH  18  19
ATOM     19  C   UNL     1       5.222   5.712  16.388  0.00  0.00    +0.000 C 
ATOM     20  C   UNL     1       4.188   5.081  16.968  0.00  0.00    +0.000 C 
BRANCH  20  21
ATOM     21  C   UNL     1       3.671   5.395  18.281  0.00  0.00    +0.000 C 
ATOM     22  C   UNL     1       3.058   4.511  19.082  0.00  0.00    +0.000 C 
BRANCH  22  23
ATOM     23  C   UNL     1       2.538   4.889  20.444  0.00  0.00    +0.000 C 
BRANCH  23  24
ATOM     24  C   UNL     1       1.759   3.779  21.134  0.00  0.00    +0.000 C 
ATOM     25  O   UNL     1       2.170   3.203  22.132  0.00  0.00    +0.000 OA
BRANCH  24  26
ATOM     26  O   UNL     1       0.608   3.414  20.526  0.00  0.00    +0.000 OA
ATOM     27  H   UNL     1      -0.023   4.147  20.392  0.00  0.00    +0.000 HD
ENDBRANCH  24  26
ENDBRANCH  23  24
ENDBRANCH  22  23
ENDBRANCH  20  21
ENDBRANCH  18  19
ENDBRANCH  16  17
ENDBRANCH   2  15
TORSDOF 12
ENDMDL
MODEL 3
REMARK VINA RESULT:      -7.1      5.740      9.962
REMARK  Name = 
REMARK  14 active torsions:
REMARK  status: ('A' for Active; 'I' for Inactive)
REMARK    1  A    between atoms: C_1  and  C_2
REMARK    2  A    between atoms: C_2  and  C_4
REMARK    3  A    between atoms: C_4  and  C_5
REMARK    4  A    between atoms: C_6  and  C_7
REMARK    5  A    between atoms: C_8  and  C_9
REMARK    6  A    between atoms: C_10  and  C_11
REMARK    7  A    between atoms: C_12  and  C_13
REMARK    8  A    between atoms: C_14  and  C_15
REMARK    9  A    between atoms: C_16  and  C_17
REMARK   10  A    between atoms: C_18  and  C_19
REMARK   11  A    between atoms: C_20  and  C_21
REMARK   12  A    between atoms: C_22  and  C_23
REMARK   13  A    between atoms: C_23  and  C_24
REMARK   14  A    between atoms: C_24  and  O_26
REMARK                            x       y       z     vdW  Elec       q    Type
REMARK                         _______ _______ _______ _____ _____    ______ ____
ROOT
ATOM      1  C   UNL     1       1.800   5.964  20.708  0.00  0.00    +0.000 C 
ATOM      2  C   UNL     1       2.057   6.781  19.677  0.00  0.00    +0.000 C 
ENDROOT
BRANCH   1   4
ATOM      3  C   UNL     1       1.272   3.696  19.961  0.00  0.00    +0.000 C 
ATOM      4  C   UNL     1       2.026   4.538  20.681  0.00  0.00    +0.000 C 
BRANCH   3   6
ATOM      5  C   UNL     1       2.315   1.765  18.846  0.00  0.00    +0.000 C 
ATOM      6  C   UNL     1       1.569   2.290  19.831  0.00  0.00    +0.000 C 
BRANCH   5   8
ATOM      7  C   UNL     1       4.146   3.150  17.983  0.00  0.00    +0.000 C 
ATOM      8  C   UNL     1       2.971   2.530  17.806  0.00  0.00    +0.000 C 
BRANCH   7  11
ATOM      9  C   UNL     1       5.948   4.596  17.086  0.00  0.00    +0.000 C 
ATOM     10  C   UNL     1       6.732   4.596  18.372  0.00  0.00    +0.000 C 
ATOM     11  C   UNL     1       4.782   3.935  16.941  0.00  0.00    +0.000 C 
BRANCH   9  13
ATOM     12  C   UNL     1       6.265   4.977  14.522  0.00  0.00    +0.000 C 
ATOM     13  C   UNL     1       6.541   5.386  15.948  0.00  0.00    +0.000 C 
ATOM     14  O   UNL     1       7.250   6.365  16.179  0.00  0.00    +0.000 OA
ENDBRANCH   9  13
ENDBRANCH   7  11
ENDBRANCH   5   8
ENDBRANCH   3   6
ENDBRANCH   1   4
BRANCH   2  15
ATOM     15  C   UNL     1       1.850   8.209  19.740  0.00  0.00    +0.000 C 
ATOM     16  C   UNL     1       1.603   8.955  18.654  0.00  0.00    +0.000 C 
BRANCH  16  17
ATOM     17  C   UNL     1       1.413  10.387  18.689  0.00  0.00    +0.000 C 
ATOM     18  C   UNL     1       0.250  10.979  18.386  0.00  0.00    +0.000 C 
BRANCH  18  19
ATOM     19  C   UNL     1       0.028  12.399  18.530  0.00  0.00    +0.000 C 
ATOM     20  C   UNL     1      -0.603  12.970  19.570  0.00  0.00    +0.000 C 
BRANCH  20  21
ATOM     21  C   UNL     1      -1.112  12.246  20.714  0.00  0.00    +0.000 C 
ATOM     22  C   UNL     1      -0.389  11.959  21.806  0.00  0.00    +0.000 C 
BRANCH  22  23
ATOM     23  C   UNL     1      -0.967  11.203  22.973  0.00  0.00    +0.000 C 
BRANCH  23  24
ATOM     24  C   UNL     1      -0.420   9.791  23.123  0.00  0.00    +0.000 C 
ATOM     25  O   UNL     1      -0.752   8.870  22.389  0.00  0.00    +0.000 OA
BRANCH  24  26
ATOM     26  O   UNL     1       0.406   9.598  24.176  0.00  0.00    +0.000 OA
ATOM     27  H   UNL     1      -0.039   9.256  24.975  0.00  0.00    +0.000 HD
ENDBRANCH  24  26
ENDBRANCH  23  24
ENDBRANCH  22  23
ENDBRANCH  20  21
ENDBRANCH  18  19
ENDBRANCH  16  17
ENDBRANCH   2  15
TORSDOF 12
ENDMDL
MODEL 4
REMARK VINA RESULT:      -7.1      1.073      1.415
REMARK  Name = 
REMARK  14 active torsions:
REMARK  status: ('A' for Active; 'I' for Inactive)
REMARK    1  A    between atoms: C_1  and  C_2
REMARK    2  A    between atoms: C_2  and  C_4
REMARK    3  A    between atoms: C_4  and  C_5
REMARK    4  A    between atoms: C_6  and  C_7
REMARK    5  A    between atoms: C_8  and  C_9
REMARK    6  A    between atoms: C_10  and  C_11
REMARK    7  A    between atoms: C_12  and  C_13
REMARK    8  A    between atoms: C_14  and  C_15
REMARK    9  A    between atoms: C_16  and  C_17
REMARK   10  A    between atoms: C_18  and  C_19
REMARK   11  A    between atoms: C_20  and  C_21
REMARK   12  A    between atoms: C_22  and  C_23
REMARK   13  A    between atoms: C_23  and  C_24
REMARK   14  A    between atoms: C_24  and  O_26
REMARK                            x       y       z     vdW  Elec       q    Type
REMARK                         _______ _______ _______ _____ _____    ______ ____
ROOT
ATOM      1  C   UNL     1       7.732   8.522  17.896  0.00  0.00    +0.000 C 
ATOM      2  C   UNL     1       8.151   7.336  18.359  0.00  0.00    +0.000 C 
ENDROOT
BRANCH   1   4
ATOM      3  C   UNL     1       9.231   9.964  19.182  0.00  0.00    +0.000 C 
ATOM      4  C   UNL     1       8.424   9.768  18.131  0.00  0.00    +0.000 C 
BRANCH   3   6
ATOM      5  C   UNL     1       9.884  12.012  20.381  0.00  0.00    +0.000 C 
ATOM      6  C   UNL     1      10.021  11.159  19.354  0.00  0.00    +0.000 C 
BRANCH   5   8
ATOM      7  C   UNL     1       9.088  12.491  22.652  0.00  0.00    +0.000 C 
ATOM      8  C   UNL     1       8.969  11.834  21.489  0.00  0.00    +0.000 C 
BRANCH   7  11
ATOM      9  C   UNL     1       6.949  12.829  23.857  0.00  0.00    +0.000 C 
ATOM     10  C   UNL     1       6.371  13.729  22.796  0.00  0.00    +0.000 C 
ATOM     11  C   UNL     1       8.179  12.287  23.764  0.00  0.00    +0.000 C 
BRANCH   9  13
ATOM     12  C   UNL     1       6.290  11.327  25.889  0.00  0.00    +0.000 C 
ATOM     13  C   UNL     1       6.068  12.561  25.049  0.00  0.00    +0.000 C 
ATOM     14  O   UNL     1       5.167  13.347  25.341  0.00  0.00    +0.000 OA
ENDBRANCH   9  13
ENDBRANCH   7  11
ENDBRANCH   5   8
ENDBRANCH   3   6
ENDBRANCH   1   4
BRANCH   2  15
ATOM     15  C   UNL     1       7.455   6.100  18.085  0.00  0.00    +0.000 C 
ATOM     16  C   UNL     1       6.124   6.032  17.943  0.00  0.00    +0.000 C 
BRANCH  16  17
ATOM     17  C   UNL     1       5.405   4.804  17.690  0.00  0.00    +0.000 C 
ATOM     18  C   UNL     1       4.240   4.762  17.029  0.00  0.00    +0.000 C 
BRANCH  18  19
ATOM     19  C   UNL     1       3.579   3.526  16.678  0.00  0.00    +0.000 C 
ATOM     20  C   UNL     1       2.835   2.793  17.522  0.00  0.00    +0.000 C 
BRANCH  20  21
ATOM     21  C   UNL     1       2.554   3.160  18.892  0.00  0.00    +0.000 C 
ATOM     22  C   UNL     1       1.342   3.514  19.344  0.00  0.00    +0.000 C 
BRANCH  22  23
ATOM     23  C   UNL     1       1.101   3.887  20.783  0.00  0.00    +0.000 C 
BRANCH  23  24
ATOM     24  C   UNL     1       1.665   2.887  21.780  0.00  0.00    +0.000 C 
ATOM     25  O   UNL     1       2.867   2.724  21.948  0.00  0.00    +0.000 OA
BRANCH  24  26
ATOM     26  O   UNL     1       0.749   2.127  22.421  0.00  0.00    +0.000 OA
ATOM     27  H   UNL     1      -0.173   2.426  22.299  0.00  0.00    +0.000 HD
ENDBRANCH  24  26
ENDBRANCH  23  24
ENDBRANCH  22  23
ENDBRANCH  20  21
ENDBRANCH  18  19
ENDBRANCH  16  17
ENDBRANCH   2  15
TORSDOF 12
ENDMDL
MODEL 5
REMARK VINA RESULT:      -7.0      5.558      9.678
REMARK  Name = 
REMARK  14 active torsions:
REMARK  status: ('A' for Active; 'I' for Inactive)
REMARK    1  A    between atoms: C_1  and  C_2
REMARK    2  A    between atoms: C_2  and  C_4
REMARK    3  A    between atoms: C_4  and  C_5
REMARK    4  A    between atoms: C_6  and  C_7
REMARK    5  A    between atoms: C_8  and  C_9
REMARK    6  A    between atoms: C_10  and  C_11
REMARK    7  A    between atoms: C_12  and  C_13
REMARK    8  A    between atoms: C_14  and  C_15
REMARK    9  A    between atoms: C_16  and  C_17
REMARK   10  A    between atoms: C_18  and  C_19
REMARK   11  A    between atoms: C_20  and  C_21
REMARK   12  A    between atoms: C_22  and  C_23
REMARK   13  A    between atoms: C_23  and  C_24
REMARK   14  A    between atoms: C_24  and  O_26
REMARK                            x       y       z     vdW  Elec       q    Type
REMARK                         _______ _______ _______ _____ _____    ______ ____
ROOT
ATOM      1  C   UNL     1       3.217   7.973  17.943  0.00  0.00    +0.000 C 
ATOM      2  C   UNL     1       1.942   8.007  18.355  0.00  0.00    +0.000 C 
ENDROOT
BRANCH   1   4
ATOM      3  C   UNL     1       4.967   6.748  16.753  0.00  0.00    +0.000 C 
ATOM      4  C   UNL     1       3.691   7.144  16.860  0.00  0.00    +0.000 C 
BRANCH   3   6
ATOM      5  C   UNL     1       5.511   4.493  15.930  0.00  0.00    +0.000 C 
ATOM      6  C   UNL     1       5.420   5.820  15.745  0.00  0.00    +0.000 C 
BRANCH   5   8
ATOM      7  C   UNL     1       3.845   3.561  17.470  0.00  0.00    +0.000 C 
ATOM      8  C   UNL     1       5.122   3.796  17.138  0.00  0.00    +0.000 C 
BRANCH   7  11
ATOM      9  C   UNL     1       3.114   3.507  19.837  0.00  0.00    +0.000 C 
ATOM     10  C   UNL     1       3.080   5.007  19.971  0.00  0.00    +0.000 C 
ATOM     11  C   UNL     1       3.465   2.883  18.696  0.00  0.00    +0.000 C 
BRANCH   9  13
ATOM     12  C   UNL     1       1.292   2.699  21.525  0.00  0.00    +0.000 C 
ATOM     13  C   UNL     1       2.730   2.724  21.066  0.00  0.00    +0.000 C 
ATOM     14  O   UNL     1       3.586   2.104  21.696  0.00  0.00    +0.000 OA
ENDBRANCH   9  13
ENDBRANCH   7  11
ENDBRANCH   5   8
ENDBRANCH   3   6
ENDBRANCH   1   4
BRANCH   2  15
ATOM     15  C   UNL     1       1.487   8.868  19.422  0.00  0.00    +0.000 C 
ATOM     16  C   UNL     1       1.385   8.457  20.693  0.00  0.00    +0.000 C 
BRANCH  16  17
ATOM     17  C   UNL     1       0.914   9.293  21.773  0.00  0.00    +0.000 C 
ATOM     18  C   UNL     1      -0.385   9.519  22.011  0.00  0.00    +0.000 C 
BRANCH  18  19
ATOM     19  C   UNL     1      -0.859  10.260  23.157  0.00  0.00    +0.000 C 
ATOM     20  C   UNL     1      -1.472  11.454  23.092  0.00  0.00    +0.000 C 
BRANCH  20  21
ATOM     21  C   UNL     1      -1.784  12.145  21.861  0.00  0.00    +0.000 C 
ATOM     22  C   UNL     1      -0.895  12.848  21.144  0.00  0.00    +0.000 C 
BRANCH  22  23
ATOM     23  C   UNL     1      -1.272  13.551  19.867  0.00  0.00    +0.000 C 
BRANCH  23  24
ATOM     24  C   UNL     1      -0.361  13.223  18.693  0.00  0.00    +0.000 C 
ATOM     25  O   UNL     1       0.858  13.317  18.753  0.00  0.00    +0.000 OA
BRANCH  24  26
ATOM     26  O   UNL     1      -0.992  12.890  17.545  0.00  0.00    +0.000 OA
ATOM     27  H   UNL     1      -1.666  13.537  17.258  0.00  0.00    +0.000 HD
ENDBRANCH  24  26
ENDBRANCH  23  24
ENDBRANCH  22  23
ENDBRANCH  20  21
ENDBRANCH  18  19
ENDBRANCH  16  17
ENDBRANCH   2  15
TORSDOF 12
ENDMDL
MODEL 6
REMARK VINA RESULT:      -7.0      6.694      8.685
REMARK  Name = 
REMARK  14 active torsions:
REMARK  status: ('A' for Active; 'I' for Inactive)
REMARK    1  A    between atoms: C_1  and  C_2
REMARK    2  A    between atoms: C_2  and  C_4
REMARK    3  A    between atoms: C_4  and  C_5
REMARK    4  A    between atoms: C_6  and  C_7
REMARK    5  A    between atoms: C_8  and  C_9
REMARK    6  A    between atoms: C_10  and  C_11
REMARK    7  A    between atoms: C_12  and  C_13
REMARK    8  A    between atoms: C_14  and  C_15
REMARK    9  A    between atoms: C_16  and  C_17
REMARK   10  A    between atoms: C_18  and  C_19
REMARK   11  A    between atoms: C_20  and  C_21
REMARK   12  A    between atoms: C_22  and  C_23
REMARK   13  A    between atoms: C_23  and  C_24
REMARK   14  A    between atoms: C_24  and  O_26
REMARK                            x       y       z     vdW  Elec       q    Type
REMARK                         _______ _______ _______ _____ _____    ______ ____
ROOT
ATOM      1  C   UNL     1       2.821   7.477  18.061  0.00  0.00    +0.000 C 
ATOM      2  C   UNL     1       2.660   8.782  17.805  0.00  0.00    +0.000 C 
ENDROOT
BRANCH   1   4
ATOM      3  C   UNL     1       5.102   7.143  17.244  0.00  0.00    +0.000 C 
ATOM      4  C   UNL     1       4.103   6.811  18.073  0.00  0.00    +0.000 C 
BRANCH   3   6
ATOM      5  C   UNL     1       7.547   7.285  17.499  0.00  0.00    +0.000 C 
ATOM      6  C   UNL     1       6.423   6.569  17.336  0.00  0.00    +0.000 C 
BRANCH   5   8
ATOM      7  C   UNL     1       8.563   9.352  18.343  0.00  0.00    +0.000 C 
ATOM      8  C   UNL     1       7.596   8.724  17.659  0.00  0.00    +0.000 C 
BRANCH   7  11
ATOM      9  C   UNL     1       9.660  11.573  18.273  0.00  0.00    +0.000 C 
ATOM     10  C   UNL     1      10.975  11.026  17.783  0.00  0.00    +0.000 C 
ATOM     11  C   UNL     1       8.590  10.792  18.519  0.00  0.00    +0.000 C 
BRANCH   9  13
ATOM     12  C   UNL     1      10.659  13.755  19.303  0.00  0.00    +0.000 C 
ATOM     13  C   UNL     1       9.599  13.064  18.479  0.00  0.00    +0.000 C 
ATOM     14  O   UNL     1       8.688  13.721  17.977  0.00  0.00    +0.000 OA
ENDBRANCH   9  13
ENDBRANCH   7  11
ENDBRANCH   5   8
ENDBRANCH   3   6
ENDBRANCH   1   4
BRANCH   2  15
ATOM     15  C   UNL     1       1.369   9.430  17.828  0.00  0.00    +0.000 C 
ATOM     16  C   UNL     1       0.470   9.223  18.800  0.00  0.00    +0.000 C 
BRANCH  16  17
ATOM     17  C   UNL     1      -0.835   9.842  18.834  0.00  0.00    +0.000 C 
ATOM     18  C   UNL     1      -1.162  10.902  18.083  0.00  0.00    +0.000 C 
BRANCH  18  19
ATOM     19  C   UNL     1      -2.498  11.450  18.033  0.00  0.00    +0.000 C 
ATOM     20  C   UNL     1      -3.396  11.181  17.070  0.00  0.00    +0.000 C 
BRANCH  20  21
ATOM     21  C   UNL     1      -3.167  10.271  15.971  0.00  0.00    +0.000 C 
ATOM     22  C   UNL     1      -3.334  10.591  14.679  0.00  0.00    +0.000 C 
BRANCH  22  23
ATOM     23  C   UNL     1      -3.081   9.605  13.570  0.00  0.00    +0.000 C 
BRANCH  23  24
ATOM     24  C   UNL     1      -4.095   9.677  12.439  0.00  0.00    +0.000 C 
ATOM     25  O   UNL     1      -5.288   9.460  12.603  0.00  0.00    +0.000 OA
BRANCH  24  26
ATOM     26  O   UNL     1      -3.580   9.925  11.213  0.00  0.00    +0.000 OA
ATOM     27  H   UNL     1      -3.192   9.142  10.778  0.00  0.00    +0.000 HD
ENDBRANCH  24  26
ENDBRANCH  23  24
ENDBRANCH  22  23
ENDBRANCH  20  21
ENDBRANCH  18  19
ENDBRANCH  16  17
ENDBRANCH   2  15
TORSDOF 12
ENDMDL
MODEL 7
REMARK VINA RESULT:      -6.9      1.431      9.783
REMARK  Name = 
REMARK  14 active torsions:
REMARK  status: ('A' for Active; 'I' for Inactive)
REMARK    1  A    between atoms: C_1  and  C_2
REMARK    2  A    between atoms: C_2  and  C_4
REMARK    3  A    between atoms: C_4  and  C_5
REMARK    4  A    between atoms: C_6  and  C_7
REMARK    5  A    between atoms: C_8  and  C_9
REMARK    6  A    between atoms: C_10  and  C_11
REMARK    7  A    between atoms: C_12  and  C_13
REMARK    8  A    between atoms: C_14  and  C_15
REMARK    9  A    between atoms: C_16  and  C_17
REMARK   10  A    between atoms: C_18  and  C_19
REMARK   11  A    between atoms: C_20  and  C_21
REMARK   12  A    between atoms: C_22  and  C_23
REMARK   13  A    between atoms: C_23  and  C_24
REMARK   14  A    between atoms: C_24  and  O_26
REMARK                            x       y       z     vdW  Elec       q    Type
REMARK                         _______ _______ _______ _____ _____    ______ ____
ROOT
ATOM      1  C   UNL     1       7.536   6.785  17.741  0.00  0.00    +0.000 C 
ATOM      2  C   UNL     1       7.779   8.095  17.595  0.00  0.00    +0.000 C 
ENDROOT
BRANCH   1   4
ATOM      3  C   UNL     1       7.294   5.099  15.986  0.00  0.00    +0.000 C 
ATOM      4  C   UNL     1       6.752   6.004  16.813  0.00  0.00    +0.000 C 
BRANCH   3   6
ATOM      5  C   UNL     1       5.255   3.831  15.440  0.00  0.00    +0.000 C 
ATOM      6  C   UNL     1       6.504   4.228  15.149  0.00  0.00    +0.000 C 
BRANCH   5   8
ATOM      7  C   UNL     1       3.565   3.494  17.185  0.00  0.00    +0.000 C 
ATOM      8  C   UNL     1       4.501   4.256  16.601  0.00  0.00    +0.000 C 
BRANCH   7  11
ATOM      9  C   UNL     1       3.027   3.553  19.604  0.00  0.00    +0.000 C 
ATOM     10  C   UNL     1       4.126   2.594  19.979  0.00  0.00    +0.000 C 
ATOM     11  C   UNL     1       2.797   3.939  18.333  0.00  0.00    +0.000 C 
BRANCH   9  13
ATOM     12  C   UNL     1       1.690   5.496  20.726  0.00  0.00    +0.000 C 
ATOM     13  C   UNL     1       2.180   4.068  20.739  0.00  0.00    +0.000 C 
ATOM     14  O   UNL     1       1.887   3.327  21.677  0.00  0.00    +0.000 OA
ENDBRANCH   9  13
ENDBRANCH   7  11
ENDBRANCH   5   8
ENDBRANCH   3   6
ENDBRANCH   1   4
BRANCH   2  15
ATOM     15  C   UNL     1       8.591   8.848  18.523  0.00  0.00    +0.000 C 
ATOM     16  C   UNL     1       8.865  10.149  18.358  0.00  0.00    +0.000 C 
BRANCH  16  17
ATOM     17  C   UNL     1       9.692  10.918  19.261  0.00  0.00    +0.000 C 
ATOM     18  C   UNL     1       9.744  12.256  19.245  0.00  0.00    +0.000 C 
BRANCH  18  19
ATOM     19  C   UNL     1      10.482  13.027  20.219  0.00  0.00    +0.000 C 
ATOM     20  C   UNL     1      10.060  13.277  21.470  0.00  0.00    +0.000 C 
BRANCH  20  21
ATOM     21  C   UNL     1       8.827  12.774  22.032  0.00  0.00    +0.000 C 
ATOM     22  C   UNL     1       8.487  12.886  23.325  0.00  0.00    +0.000 C 
BRANCH  22  23
ATOM     23  C   UNL     1       7.188  12.345  23.861  0.00  0.00    +0.000 C 
BRANCH  23  24
ATOM     24  C   UNL     1       7.270  11.866  25.302  0.00  0.00    +0.000 C 
ATOM     25  O   UNL     1       6.407  11.169  25.820  0.00  0.00    +0.000 OA
BRANCH  24  26
ATOM     26  O   UNL     1       8.328  12.326  26.007  0.00  0.00    +0.000 OA
ATOM     27  H   UNL     1       8.897  12.947  25.512  0.00  0.00    +0.000 HD
ENDBRANCH  24  26
ENDBRANCH  23  24
ENDBRANCH  22  23
ENDBRANCH  20  21
ENDBRANCH  18  19
ENDBRANCH  16  17
ENDBRANCH   2  15
TORSDOF 12
ENDMDL
MODEL 8
REMARK VINA RESULT:      -6.9      3.764     11.023
REMARK  Name = 
REMARK  14 active torsions:
REMARK  status: ('A' for Active; 'I' for Inactive)
REMARK    1  A    between atoms: C_1  and  C_2
REMARK    2  A    between atoms: C_2  and  C_4
REMARK    3  A    between atoms: C_4  and  C_5
REMARK    4  A    between atoms: C_6  and  C_7
REMARK    5  A    between atoms: C_8  and  C_9
REMARK    6  A    between atoms: C_10  and  C_11
REMARK    7  A    between atoms: C_12  and  C_13
REMARK    8  A    between atoms: C_14  and  C_15
REMARK    9  A    between atoms: C_16  and  C_17
REMARK   10  A    between atoms: C_18  and  C_19
REMARK   11  A    between atoms: C_20  and  C_21
REMARK   12  A    between atoms: C_22  and  C_23
REMARK   13  A    between atoms: C_23  and  C_24
REMARK   14  A    between atoms: C_24  and  O_26
REMARK                            x       y       z     vdW  Elec       q    Type
REMARK                         _______ _______ _______ _____ _____    ______ ____
ROOT
ATOM      1  C   UNL     1       7.344   7.101  17.783  0.00  0.00    +0.000 C 
ATOM      2  C   UNL     1       7.961   8.268  17.553  0.00  0.00    +0.000 C 
ENDROOT
BRANCH   1   4
ATOM      3  C   UNL     1       7.288   5.182  16.269  0.00  0.00    +0.000 C 
ATOM      4  C   UNL     1       6.728   6.299  16.752  0.00  0.00    +0.000 C 
BRANCH   3   6
ATOM      5  C   UNL     1       5.363   3.866  15.480  0.00  0.00    +0.000 C 
ATOM      6  C   UNL     1       6.621   4.310  15.331  0.00  0.00    +0.000 C 
BRANCH   5   8
ATOM      7  C   UNL     1       3.520   3.422  17.038  0.00  0.00    +0.000 C 
ATOM      8  C   UNL     1       4.477   4.234  16.565  0.00  0.00    +0.000 C 
BRANCH   7  11
ATOM      9  C   UNL     1       2.776   3.460  19.401  0.00  0.00    +0.000 C 
ATOM     10  C   UNL     1       3.919   2.607  19.885  0.00  0.00    +0.000 C 
ATOM     11  C   UNL     1       2.622   3.810  18.109  0.00  0.00    +0.000 C 
BRANCH   9  13
ATOM     12  C   UNL     1       1.676   5.376  20.794  0.00  0.00    +0.000 C 
ATOM     13  C   UNL     1       1.795   3.910  20.452  0.00  0.00    +0.000 C 
ATOM     14  O   UNL     1       1.089   3.086  21.033  0.00  0.00    +0.000 OA
ENDBRANCH   9  13
ENDBRANCH   7  11
ENDBRANCH   5   8
ENDBRANCH   3   6
ENDBRANCH   1   4
BRANCH   2  15
ATOM     15  C   UNL     1       8.596   9.037  18.598  0.00  0.00    +0.000 C 
ATOM     16  C   UNL     1       9.077  10.272  18.401  0.00  0.00    +0.000 C 
BRANCH  16  17
ATOM     17  C   UNL     1       9.735  11.052  19.425  0.00  0.00    +0.000 C 
ATOM     18  C   UNL     1      10.762  11.873  19.172  0.00  0.00    +0.000 C 
BRANCH  18  19
ATOM     19  C   UNL     1      11.344  12.737  20.174  0.00  0.00    +0.000 C 
ATOM     20  C   UNL     1      10.915  13.979  20.451  0.00  0.00    +0.000 C 
BRANCH  20  21
ATOM     21  C   UNL     1       9.781  14.613  19.815  0.00  0.00    +0.000 C 
ATOM     22  C   UNL     1       9.877  15.510  18.823  0.00  0.00    +0.000 C 
BRANCH  22  23
ATOM     23  C   UNL     1       8.663  16.141  18.193  0.00  0.00    +0.000 C 
BRANCH  23  24
ATOM     24  C   UNL     1       8.397  17.563  18.661  0.00  0.00    +0.000 C 
ATOM     25  O   UNL     1       8.639  18.545  17.972  0.00  0.00    +0.000 OA
BRANCH  24  26
ATOM     26  O   UNL     1       7.941  17.681  19.929  0.00  0.00    +0.000 OA
ATOM     27  H   UNL     1       8.560  17.348  20.607  0.00  0.00    +0.000 HD
ENDBRANCH  24  26
ENDBRANCH  23  24
ENDBRANCH  22  23
ENDBRANCH  20  21
ENDBRANCH  18  19
ENDBRANCH  16  17
ENDBRANCH   2  15
TORSDOF 12
ENDMDL
MODEL 9
REMARK VINA RESULT:      -6.8      5.820      9.913
REMARK  Name = 
REMARK  14 active torsions:
REMARK  status: ('A' for Active; 'I' for Inactive)
REMARK    1  A    between atoms: C_1  and  C_2
REMARK    2  A    between atoms: C_2  and  C_4
REMARK    3  A    between atoms: C_4  and  C_5
REMARK    4  A    between atoms: C_6  and  C_7
REMARK    5  A    between atoms: C_8  and  C_9
REMARK    6  A    between atoms: C_10  and  C_11
REMARK    7  A    between atoms: C_12  and  C_13
REMARK    8  A    between atoms: C_14  and  C_15
REMARK    9  A    between atoms: C_16  and  C_17
REMARK   10  A    between atoms: C_18  and  C_19
REMARK   11  A    between atoms: C_20  and  C_21
REMARK   12  A    between atoms: C_22  and  C_23
REMARK   13  A    between atoms: C_23  and  C_24
REMARK   14  A    between atoms: C_24  and  O_26
REMARK                            x       y       z     vdW  Elec       q    Type
REMARK                         _______ _______ _______ _____ _____    ______ ____
ROOT
ATOM      1  C   UNL     1       1.754   6.962  20.299  0.00  0.00    +0.000 C 
ATOM      2  C   UNL     1       1.151   7.831  21.123  0.00  0.00    +0.000 C 
ENDROOT
BRANCH   1   4
ATOM      3  C   UNL     1       1.772   4.602  19.657  0.00  0.00    +0.000 C 
ATOM      4  C   UNL     1       1.912   5.555  20.588  0.00  0.00    +0.000 C 
BRANCH   3   6
ATOM      5  C   UNL     1       3.169   2.580  19.514  0.00  0.00    +0.000 C 
ATOM      6  C   UNL     1       2.051   3.209  19.910  0.00  0.00    +0.000 C 
BRANCH   5   8
ATOM      7  C   UNL     1       4.925   4.282  19.310  0.00  0.00    +0.000 C 
ATOM      8  C   UNL     1       4.276   3.213  18.826  0.00  0.00    +0.000 C 
BRANCH   7  11
ATOM      9  C   UNL     1       5.875   5.970  17.765  0.00  0.00    +0.000 C 
ATOM     10  C   UNL     1       4.540   6.602  17.466  0.00  0.00    +0.000 C 
ATOM     11  C   UNL     1       6.017   4.923  18.600  0.00  0.00    +0.000 C 
BRANCH   9  13
ATOM     12  C   UNL     1       7.749   7.787  17.663  0.00  0.00    +0.000 C 
ATOM     13  C   UNL     1       7.066   6.578  17.070  0.00  0.00    +0.000 C 
ATOM     14  O   UNL     1       7.484   6.091  16.020  0.00  0.00    +0.000 OA
ENDBRANCH   9  13
ENDBRANCH   7  11
ENDBRANCH   5   8
ENDBRANCH   3   6
ENDBRANCH   1   4
BRANCH   2  15
ATOM     15  C   UNL     1       0.980   9.227  20.797  0.00  0.00    +0.000 C 
ATOM     16  C   UNL     1       0.956   9.680  19.535  0.00  0.00    +0.000 C 
BRANCH  16  17
ATOM     17  C   UNL     1       0.807  11.074  19.185  0.00  0.00    +0.000 C 
ATOM     18  C   UNL     1      -0.336  11.593  18.717  0.00  0.00    +0.000 C 
BRANCH  18  19
ATOM     19  C   UNL     1      -0.519  13.006  18.475  0.00  0.00    +0.000 C 
ATOM     20  C   UNL     1      -1.036  13.870  19.363  0.00  0.00    +0.000 C 
BRANCH  20  21
ATOM     21  C   UNL     1      -1.444  13.517  20.704  0.00  0.00    +0.000 C 
ATOM     22  C   UNL     1      -0.730  13.789  21.806  0.00  0.00    +0.000 C 
BRANCH  22  23
ATOM     23  C   UNL     1      -1.200  13.401  23.183  0.00  0.00    +0.000 C 
BRANCH  23  24
ATOM     24  C   UNL     1      -1.651  11.952  23.293  0.00  0.00    +0.000 C 
ATOM     25  O   UNL     1      -0.871  11.010  23.253  0.00  0.00    +0.000 OA
BRANCH  24  26
ATOM     26  O   UNL     1      -2.989  11.765  23.362  0.00  0.00    +0.000 OA
ATOM     27  H   UNL     1      -3.442  12.358  23.992  0.00  0.00    +0.000 HD
ENDBRANCH  24  26
ENDBRANCH  23  24
ENDBRANCH  22  23
ENDBRANCH  20  21
ENDBRANCH  18  19
ENDBRANCH  16  17
ENDBRANCH   2  15
TORSDOF 12
ENDMDL
