MODEL 1
REMARK VINA RESULT:      -8.9      0.000      0.000
REMARK  Name = 
REMARK  7 active torsions:
REMARK  status: ('A' for Active; 'I' for Inactive)
REMARK    1  A    between atoms: O_1  and  C_2
REMARK    2  A    between atoms: C_10  and  C_11
REMARK    3  A    between atoms: C_17  and  C_18
REMARK    4  A    between atoms: C_21  and  O_22
REMARK    5  A    between atoms: O_22  and  C_23
REMARK    6  A    between atoms: C_23  and  C_24
REMARK    7  A    between atoms: C_24  and  N_25
REMARK                            x       y       z     vdW  Elec       q    Type
REMARK                         _______ _______ _______ _____ _____    ______ ____
ROOT
ATOM      1  C   UNL     1       2.589   2.772  21.261  0.00  0.00    +0.000 A 
ATOM      2  C   UNL     1       1.612   3.746  21.149  0.00  0.00    +0.000 A 
ATOM      3  C   UNL     1       1.582   4.557  20.014  0.00  0.00    +0.000 A 
ATOM      4  C   UNL     1       2.573   4.457  19.016  0.00  0.00    +0.000 A 
ATOM      5  C   UNL     1       3.440   3.338  19.062  0.00  0.00    +0.000 A 
ATOM      6  C   UNL     1       3.467   2.537  20.212  0.00  0.00    +0.000 A 
ATOM      7  C   UNL     1       4.387   2.929  17.954  0.00  0.00    +0.000 C 
ATOM      8  S   UNL     1       4.102   3.750  16.377  0.00  0.00    +0.000 S 
ATOM      9  C   UNL     1       3.997   5.447  17.066  0.00  0.00    +0.000 C 
ATOM     10  C   UNL     1       2.671   5.534  17.919  0.00  0.00    +0.000 C 
ENDROOT
BRANCH   9  11
ATOM     11  C   UNL     1       5.332   5.856  17.702  0.00  0.00    +0.000 A 
ATOM     12  C   UNL     1       6.143   6.802  17.050  0.00  0.00    +0.000 A 
ATOM     13  C   UNL     1       7.378   7.185  17.584  0.00  0.00    +0.000 A 
ATOM     14  C   UNL     1       7.812   6.659  18.800  0.00  0.00    +0.000 A 
ATOM     15  C   UNL     1       7.026   5.725  19.461  0.00  0.00    +0.000 A 
ATOM     16  C   UNL     1       5.816   5.314  18.900  0.00  0.00    +0.000 A 
ENDBRANCH   9  11
BRANCH  10  17
ATOM     17  C   UNL     1       2.434   7.009  18.328  0.00  0.00    +0.000 A 
ATOM     18  C   UNL     1       2.119   7.275  19.668  0.00  0.00    +0.000 A 
ATOM     19  C   UNL     1       1.712   8.547  20.078  0.00  0.00    +0.000 A 
ATOM     20  C   UNL     1       1.644   9.605  19.171  0.00  0.00    +0.000 A 
ATOM     21  C   UNL     1       2.023   9.380  17.853  0.00  0.00    +0.000 A 
ATOM     22  C   UNL     1       2.404   8.098  17.436  0.00  0.00    +0.000 A 
BRANCH  20  23
ATOM     23  O   UNL     1       1.215  10.878  19.461  0.00  0.00    +0.000 OA
BRANCH  23  24
ATOM     24  C   UNL     1      -0.179  10.965  19.768  0.00  0.00    +0.000 C 
BRANCH  24  25
ATOM     25  C   UNL     1      -0.997  11.397  18.546  0.00  0.00    +0.000 C 
BRANCH  25  26
ATOM     26  N   UNL     1      -2.136  10.491  18.288  0.00  0.00    +0.000 NA
ATOM     27  C   UNL     1      -1.999   9.817  16.987  0.00  0.00    +0.000 C 
ATOM     28  C   UNL     1      -2.606  10.784  15.988  0.00  0.00    +0.000 C 
ATOM     29  C   UNL     1      -3.767  11.394  16.747  0.00  0.00    +0.000 C 
ATOM     30  C   UNL     1      -3.440  11.174  18.218  0.00  0.00    +0.000 C 
ENDBRANCH  25  26
ENDBRANCH  24  25
ENDBRANCH  23  24
ENDBRANCH  20  23
ENDBRANCH  10  17
BRANCH   1  31
ATOM     31  O   UNL     1       2.721   2.014  22.384  0.00  0.00    +0.000 OA
ATOM     32  H   UNL     1       2.731   1.079  22.122  0.00  0.00    +0.000 HD
ENDBRANCH   1  31
TORSDOF 7
ENDMDL
MODEL 2
REMARK VINA RESULT:      -8.7      3.499      8.272
REMARK  Name = 
REMARK  7 active torsions:
REMARK  status: ('A' for Active; 'I' for Inactive)
REMARK    1  A    between atoms: O_1  and  C_2
REMARK    2  A    between atoms: C_10  and  C_11
REMARK    3  A    between atoms: C_17  and  C_18
REMARK    4  A    between atoms: C_21  and  O_22
REMARK    5  A    between atoms: O_22  and  C_23
REMARK    6  A    between atoms: C_23  and  C_24
REMARK    7  A    between atoms: C_24  and  N_25
REMARK                            x       y       z     vdW  Elec       q    Type
REMARK                         _______ _______ _______ _____ _____    ______ ____
ROOT
ATOM      1  C   UNL     1      -2.967  11.245  17.118  0.00  0.00    +0.000 A 
ATOM      2  C   UNL     1      -2.568   9.922  17.201  0.00  0.00    +0.000 A 
ATOM      3  C   UNL     1      -1.727   9.527  18.242  0.00  0.00    +0.000 A 
ATOM      4  C   UNL     1      -1.215  10.461  19.164  0.00  0.00    +0.000 A 
ATOM      5  C   UNL     1      -1.784  11.757  19.170  0.00  0.00    +0.000 A 
ATOM      6  C   UNL     1      -2.619  12.146  18.114  0.00  0.00    +0.000 A 
ATOM      7  C   UNL     1      -1.546  12.804  20.238  0.00  0.00    +0.000 C 
ATOM      8  S   UNL     1      -0.760  12.188  21.736  0.00  0.00    +0.000 S 
ATOM      9  C   UNL     1       0.578  11.269  20.881  0.00  0.00    +0.000 C 
ATOM     10  C   UNL     1      -0.087  10.049  20.130  0.00  0.00    +0.000 C 
ENDROOT
BRANCH   9  11
ATOM     11  C   UNL     1       1.484  12.233  20.103  0.00  0.00    +0.000 A 
ATOM     12  C   UNL     1       2.182  13.234  20.799  0.00  0.00    +0.000 A 
ATOM     13  C   UNL     1       3.001  14.146  20.125  0.00  0.00    +0.000 A 
ATOM     14  C   UNL     1       3.168  14.054  18.743  0.00  0.00    +0.000 A 
ATOM     15  C   UNL     1       2.489  13.072  18.037  0.00  0.00    +0.000 A 
ATOM     16  C   UNL     1       1.639  12.193  18.710  0.00  0.00    +0.000 A 
ENDBRANCH   9  11
BRANCH  10  17
ATOM     17  C   UNL     1       1.032   9.126  19.586  0.00  0.00    +0.000 A 
ATOM     18  C   UNL     1       1.427   9.292  18.250  0.00  0.00    +0.000 A 
ATOM     19  C   UNL     1       2.292   8.385  17.633  0.00  0.00    +0.000 A 
ATOM     20  C   UNL     1       2.822   7.305  18.340  0.00  0.00    +0.000 A 
ATOM     21  C   UNL     1       2.501   7.165  19.685  0.00  0.00    +0.000 A 
ATOM     22  C   UNL     1       1.612   8.058  20.296  0.00  0.00    +0.000 A 
BRANCH  20  23
ATOM     23  O   UNL     1       3.642   6.334  17.816  0.00  0.00    +0.000 OA
BRANCH  23  24
ATOM     24  C   UNL     1       3.751   5.164  18.632  0.00  0.00    +0.000 C 
BRANCH  24  25
ATOM     25  C   UNL     1       3.058   3.961  17.982  0.00  0.00    +0.000 C 
BRANCH  25  26
ATOM     26  N   UNL     1       2.853   2.852  18.937  0.00  0.00    +0.000 NA
ATOM     27  C   UNL     1       1.461   2.377  18.913  0.00  0.00    +0.000 C 
ATOM     28  C   UNL     1       0.730   3.283  19.885  0.00  0.00    +0.000 C 
ATOM     29  C   UNL     1       1.748   3.520  20.981  0.00  0.00    +0.000 C 
ATOM     30  C   UNL     1       3.097   3.219  20.342  0.00  0.00    +0.000 C 
ENDBRANCH  25  26
ENDBRANCH  24  25
ENDBRANCH  23  24
ENDBRANCH  20  23
ENDBRANCH  10  17
BRANCH   1  31
ATOM     31  O   UNL     1      -3.712  11.705  16.075  0.00  0.00    +0.000 OA
ATOM     32  H   UNL     1      -3.808  12.666  16.169  0.00  0.00    +0.000 HD
ENDBRANCH   1  31
TORSDOF 7
ENDMDL
MODEL 3
REMARK VINA RESULT:      -8.6      1.612      2.429
REMARK  Name = 
REMARK  7 active torsions:
REMARK  status: ('A' for Active; 'I' for Inactive)
REMARK    1  A    between atoms: O_1  and  C_2
REMARK    2  A    between atoms: C_10  and  C_11
REMARK    3  A    between atoms: C_17  and  C_18
REMARK    4  A    between atoms: C_21  and  O_22
REMARK    5  A    between atoms: O_22  and  C_23
REMARK    6  A    between atoms: C_23  and  C_24
REMARK    7  A    between atoms: C_24  and  N_25
REMARK                            x       y       z     vdW  Elec       q    Type
REMARK                         _______ _______ _______ _____ _____    ______ ____
ROOT
ATOM      1  C   UNL     1       2.577   2.773  21.258  0.00  0.00    +0.000 A 
ATOM      2  C   UNL     1       1.615   3.764  21.168  0.00  0.00    +0.000 A 
ATOM      3  C   UNL     1       1.585   4.587  20.041  0.00  0.00    +0.000 A 
ATOM      4  C   UNL     1       2.561   4.479  19.030  0.00  0.00    +0.000 A 
ATOM      5  C   UNL     1       3.410   3.346  19.055  0.00  0.00    +0.000 A 
ATOM      6  C   UNL     1       3.437   2.533  20.196  0.00  0.00    +0.000 A 
ATOM      7  C   UNL     1       4.336   2.932  17.931  0.00  0.00    +0.000 C 
ATOM      8  S   UNL     1       4.046   3.773  16.366  0.00  0.00    +0.000 S 
ATOM      9  C   UNL     1       3.978   5.464  17.072  0.00  0.00    +0.000 C 
ATOM     10  C   UNL     1       2.664   5.565  17.942  0.00  0.00    +0.000 C 
ENDROOT
BRANCH   9  11
ATOM     11  C   UNL     1       5.328   5.845  17.694  0.00  0.00    +0.000 A 
ATOM     12  C   UNL     1       6.140   6.793  17.049  0.00  0.00    +0.000 A 
ATOM     13  C   UNL     1       7.387   7.151  17.571  0.00  0.00    +0.000 A 
ATOM     14  C   UNL     1       7.834   6.596  18.770  0.00  0.00    +0.000 A 
ATOM     15  C   UNL     1       7.047   5.659  19.424  0.00  0.00    +0.000 A 
ATOM     16  C   UNL     1       5.823   5.273  18.875  0.00  0.00    +0.000 A 
ENDBRANCH   9  11
BRANCH  10  17
ATOM     17  C   UNL     1       2.457   7.040  18.368  0.00  0.00    +0.000 A 
ATOM     18  C   UNL     1       2.162   7.298  19.714  0.00  0.00    +0.000 A 
ATOM     19  C   UNL     1       1.782   8.573  20.141  0.00  0.00    +0.000 A 
ATOM     20  C   UNL     1       1.722   9.641  19.245  0.00  0.00    +0.000 A 
ATOM     21  C   UNL     1       2.082   9.422  17.921  0.00  0.00    +0.000 A 
ATOM     22  C   UNL     1       2.436   8.138  17.487  0.00  0.00    +0.000 A 
BRANCH  20  23
ATOM     23  O   UNL     1       1.318  10.918  19.552  0.00  0.00    +0.000 OA
BRANCH  23  24
ATOM     24  C   UNL     1      -0.082  11.144  19.371  0.00  0.00    +0.000 C 
BRANCH  24  25
ATOM     25  C   UNL     1      -0.883  10.721  20.608  0.00  0.00    +0.000 C 
BRANCH  25  26
ATOM     26  N   UNL     1      -0.310  11.264  21.857  0.00  0.00    +0.000 NA
ATOM     27  C   UNL     1      -1.074  10.819  23.033  0.00  0.00    +0.000 C 
ATOM     28  C   UNL     1      -2.196  11.831  23.167  0.00  0.00    +0.000 C 
ATOM     29  C   UNL     1      -1.544  13.137  22.760  0.00  0.00    +0.000 C 
ATOM     30  C   UNL     1      -0.329  12.735  21.935  0.00  0.00    +0.000 C 
ENDBRANCH  25  26
ENDBRANCH  24  25
ENDBRANCH  23  24
ENDBRANCH  20  23
ENDBRANCH  10  17
BRANCH   1  31
ATOM     31  O   UNL     1       2.710   2.002  22.373  0.00  0.00    +0.000 OA
ATOM     32  H   UNL     1       2.762   1.073  22.096  0.00  0.00    +0.000 HD
ENDBRANCH   1  31
TORSDOF 7
ENDMDL
MODEL 4
REMARK VINA RESULT:      -8.4      3.646      8.688
REMARK  Name = 
REMARK  7 active torsions:
REMARK  status: ('A' for Active; 'I' for Inactive)
REMARK    1  A    between atoms: O_1  and  C_2
REMARK    2  A    between atoms: C_10  and  C_11
REMARK    3  A    between atoms: C_17  and  C_18
REMARK    4  A    between atoms: C_21  and  O_22
REMARK    5  A    between atoms: O_22  and  C_23
REMARK    6  A    between atoms: C_23  and  C_24
REMARK    7  A    between atoms: C_24  and  N_25
REMARK                            x       y       z     vdW  Elec       q    Type
REMARK                         _______ _______ _______ _____ _____    ______ ____
ROOT
ATOM      1  C   UNL     1      -2.721  11.161  16.553  0.00  0.00    +0.000 A 
ATOM      2  C   UNL     1      -2.346   9.840  16.723  0.00  0.00    +0.000 A 
ATOM      3  C   UNL     1      -1.646   9.472  17.873  0.00  0.00    +0.000 A 
ATOM      4  C   UNL     1      -1.247  10.430  18.826  0.00  0.00    +0.000 A 
ATOM      5  C   UNL     1      -1.804  11.728  18.725  0.00  0.00    +0.000 A 
ATOM      6  C   UNL     1      -2.496  12.089  17.561  0.00  0.00    +0.000 A 
ATOM      7  C   UNL     1      -1.695  12.803  19.785  0.00  0.00    +0.000 C 
ATOM      8  S   UNL     1      -1.109  12.227  21.386  0.00  0.00    +0.000 S 
ATOM      9  C   UNL     1       0.319  11.280  20.733  0.00  0.00    +0.000 C 
ATOM     10  C   UNL     1      -0.254  10.041  19.938  0.00  0.00    +0.000 C 
ENDROOT
BRANCH   9  11
ATOM     11  C   UNL     1       1.323  12.217  20.050  0.00  0.00    +0.000 A 
ATOM     12  C   UNL     1       2.051  13.131  20.831  0.00  0.00    +0.000 A 
ATOM     13  C   UNL     1       2.960  14.019  20.245  0.00  0.00    +0.000 A 
ATOM     14  C   UNL     1       3.187  13.988  18.869  0.00  0.00    +0.000 A 
ATOM     15  C   UNL     1       2.479  13.091  18.080  0.00  0.00    +0.000 A 
ATOM     16  C   UNL     1       1.543  12.239  18.666  0.00  0.00    +0.000 A 
ENDBRANCH   9  11
BRANCH  10  17
ATOM     17  C   UNL     1       0.919   9.099  19.566  0.00  0.00    +0.000 A 
ATOM     18  C   UNL     1       1.447   9.190  18.270  0.00  0.00    +0.000 A 
ATOM     19  C   UNL     1       2.373   8.258  17.798  0.00  0.00    +0.000 A 
ATOM     20  C   UNL     1       2.833   7.227  18.617  0.00  0.00    +0.000 A 
ATOM     21  C   UNL     1       2.378   7.162  19.929  0.00  0.00    +0.000 A 
ATOM     22  C   UNL     1       1.428   8.081  20.393  0.00  0.00    +0.000 A 
BRANCH  20  23
ATOM     23  O   UNL     1       3.706   6.235  18.238  0.00  0.00    +0.000 OA
BRANCH  23  24
ATOM     24  C   UNL     1       4.530   6.582  17.121  0.00  0.00    +0.000 C 
BRANCH  24  25
ATOM     25  C   UNL     1       5.306   5.367  16.598  0.00  0.00    +0.000 C 
BRANCH  25  26
ATOM     26  N   UNL     1       6.749   5.648  16.450  0.00  0.00    +0.000 NA
ATOM     27  C   UNL     1       7.565   4.584  17.056  0.00  0.00    +0.000 C 
ATOM     28  C   UNL     1       7.688   4.978  18.515  0.00  0.00    +0.000 C 
ATOM     29  C   UNL     1       7.788   6.490  18.465  0.00  0.00    +0.000 C 
ATOM     30  C   UNL     1       7.190   6.883  17.121  0.00  0.00    +0.000 C 
ENDBRANCH  25  26
ENDBRANCH  24  25
ENDBRANCH  23  24
ENDBRANCH  20  23
ENDBRANCH  10  17
BRANCH   1  31
ATOM     31  O   UNL     1      -3.325  11.595  15.412  0.00  0.00    +0.000 OA
ATOM     32  H   UNL     1      -2.758  12.269  15.004  0.00  0.00    +0.000 HD
ENDBRANCH   1  31
TORSDOF 7
ENDMDL
MODEL 5
REMARK VINA RESULT:      -8.3      1.507      1.888
REMARK  Name = 
REMARK  7 active torsions:
REMARK  status: ('A' for Active; 'I' for Inactive)
REMARK    1  A    between atoms: O_1  and  C_2
REMARK    2  A    between atoms: C_10  and  C_11
REMARK    3  A    between atoms: C_17  and  C_18
REMARK    4  A    between atoms: C_21  and  O_22
REMARK    5  A    between atoms: O_22  and  C_23
REMARK    6  A    between atoms: C_23  and  C_24
REMARK    7  A    between atoms: C_24  and  N_25
REMARK                            x       y       z     vdW  Elec       q    Type
REMARK                         _______ _______ _______ _____ _____    ______ ____
ROOT
ATOM      1  C   UNL     1       3.310   1.810  18.259  0.00  0.00    +0.000 A 
ATOM      2  C   UNL     1       2.227   2.648  18.454  0.00  0.00    +0.000 A 
ATOM      3  C   UNL     1       2.259   3.939  17.926  0.00  0.00    +0.000 A 
ATOM      4  C   UNL     1       3.403   4.433  17.267  0.00  0.00    +0.000 A 
ATOM      5  C   UNL     1       4.412   3.503  16.919  0.00  0.00    +0.000 A 
ATOM      6  C   UNL     1       4.374   2.212  17.463  0.00  0.00    +0.000 A 
ATOM      7  C   UNL     1       5.579   3.793  15.999  0.00  0.00    +0.000 C 
ATOM      8  S   UNL     1       5.433   5.319  15.055  0.00  0.00    +0.000 S 
ATOM      9  C   UNL     1       4.958   6.375  16.477  0.00  0.00    +0.000 C 
ATOM     10  C   UNL     1       3.512   5.934  16.936  0.00  0.00    +0.000 C 
ENDROOT
BRANCH   9  11
ATOM     11  C   UNL     1       6.092   6.436  17.509  0.00  0.00    +0.000 A 
ATOM     12  C   UNL     1       7.100   7.405  17.366  0.00  0.00    +0.000 A 
ATOM     13  C   UNL     1       8.164   7.479  18.271  0.00  0.00    +0.000 A 
ATOM     14  C   UNL     1       8.223   6.611  19.361  0.00  0.00    +0.000 A 
ATOM     15  C   UNL     1       7.237   5.648  19.521  0.00  0.00    +0.000 A 
ATOM     16  C   UNL     1       6.202   5.550  18.589  0.00  0.00    +0.000 A 
ENDBRANCH   9  11
BRANCH  10  17
ATOM     17  C   UNL     1       2.988   6.948  17.983  0.00  0.00    +0.000 A 
ATOM     18  C   UNL     1       2.734   6.478  19.280  0.00  0.00    +0.000 A 
ATOM     19  C   UNL     1       2.090   7.277  20.227  0.00  0.00    +0.000 A 
ATOM     20  C   UNL     1       1.713   8.585  19.924  0.00  0.00    +0.000 A 
ATOM     21  C   UNL     1       2.022   9.095  18.668  0.00  0.00    +0.000 A 
ATOM     22  C   UNL     1       2.642   8.284  17.709  0.00  0.00    +0.000 A 
BRANCH  20  23
ATOM     23  O   UNL     1       1.037   9.437  20.764  0.00  0.00    +0.000 OA
BRANCH  23  24
ATOM     24  C   UNL     1       0.471  10.574  20.108  0.00  0.00    +0.000 C 
BRANCH  24  25
ATOM     25  C   UNL     1      -0.919  10.261  19.542  0.00  0.00    +0.000 C 
BRANCH  25  26
ATOM     26  N   UNL     1      -1.097  10.788  18.173  0.00  0.00    +0.000 NA
ATOM     27  C   UNL     1      -1.956  11.983  18.168  0.00  0.00    +0.000 C 
ATOM     28  C   UNL     1      -3.370  11.439  18.089  0.00  0.00    +0.000 C 
ATOM     29  C   UNL     1      -3.233  10.230  17.186  0.00  0.00    +0.000 C 
ATOM     30  C   UNL     1      -1.760   9.849  17.252  0.00  0.00    +0.000 C 
ENDBRANCH  25  26
ENDBRANCH  24  25
ENDBRANCH  23  24
ENDBRANCH  20  23
ENDBRANCH  10  17
BRANCH   1  31
ATOM     31  O   UNL     1       3.372   0.573  18.827  0.00  0.00    +0.000 OA
ATOM     32  H   UNL     1       2.599   0.064  18.535  0.00  0.00    +0.000 HD
ENDBRANCH   1  31
TORSDOF 7
ENDMDL
MODEL 6
REMARK VINA RESULT:      -8.2      3.578      8.616
REMARK  Name = 
REMARK  7 active torsions:
REMARK  status: ('A' for Active; 'I' for Inactive)
REMARK    1  A    between atoms: O_1  and  C_2
REMARK    2  A    between atoms: C_10  and  C_11
REMARK    3  A    between atoms: C_17  and  C_18
REMARK    4  A    between atoms: C_21  and  O_22
REMARK    5  A    between atoms: O_22  and  C_23
REMARK    6  A    between atoms: C_23  and  C_24
REMARK    7  A    between atoms: C_24  and  N_25
REMARK                            x       y       z     vdW  Elec       q    Type
REMARK                         _______ _______ _______ _____ _____    ______ ____
ROOT
ATOM      1  C   UNL     1      -3.288  11.442  17.467  0.00  0.00    +0.000 A 
ATOM      2  C   UNL     1      -2.926  10.107  17.439  0.00  0.00    +0.000 A 
ATOM      3  C   UNL     1      -2.006   9.629  18.373  0.00  0.00    +0.000 A 
ATOM      4  C   UNL     1      -1.380  10.494  19.293  0.00  0.00    +0.000 A 
ATOM      5  C   UNL     1      -1.904  11.803  19.424  0.00  0.00    +0.000 A 
ATOM      6  C   UNL     1      -2.821  12.274  18.474  0.00  0.00    +0.000 A 
ATOM      7  C   UNL     1      -1.535  12.779  20.521  0.00  0.00    +0.000 C 
ATOM      8  S   UNL     1      -0.634  12.057  21.902  0.00  0.00    +0.000 S 
ATOM      9  C   UNL     1       0.588  11.153  20.876  0.00  0.00    +0.000 C 
ATOM     10  C   UNL     1      -0.182   9.997  20.125  0.00  0.00    +0.000 C 
ENDROOT
BRANCH   9  11
ATOM     11  C   UNL     1       1.450  12.135  20.071  0.00  0.00    +0.000 A 
ATOM     12  C   UNL     1       2.172  13.132  20.748  0.00  0.00    +0.000 A 
ATOM     13  C   UNL     1       2.950  14.061  20.050  0.00  0.00    +0.000 A 
ATOM     14  C   UNL     1       3.053  13.991  18.661  0.00  0.00    +0.000 A 
ATOM     15  C   UNL     1       2.349  13.013  17.972  0.00  0.00    +0.000 A 
ATOM     16  C   UNL     1       1.539  12.117  18.671  0.00  0.00    +0.000 A 
ENDBRANCH   9  11
BRANCH  10  17
ATOM     17  C   UNL     1       0.852   9.077  19.428  0.00  0.00    +0.000 A 
ATOM     18  C   UNL     1       1.435   8.053  20.188  0.00  0.00    +0.000 A 
ATOM     19  C   UNL     1       2.503   7.302  19.693  0.00  0.00    +0.000 A 
ATOM     20  C   UNL     1       2.998   7.521  18.407  0.00  0.00    +0.000 A 
ATOM     21  C   UNL     1       2.386   8.481  17.610  0.00  0.00    +0.000 A 
ATOM     22  C   UNL     1       1.333   9.253  18.117  0.00  0.00    +0.000 A 
BRANCH  20  23
ATOM     23  O   UNL     1       4.070   6.871  17.843  0.00  0.00    +0.000 OA
BRANCH  23  24
ATOM     24  C   UNL     1       4.164   5.489  18.198  0.00  0.00    +0.000 C 
BRANCH  24  25
ATOM     25  C   UNL     1       5.236   5.257  19.270  0.00  0.00    +0.000 C 
BRANCH  25  26
ATOM     26  N   UNL     1       6.500   4.749  18.695  0.00  0.00    +0.000 NA
ATOM     27  C   UNL     1       7.633   5.622  19.041  0.00  0.00    +0.000 C 
ATOM     28  C   UNL     1       7.633   6.694  17.967  0.00  0.00    +0.000 C 
ATOM     29  C   UNL     1       7.219   5.942  16.719  0.00  0.00    +0.000 C 
ATOM     30  C   UNL     1       6.508   4.694  17.223  0.00  0.00    +0.000 C 
ENDBRANCH  25  26
ENDBRANCH  24  25
ENDBRANCH  23  24
ENDBRANCH  20  23
ENDBRANCH  10  17
BRANCH   1  31
ATOM     31  O   UNL     1      -4.111  11.982  16.525  0.00  0.00    +0.000 OA
ATOM     32  H   UNL     1      -4.547  11.257  16.049  0.00  0.00    +0.000 HD
ENDBRANCH   1  31
TORSDOF 7
ENDMDL
MODEL 7
REMARK VINA RESULT:      -8.2      3.458      8.924
REMARK  Name = 
REMARK  7 active torsions:
REMARK  status: ('A' for Active; 'I' for Inactive)
REMARK    1  A    between atoms: O_1  and  C_2
REMARK    2  A    between atoms: C_10  and  C_11
REMARK    3  A    between atoms: C_17  and  C_18
REMARK    4  A    between atoms: C_21  and  O_22
REMARK    5  A    between atoms: O_22  and  C_23
REMARK    6  A    between atoms: C_23  and  C_24
REMARK    7  A    between atoms: C_24  and  N_25
REMARK                            x       y       z     vdW  Elec       q    Type
REMARK                         _______ _______ _______ _____ _____    ______ ____
ROOT
ATOM      1  C   UNL     1      -2.595  11.900  23.131  0.00  0.00    +0.000 A 
ATOM      2  C   UNL     1      -1.467  11.135  23.371  0.00  0.00    +0.000 A 
ATOM      3  C   UNL     1      -0.474  11.057  22.394  0.00  0.00    +0.000 A 
ATOM      4  C   UNL     1      -0.632  11.678  21.138  0.00  0.00    +0.000 A 
ATOM      5  C   UNL     1      -1.695  12.601  20.992  0.00  0.00    +0.000 A 
ATOM      6  C   UNL     1      -2.692  12.663  21.975  0.00  0.00    +0.000 A 
ATOM      7  C   UNL     1      -1.871  13.542  19.819  0.00  0.00    +0.000 C 
ATOM      8  S   UNL     1      -0.431  13.691  18.749  0.00  0.00    +0.000 S 
ATOM      9  C   UNL     1      -0.131  11.889  18.586  0.00  0.00    +0.000 C 
ATOM     10  C   UNL     1       0.347  11.356  19.993  0.00  0.00    +0.000 C 
ENDROOT
BRANCH   9  11
ATOM     11  C   UNL     1      -1.311  11.207  17.880  0.00  0.00    +0.000 A 
ATOM     12  C   UNL     1      -1.792  11.741  16.672  0.00  0.00    +0.000 A 
ATOM     13  C   UNL     1      -2.879  11.162  16.009  0.00  0.00    +0.000 A 
ATOM     14  C   UNL     1      -3.486  10.015  16.520  0.00  0.00    +0.000 A 
ATOM     15  C   UNL     1      -3.026   9.471  17.711  0.00  0.00    +0.000 A 
ATOM     16  C   UNL     1      -1.969  10.079  18.390  0.00  0.00    +0.000 A 
ENDBRANCH   9  11
BRANCH  10  17
ATOM     17  C   UNL     1       0.824   9.889  19.837  0.00  0.00    +0.000 A 
ATOM     18  C   UNL     1       0.650   9.025  20.928  0.00  0.00    +0.000 A 
ATOM     19  C   UNL     1       1.214   7.748  20.937  0.00  0.00    +0.000 A 
ATOM     20  C   UNL     1       1.938   7.276  19.841  0.00  0.00    +0.000 A 
ATOM     21  C   UNL     1       2.060   8.090  18.721  0.00  0.00    +0.000 A 
ATOM     22  C   UNL     1       1.517   9.381  18.723  0.00  0.00    +0.000 A 
BRANCH  20  23
ATOM     23  O   UNL     1       2.570   6.058  19.766  0.00  0.00    +0.000 OA
BRANCH  23  24
ATOM     24  C   UNL     1       3.365   5.887  18.590  0.00  0.00    +0.000 C 
BRANCH  24  25
ATOM     25  C   UNL     1       4.834   5.621  18.939  0.00  0.00    +0.000 C 
BRANCH  25  26
ATOM     26  N   UNL     1       5.688   5.533  17.736  0.00  0.00    +0.000 NA
ATOM     27  C   UNL     1       6.973   4.884  18.038  0.00  0.00    +0.000 C 
ATOM     28  C   UNL     1       7.865   6.008  18.529  0.00  0.00    +0.000 C 
ATOM     29  C   UNL     1       7.451   7.187  17.672  0.00  0.00    +0.000 C 
ATOM     30  C   UNL     1       6.056   6.842  17.168  0.00  0.00    +0.000 C 
ENDBRANCH  25  26
ENDBRANCH  24  25
ENDBRANCH  23  24
ENDBRANCH  20  23
ENDBRANCH  10  17
BRANCH   1  31
ATOM     31  O   UNL     1      -3.635  11.940  24.009  0.00  0.00    +0.000 OA
ATOM     32  H   UNL     1      -4.401  11.511  23.594  0.00  0.00    +0.000 HD
ENDBRANCH   1  31
TORSDOF 7
ENDMDL
MODEL 8
REMARK VINA RESULT:      -8.2      3.469      8.239
REMARK  Name = 
REMARK  7 active torsions:
REMARK  status: ('A' for Active; 'I' for Inactive)
REMARK    1  A    between atoms: O_1  and  C_2
REMARK    2  A    between atoms: C_10  and  C_11
REMARK    3  A    between atoms: C_17  and  C_18
REMARK    4  A    between atoms: C_21  and  O_22
REMARK    5  A    between atoms: O_22  and  C_23
REMARK    6  A    between atoms: C_23  and  C_24
REMARK    7  A    between atoms: C_24  and  N_25
REMARK                            x       y       z     vdW  Elec       q    Type
REMARK                         _______ _______ _______ _____ _____    ______ ____
ROOT
ATOM      1  C   UNL     1      -2.624  11.102  16.508  0.00  0.00    +0.000 A 
ATOM      2  C   UNL     1      -2.283   9.788  16.776  0.00  0.00    +0.000 A 
ATOM      3  C   UNL     1      -1.646   9.480  17.979  0.00  0.00    +0.000 A 
ATOM      4  C   UNL     1      -1.274  10.489  18.890  0.00  0.00    +0.000 A 
ATOM      5  C   UNL     1      -1.798  11.787  18.681  0.00  0.00    +0.000 A 
ATOM      6  C   UNL     1      -2.428  12.087  17.465  0.00  0.00    +0.000 A 
ATOM      7  C   UNL     1      -1.718  12.925  19.677  0.00  0.00    +0.000 C 
ATOM      8  S   UNL     1      -1.220  12.440  21.337  0.00  0.00    +0.000 S 
ATOM      9  C   UNL     1       0.218  11.430  20.814  0.00  0.00    +0.000 C 
ATOM     10  C   UNL     1      -0.341  10.154  20.070  0.00  0.00    +0.000 C 
ENDROOT
BRANCH   9  11
ATOM     11  C   UNL     1       1.272  12.305  20.124  0.00  0.00    +0.000 A 
ATOM     12  C   UNL     1       1.596  12.060  18.778  0.00  0.00    +0.000 A 
ATOM     13  C   UNL     1       2.568  12.821  18.119  0.00  0.00    +0.000 A 
ATOM     14  C   UNL     1       3.210  13.868  18.780  0.00  0.00    +0.000 A 
ATOM     15  C   UNL     1       2.904  14.127  20.109  0.00  0.00    +0.000 A 
ATOM     16  C   UNL     1       1.966  13.336  20.773  0.00  0.00    +0.000 A 
ENDBRANCH   9  11
BRANCH  10  17
ATOM     17  C   UNL     1       0.828   9.170  19.814  0.00  0.00    +0.000 A 
ATOM     18  C   UNL     1       1.378   9.128  18.524  0.00  0.00    +0.000 A 
ATOM     19  C   UNL     1       2.303   8.146  18.164  0.00  0.00    +0.000 A 
ATOM     20  C   UNL     1       2.740   7.198  19.089  0.00  0.00    +0.000 A 
ATOM     21  C   UNL     1       2.263   7.268  20.393  0.00  0.00    +0.000 A 
ATOM     22  C   UNL     1       1.314   8.235  20.747  0.00  0.00    +0.000 A 
BRANCH  20  23
ATOM     23  O   UNL     1       3.610   6.167  18.826  0.00  0.00    +0.000 OA
BRANCH  23  24
ATOM     24  C   UNL     1       3.487   5.626  17.508  0.00  0.00    +0.000 C 
BRANCH  24  25
ATOM     25  C   UNL     1       3.711   4.109  17.501  0.00  0.00    +0.000 C 
BRANCH  25  26
ATOM     26  N   UNL     1       2.465   3.361  17.234  0.00  0.00    +0.000 NA
ATOM     27  C   UNL     1       1.296   4.050  17.804  0.00  0.00    +0.000 C 
ATOM     28  C   UNL     1       1.225   3.561  19.238  0.00  0.00    +0.000 C 
ATOM     29  C   UNL     1       1.655   2.111  19.139  0.00  0.00    +0.000 C 
ATOM     30  C   UNL     1       2.434   2.016  17.835  0.00  0.00    +0.000 C 
ENDBRANCH  25  26
ENDBRANCH  24  25
ENDBRANCH  23  24
ENDBRANCH  20  23
ENDBRANCH  10  17
BRANCH   1  31
ATOM     31  O   UNL     1      -3.164  11.473  15.314  0.00  0.00    +0.000 OA
ATOM     32  H   UNL     1      -3.972  10.955  15.170  0.00  0.00    +0.000 HD
ENDBRANCH   1  31
TORSDOF 7
ENDMDL
MODEL 9
REMARK VINA RESULT:      -8.2      3.474      8.189
REMARK  Name = 
REMARK  7 active torsions:
REMARK  status: ('A' for Active; 'I' for Inactive)
REMARK    1  A    between atoms: O_1  and  C_2
REMARK    2  A    between atoms: C_10  and  C_11
REMARK    3  A    between atoms: C_17  and  C_18
REMARK    4  A    between atoms: C_21  and  O_22
REMARK    5  A    between atoms: O_22  and  C_23
REMARK    6  A    between atoms: C_23  and  C_24
REMARK    7  A    between atoms: C_24  and  N_25
REMARK                            x       y       z     vdW  Elec       q    Type
REMARK                         _______ _______ _______ _____ _____    ______ ____
ROOT
ATOM      1  C   UNL     1      -3.262  11.470  17.497  0.00  0.00    +0.000 A 
ATOM      2  C   UNL     1      -2.902  10.135  17.439  0.00  0.00    +0.000 A 
ATOM      3  C   UNL     1      -1.984   9.635  18.363  0.00  0.00    +0.000 A 
ATOM      4  C   UNL     1      -1.359  10.478  19.304  0.00  0.00    +0.000 A 
ATOM      5  C   UNL     1      -1.881  11.784  19.464  0.00  0.00    +0.000 A 
ATOM      6  C   UNL     1      -2.796  12.278  18.524  0.00  0.00    +0.000 A 
ATOM      7  C   UNL     1      -1.513  12.734  20.584  0.00  0.00    +0.000 C 
ATOM      8  S   UNL     1      -0.616  11.978  21.950  0.00  0.00    +0.000 S 
ATOM      9  C   UNL     1       0.608  11.097  20.905  0.00  0.00    +0.000 C 
ATOM     10  C   UNL     1      -0.162   9.960  20.126  0.00  0.00    +0.000 C 
ENDROOT
BRANCH   9  11
ATOM     11  C   UNL     1       1.472  12.096  20.124  0.00  0.00    +0.000 A 
ATOM     12  C   UNL     1       1.561  11.983  18.726  0.00  0.00    +0.000 A 
ATOM     13  C   UNL     1       2.356  12.860  17.980  0.00  0.00    +0.000 A 
ATOM     14  C   UNL     1       3.050  13.892  18.611  0.00  0.00    +0.000 A 
ATOM     15  C   UNL     1       2.974  14.022  19.991  0.00  0.00    +0.000 A 
ATOM     16  C   UNL     1       2.215  13.117  20.734  0.00  0.00    +0.000 A 
ENDBRANCH   9  11
BRANCH  10  17
ATOM     17  C   UNL     1       0.871   9.055  19.409  0.00  0.00    +0.000 A 
ATOM     18  C   UNL     1       1.492   8.046  20.161  0.00  0.00    +0.000 A 
ATOM     19  C   UNL     1       2.561   7.312  19.645  0.00  0.00    +0.000 A 
ATOM     20  C   UNL     1       3.021   7.532  18.346  0.00  0.00    +0.000 A 
ATOM     21  C   UNL     1       2.372   8.476  17.559  0.00  0.00    +0.000 A 
ATOM     22  C   UNL     1       1.318   9.232  18.087  0.00  0.00    +0.000 A 
BRANCH  20  23
ATOM     23  O   UNL     1       4.091   6.899  17.760  0.00  0.00    +0.000 OA
BRANCH  23  24
ATOM     24  C   UNL     1       4.393   5.622  18.329  0.00  0.00    +0.000 C 
BRANCH  24  25
ATOM     25  C   UNL     1       3.738   4.485  17.534  0.00  0.00    +0.000 C 
BRANCH  25  26
ATOM     26  N   UNL     1       3.511   3.283  18.362  0.00  0.00    +0.000 NA
ATOM     27  C   UNL     1       2.389   2.483  17.847  0.00  0.00    +0.000 C 
ATOM     28  C   UNL     1       1.157   3.095  18.484  0.00  0.00    +0.000 C 
ATOM     29  C   UNL     1       1.631   3.482  19.870  0.00  0.00    +0.000 C 
ATOM     30  C   UNL     1       3.147   3.579  19.759  0.00  0.00    +0.000 C 
ENDBRANCH  25  26
ENDBRANCH  24  25
ENDBRANCH  23  24
ENDBRANCH  20  23
ENDBRANCH  10  17
BRANCH   1  31
ATOM     31  O   UNL     1      -4.082  12.033  16.567  0.00  0.00    +0.000 OA
ATOM     32  H   UNL     1      -4.624  12.708  17.006  0.00  0.00    +0.000 HD
ENDBRANCH   1  31
TORSDOF 7
ENDMDL
