MODEL 1
REMARK VINA RESULT:      -7.6      0.000      0.000
REMARK  Name = 
REMARK  10 active torsions:
REMARK  status: ('A' for Active; 'I' for Inactive)
REMARK    1  A    between atoms: C_1  and  C_2
REMARK    2  A    between atoms: C_2  and  C_3
REMARK    3  A    between atoms: C_3  and  C_4
REMARK    4  A    between atoms: C_4  and  C_5
REMARK    5  A    between atoms: C_5  and  N_6
REMARK    6  A    between atoms: C_7  and  C_8
REMARK    7  A    between atoms: C_8  and  C_9
REMARK    8  A    between atoms: C_9  and  C_10
REMARK    9  A    between atoms: C_10  and  N_11
REMARK   10  A    between atoms: C_12  and  C_14
REMARK                            x       y       z     vdW  Elec       q    Type
REMARK                         _______ _______ _______ _____ _____    ______ ____
ROOT
ATOM      1  N   UNL     1       5.326   4.391  16.749  0.00  0.00    +0.000 N 
ATOM      2  C   UNL     1       4.879   3.577  17.780  0.00  0.00    +0.000 A 
ATOM      3  N   UNL     1       5.452   3.924  18.918  0.00  0.00    +0.000 NA
ATOM      4  C   UNL     1       6.305   4.954  18.623  0.00  0.00    +0.000 A 
ATOM      5  C   UNL     1       7.161   5.668  19.476  0.00  0.00    +0.000 A 
ATOM      6  C   UNL     1       7.959   6.687  18.944  0.00  0.00    +0.000 A 
ATOM      7  C   UNL     1       7.904   6.988  17.584  0.00  0.00    +0.000 A 
ATOM      8  C   UNL     1       7.056   6.287  16.717  0.00  0.00    +0.000 A 
ATOM      9  C   UNL     1       6.258   5.270  17.270  0.00  0.00    +0.000 A 
ENDROOT
BRANCH   1  10
ATOM     10  C   UNL     1       4.963   4.308  15.343  0.00  0.00    +0.000 C 
BRANCH  10  11
ATOM     11  C   UNL     1       6.052   3.732  14.440  0.00  0.00    +0.000 C 
BRANCH  11  12
ATOM     12  C   UNL     1       5.874   4.183  12.987  0.00  0.00    +0.000 C 
BRANCH  12  14
ATOM     13  C   UNL     1       4.222   3.213  11.340  0.00  0.00    +0.000 C 
ATOM     14  C   UNL     1       5.513   2.988  12.105  0.00  0.00    +0.000 C 
ENDBRANCH  12  14
ENDBRANCH  11  12
ENDBRANCH  10  11
ENDBRANCH   1  10
BRANCH   2  15
ATOM     15  C   UNL     1       3.842   2.492  17.649  0.00  0.00    +0.000 C 
BRANCH  15  16
ATOM     16  C   UNL     1       3.289   2.045  19.012  0.00  0.00    +0.000 C 
BRANCH  16  17
ATOM     17  C   UNL     1       1.888   2.579  19.309  0.00  0.00    +0.000 C 
BRANCH  17  18
ATOM     18  N   UNL     1       1.776   4.004  19.059  0.00  0.00    +0.000 N 
ATOM     19  C   UNL     1       2.197   4.938  19.980  0.00  0.00    +0.000 C 
ATOM     20  O   UNL     1       2.686   4.652  21.067  0.00  0.00    +0.000 OA
ATOM     21  H   UNL     1       1.544   4.296  18.118  0.00  0.00    +0.000 HD
BRANCH  19  22
ATOM     22  C   UNL     1       2.053   6.367  19.587  0.00  0.00    +0.000 A 
ATOM     23  C   UNL     1       2.392   6.821  18.303  0.00  0.00    +0.000 A 
ATOM     24  C   UNL     1       2.233   8.171  17.980  0.00  0.00    +0.000 A 
ATOM     25  C   UNL     1       1.727   9.062  18.929  0.00  0.00    +0.000 A 
ATOM     26 CL   UNL     1       1.545  10.726  18.530  0.00  0.00    +0.000 Cl
ATOM     27  C   UNL     1       1.366   8.612  20.194  0.00  0.00    +0.000 A 
ATOM     28  C   UNL     1       1.523   7.263  20.527  0.00  0.00    +0.000 A 
ENDBRANCH  19  22
ENDBRANCH  17  18
ENDBRANCH  16  17
ENDBRANCH  15  16
ENDBRANCH   2  15
TORSDOF 9
ENDMDL
MODEL 2
REMARK VINA RESULT:      -7.3      4.659      7.537
REMARK  Name = 
REMARK  10 active torsions:
REMARK  status: ('A' for Active; 'I' for Inactive)
REMARK    1  A    between atoms: C_1  and  C_2
REMARK    2  A    between atoms: C_2  and  C_3
REMARK    3  A    between atoms: C_3  and  C_4
REMARK    4  A    between atoms: C_4  and  C_5
REMARK    5  A    between atoms: C_5  and  N_6
REMARK    6  A    between atoms: C_7  and  C_8
REMARK    7  A    between atoms: C_8  and  C_9
REMARK    8  A    between atoms: C_9  and  C_10
REMARK    9  A    between atoms: C_10  and  N_11
REMARK   10  A    between atoms: C_12  and  C_14
REMARK                            x       y       z     vdW  Elec       q    Type
REMARK                         _______ _______ _______ _____ _____    ______ ____
ROOT
ATOM      1  N   UNL     1       5.715   5.170  15.909  0.00  0.00    +0.000 N 
ATOM      2  C   UNL     1       6.964   5.680  16.232  0.00  0.00    +0.000 A 
ATOM      3  N   UNL     1       7.798   5.525  15.221  0.00  0.00    +0.000 NA
ATOM      4  C   UNL     1       7.098   4.878  14.238  0.00  0.00    +0.000 A 
ATOM      5  C   UNL     1       7.529   4.464  12.967  0.00  0.00    +0.000 A 
ATOM      6  C   UNL     1       6.628   3.804  12.124  0.00  0.00    +0.000 A 
ATOM      7  C   UNL     1       5.320   3.560  12.541  0.00  0.00    +0.000 A 
ATOM      8  C   UNL     1       4.871   3.967  13.804  0.00  0.00    +0.000 A 
ATOM      9  C   UNL     1       5.788   4.633  14.636  0.00  0.00    +0.000 A 
ENDROOT
BRANCH   1  10
ATOM     10  C   UNL     1       4.538   5.117  16.763  0.00  0.00    +0.000 C 
BRANCH  10  11
ATOM     11  C   UNL     1       4.181   3.718  17.262  0.00  0.00    +0.000 C 
BRANCH  11  12
ATOM     12  C   UNL     1       2.670   3.562  17.461  0.00  0.00    +0.000 C 
BRANCH  12  14
ATOM     13  C   UNL     1       3.501   1.474  18.617  0.00  0.00    +0.000 C 
ATOM     14  C   UNL     1       2.341   2.133  17.893  0.00  0.00    +0.000 C 
ENDBRANCH  12  14
ENDBRANCH  11  12
ENDBRANCH  10  11
ENDBRANCH   1  10
BRANCH   2  15
ATOM     15  C   UNL     1       7.316   6.373  17.523  0.00  0.00    +0.000 C 
BRANCH  15  16
ATOM     16  C   UNL     1       7.473   7.892  17.347  0.00  0.00    +0.000 C 
BRANCH  16  17
ATOM     17  C   UNL     1       8.319   8.550  18.436  0.00  0.00    +0.000 C 
BRANCH  17  18
ATOM     18  N   UNL     1       8.833   9.845  18.029  0.00  0.00    +0.000 N 
ATOM     19  C   UNL     1       9.349  10.741  18.940  0.00  0.00    +0.000 C 
ATOM     20  O   UNL     1       9.411  10.529  20.145  0.00  0.00    +0.000 OA
ATOM     21  H   UNL     1       8.967  10.003  17.038  0.00  0.00    +0.000 HD
BRANCH  19  22
ATOM     22  C   UNL     1       9.871  12.021  18.387  0.00  0.00    +0.000 A 
ATOM     23  C   UNL     1      11.059  12.078  17.642  0.00  0.00    +0.000 A 
ATOM     24  C   UNL     1      11.505  13.303  17.139  0.00  0.00    +0.000 A 
ATOM     25  C   UNL     1      10.762  14.463  17.365  0.00  0.00    +0.000 A 
ATOM     26 CL   UNL     1      11.321  15.971  16.752  0.00  0.00    +0.000 Cl
ATOM     27  C   UNL     1       9.571  14.408  18.079  0.00  0.00    +0.000 A 
ATOM     28  C   UNL     1       9.118  13.187  18.588  0.00  0.00    +0.000 A 
ENDBRANCH  19  22
ENDBRANCH  17  18
ENDBRANCH  16  17
ENDBRANCH  15  16
ENDBRANCH   2  15
TORSDOF 9
ENDMDL
MODEL 3
REMARK VINA RESULT:      -7.3      1.025      1.126
REMARK  Name = 
REMARK  10 active torsions:
REMARK  status: ('A' for Active; 'I' for Inactive)
REMARK    1  A    between atoms: C_1  and  C_2
REMARK    2  A    between atoms: C_2  and  C_3
REMARK    3  A    between atoms: C_3  and  C_4
REMARK    4  A    between atoms: C_4  and  C_5
REMARK    5  A    between atoms: C_5  and  N_6
REMARK    6  A    between atoms: C_7  and  C_8
REMARK    7  A    between atoms: C_8  and  C_9
REMARK    8  A    between atoms: C_9  and  C_10
REMARK    9  A    between atoms: C_10  and  N_11
REMARK   10  A    between atoms: C_12  and  C_14
REMARK                            x       y       z     vdW  Elec       q    Type
REMARK                         _______ _______ _______ _____ _____    ______ ____
ROOT
ATOM      1  N   UNL     1       5.565   4.884  16.708  0.00  0.00    +0.000 N 
ATOM      2  C   UNL     1       5.209   3.891  17.608  0.00  0.00    +0.000 A 
ATOM      3  N   UNL     1       5.830   4.071  18.759  0.00  0.00    +0.000 NA
ATOM      4  C   UNL     1       6.625   5.175  18.600  0.00  0.00    +0.000 A 
ATOM      5  C   UNL     1       7.499   5.778  19.519  0.00  0.00    +0.000 A 
ATOM      6  C   UNL     1       8.225   6.908  19.127  0.00  0.00    +0.000 A 
ATOM      7  C   UNL     1       8.083   7.427  17.840  0.00  0.00    +0.000 A 
ATOM      8  C   UNL     1       7.215   6.840  16.911  0.00  0.00    +0.000 A 
ATOM      9  C   UNL     1       6.490   5.709  17.324  0.00  0.00    +0.000 A 
ENDROOT
BRANCH   1  10
ATOM     10  C   UNL     1       5.127   5.018  15.327  0.00  0.00    +0.000 C 
BRANCH  10  11
ATOM     11  C   UNL     1       6.054   4.366  14.303  0.00  0.00    +0.000 C 
BRANCH  11  12
ATOM     12  C   UNL     1       5.263   3.702  13.172  0.00  0.00    +0.000 C 
BRANCH  12  14
ATOM     13  C   UNL     1       5.790   1.927  11.453  0.00  0.00    +0.000 C 
ATOM     14  C   UNL     1       6.211   3.253  12.060  0.00  0.00    +0.000 C 
ENDBRANCH  12  14
ENDBRANCH  11  12
ENDBRANCH  10  11
ENDBRANCH   1  10
BRANCH   2  15
ATOM     15  C   UNL     1       4.209   2.794  17.347  0.00  0.00    +0.000 C 
BRANCH  15  16
ATOM     16  C   UNL     1       2.769   3.325  17.256  0.00  0.00    +0.000 C 
BRANCH  16  17
ATOM     17  C   UNL     1       2.202   3.788  18.598  0.00  0.00    +0.000 C 
BRANCH  17  18
ATOM     18  N   UNL     1       1.834   5.191  18.587  0.00  0.00    +0.000 N 
ATOM     19  C   UNL     1       2.547   6.136  19.294  0.00  0.00    +0.000 C 
ATOM     20  O   UNL     1       3.527   5.875  19.981  0.00  0.00    +0.000 OA
ATOM     21  H   UNL     1       1.146   5.488  17.906  0.00  0.00    +0.000 HD
BRANCH  19  22
ATOM     22  C   UNL     1       2.082   7.544  19.172  0.00  0.00    +0.000 A 
ATOM     23  C   UNL     1       2.162   8.251  17.963  0.00  0.00    +0.000 A 
ATOM     24  C   UNL     1       1.707   9.571  17.898  0.00  0.00    +0.000 A 
ATOM     25  C   UNL     1       1.161  10.177  19.031  0.00  0.00    +0.000 A 
ATOM     26 CL   UNL     1       0.612  11.806  18.948  0.00  0.00    +0.000 Cl
ATOM     27  C   UNL     1       1.055   9.473  20.224  0.00  0.00    +0.000 A 
ATOM     28  C   UNL     1       1.510   8.153  20.299  0.00  0.00    +0.000 A 
ENDBRANCH  19  22
ENDBRANCH  17  18
ENDBRANCH  16  17
ENDBRANCH  15  16
ENDBRANCH   2  15
TORSDOF 9
ENDMDL
MODEL 4
REMARK VINA RESULT:      -7.3      0.537      1.312
REMARK  Name = 
REMARK  10 active torsions:
REMARK  status: ('A' for Active; 'I' for Inactive)
REMARK    1  A    between atoms: C_1  and  C_2
REMARK    2  A    between atoms: C_2  and  C_3
REMARK    3  A    between atoms: C_3  and  C_4
REMARK    4  A    between atoms: C_4  and  C_5
REMARK    5  A    between atoms: C_5  and  N_6
REMARK    6  A    between atoms: C_7  and  C_8
REMARK    7  A    between atoms: C_8  and  C_9
REMARK    8  A    between atoms: C_9  and  C_10
REMARK    9  A    between atoms: C_10  and  N_11
REMARK   10  A    between atoms: C_12  and  C_14
REMARK                            x       y       z     vdW  Elec       q    Type
REMARK                         _______ _______ _______ _____ _____    ______ ____
ROOT
ATOM      1  N   UNL     1       5.349   4.422  16.680  0.00  0.00    +0.000 N 
ATOM      2  C   UNL     1       4.886   3.593  17.691  0.00  0.00    +0.000 A 
ATOM      3  N   UNL     1       5.429   3.933  18.846  0.00  0.00    +0.000 NA
ATOM      4  C   UNL     1       6.279   4.974  18.582  0.00  0.00    +0.000 A 
ATOM      5  C   UNL     1       7.108   5.687  19.463  0.00  0.00    +0.000 A 
ATOM      6  C   UNL     1       7.907   6.719  18.960  0.00  0.00    +0.000 A 
ATOM      7  C   UNL     1       7.881   7.034  17.602  0.00  0.00    +0.000 A 
ATOM      8  C   UNL     1       7.060   6.336  16.708  0.00  0.00    +0.000 A 
ATOM      9  C   UNL     1       6.259   5.305  17.232  0.00  0.00    +0.000 A 
ENDROOT
BRANCH   1  10
ATOM     10  C   UNL     1       5.019   4.351  15.265  0.00  0.00    +0.000 C 
BRANCH  10  11
ATOM     11  C   UNL     1       6.059   3.634  14.407  0.00  0.00    +0.000 C 
BRANCH  11  12
ATOM     12  C   UNL     1       5.716   3.722  12.917  0.00  0.00    +0.000 C 
BRANCH  12  14
ATOM     13  C   UNL     1       7.811   5.130  12.788  0.00  0.00    +0.000 C 
ATOM     14  C   UNL     1       6.966   4.067  12.108  0.00  0.00    +0.000 C 
ENDBRANCH  12  14
ENDBRANCH  11  12
ENDBRANCH  10  11
ENDBRANCH   1  10
BRANCH   2  15
ATOM     15  C   UNL     1       3.863   2.499  17.525  0.00  0.00    +0.000 C 
BRANCH  15  16
ATOM     16  C   UNL     1       3.407   1.916  18.872  0.00  0.00    +0.000 C 
BRANCH  16  17
ATOM     17  C   UNL     1       2.035   2.415  19.323  0.00  0.00    +0.000 C 
BRANCH  17  18
ATOM     18  N   UNL     1       1.881   3.846  19.141  0.00  0.00    +0.000 N 
ATOM     19  C   UNL     1       2.269   4.748  20.108  0.00  0.00    +0.000 C 
ATOM     20  O   UNL     1       2.761   4.425  21.182  0.00  0.00    +0.000 OA
ATOM     21  H   UNL     1       1.645   4.176  18.213  0.00  0.00    +0.000 HD
BRANCH  19  22
ATOM     22  C   UNL     1       2.085   6.189  19.783  0.00  0.00    +0.000 A 
ATOM     23  C   UNL     1       1.503   7.086  20.691  0.00  0.00    +0.000 A 
ATOM     24  C   UNL     1       1.356   8.431  20.341  0.00  0.00    +0.000 A 
ATOM     25  C   UNL     1       1.801   8.881  19.096  0.00  0.00    +0.000 A 
ATOM     26 CL   UNL     1       1.607  10.536  18.666  0.00  0.00    +0.000 Cl
ATOM     27  C   UNL     1       2.402   8.002  18.204  0.00  0.00    +0.000 A 
ATOM     28  C   UNL     1       2.551   6.654  18.544  0.00  0.00    +0.000 A 
ENDBRANCH  19  22
ENDBRANCH  17  18
ENDBRANCH  16  17
ENDBRANCH  15  16
ENDBRANCH   2  15
TORSDOF 9
ENDMDL
MODEL 5
REMARK VINA RESULT:      -7.2      3.715      6.057
REMARK  Name = 
REMARK  10 active torsions:
REMARK  status: ('A' for Active; 'I' for Inactive)
REMARK    1  A    between atoms: C_1  and  C_2
REMARK    2  A    between atoms: C_2  and  C_3
REMARK    3  A    between atoms: C_3  and  C_4
REMARK    4  A    between atoms: C_4  and  C_5
REMARK    5  A    between atoms: C_5  and  N_6
REMARK    6  A    between atoms: C_7  and  C_8
REMARK    7  A    between atoms: C_8  and  C_9
REMARK    8  A    between atoms: C_9  and  C_10
REMARK    9  A    between atoms: C_10  and  N_11
REMARK   10  A    between atoms: C_12  and  C_14
REMARK                            x       y       z     vdW  Elec       q    Type
REMARK                         _______ _______ _______ _____ _____    ______ ____
ROOT
ATOM      1  N   UNL     1       3.327   5.182  18.170  0.00  0.00    +0.000 N 
ATOM      2  C   UNL     1       2.860   6.376  18.698  0.00  0.00    +0.000 A 
ATOM      3  N   UNL     1       2.077   6.144  19.736  0.00  0.00    +0.000 NA
ATOM      4  C   UNL     1       2.006   4.783  19.869  0.00  0.00    +0.000 A 
ATOM      5  C   UNL     1       1.292   4.019  20.806  0.00  0.00    +0.000 A 
ATOM      6  C   UNL     1       1.363   2.623  20.742  0.00  0.00    +0.000 A 
ATOM      7  C   UNL     1       2.131   1.999  19.759  0.00  0.00    +0.000 A 
ATOM      8  C   UNL     1       2.851   2.744  18.817  0.00  0.00    +0.000 A 
ATOM      9  C   UNL     1       2.773   4.146  18.899  0.00  0.00    +0.000 A 
ENDROOT
BRANCH   1  10
ATOM     10  C   UNL     1       4.182   5.010  17.005  0.00  0.00    +0.000 C 
BRANCH  10  11
ATOM     11  C   UNL     1       5.637   4.682  17.331  0.00  0.00    +0.000 C 
BRANCH  11  12
ATOM     12  C   UNL     1       6.298   5.802  18.140  0.00  0.00    +0.000 C 
BRANCH  12  14
ATOM     13  C   UNL     1       7.798   7.784  17.680  0.00  0.00    +0.000 C 
ATOM     14  C   UNL     1       6.566   7.011  17.243  0.00  0.00    +0.000 C 
ENDBRANCH  12  14
ENDBRANCH  11  12
ENDBRANCH  10  11
ENDBRANCH   1  10
BRANCH   2  15
ATOM     15  C   UNL     1       3.233   7.753  18.211  0.00  0.00    +0.000 C 
BRANCH  15  16
ATOM     16  C   UNL     1       2.061   8.464  17.515  0.00  0.00    +0.000 C 
BRANCH  16  17
ATOM     17  C   UNL     1       1.701   9.809  18.145  0.00  0.00    +0.000 C 
BRANCH  17  18
ATOM     18  N   UNL     1       0.347  10.222  17.828  0.00  0.00    +0.000 N 
ATOM     19  C   UNL     1      -0.635  10.300  18.792  0.00  0.00    +0.000 C 
ATOM     20  O   UNL     1      -0.453  10.026  19.972  0.00  0.00    +0.000 OA
ATOM     21  H   UNL     1       0.184  10.623  16.912  0.00  0.00    +0.000 HD
BRANCH  19  22
ATOM     22  C   UNL     1      -1.973  10.767  18.339  0.00  0.00    +0.000 A 
ATOM     23  C   UNL     1      -2.534  10.345  17.123  0.00  0.00    +0.000 A 
ATOM     24  C   UNL     1      -3.797  10.807  16.744  0.00  0.00    +0.000 A 
ATOM     25  C   UNL     1      -4.503  11.675  17.580  0.00  0.00    +0.000 A 
ATOM     26 CL   UNL     1      -6.053  12.251  17.102  0.00  0.00    +0.000 Cl
ATOM     27  C   UNL     1      -3.963  12.076  18.796  0.00  0.00    +0.000 A 
ATOM     28  C   UNL     1      -2.699  11.620  19.183  0.00  0.00    +0.000 A 
ENDBRANCH  19  22
ENDBRANCH  17  18
ENDBRANCH  16  17
ENDBRANCH  15  16
ENDBRANCH   2  15
TORSDOF 9
ENDMDL
MODEL 6
REMARK VINA RESULT:      -7.2      3.428      5.796
REMARK  Name = 
REMARK  10 active torsions:
REMARK  status: ('A' for Active; 'I' for Inactive)
REMARK    1  A    between atoms: C_1  and  C_2
REMARK    2  A    between atoms: C_2  and  C_3
REMARK    3  A    between atoms: C_3  and  C_4
REMARK    4  A    between atoms: C_4  and  C_5
REMARK    5  A    between atoms: C_5  and  N_6
REMARK    6  A    between atoms: C_7  and  C_8
REMARK    7  A    between atoms: C_8  and  C_9
REMARK    8  A    between atoms: C_9  and  C_10
REMARK    9  A    between atoms: C_10  and  N_11
REMARK   10  A    between atoms: C_12  and  C_14
REMARK                            x       y       z     vdW  Elec       q    Type
REMARK                         _______ _______ _______ _____ _____    ______ ____
ROOT
ATOM      1  N   UNL     1       3.384   4.886  17.870  0.00  0.00    +0.000 N 
ATOM      2  C   UNL     1       3.148   6.138  18.419  0.00  0.00    +0.000 A 
ATOM      3  N   UNL     1       2.375   6.034  19.484  0.00  0.00    +0.000 NA
ATOM      4  C   UNL     1       2.076   4.704  19.615  0.00  0.00    +0.000 A 
ATOM      5  C   UNL     1       1.276   4.065  20.576  0.00  0.00    +0.000 A 
ATOM      6  C   UNL     1       1.104   2.678  20.507  0.00  0.00    +0.000 A 
ATOM      7  C   UNL     1       1.718   1.941  19.494  0.00  0.00    +0.000 A 
ATOM      8  C   UNL     1       2.520   2.560  18.528  0.00  0.00    +0.000 A 
ATOM      9  C   UNL     1       2.687   3.953  18.617  0.00  0.00    +0.000 A 
ENDROOT
BRANCH   1  10
ATOM     10  C   UNL     1       4.154   4.581  16.674  0.00  0.00    +0.000 C 
BRANCH  10  11
ATOM     11  C   UNL     1       5.440   3.798  16.933  0.00  0.00    +0.000 C 
BRANCH  11  12
ATOM     12  C   UNL     1       6.679   4.606  16.532  0.00  0.00    +0.000 C 
BRANCH  12  14
ATOM     13  C   UNL     1       7.360   6.105  18.449  0.00  0.00    +0.000 C 
ATOM     14  C   UNL     1       7.602   4.786  17.737  0.00  0.00    +0.000 C 
ENDBRANCH  12  14
ENDBRANCH  11  12
ENDBRANCH  10  11
ENDBRANCH   1  10
BRANCH   2  15
ATOM     15  C   UNL     1       3.735   7.434  17.921  0.00  0.00    +0.000 C 
BRANCH  15  16
ATOM     16  C   UNL     1       2.676   8.346  17.279  0.00  0.00    +0.000 C 
BRANCH  16  17
ATOM     17  C   UNL     1       2.205   9.476  18.194  0.00  0.00    +0.000 C 
BRANCH  17  18
ATOM     18  N   UNL     1       0.847   9.894  17.901  0.00  0.00    +0.000 N 
ATOM     19  C   UNL     1      -0.073  10.129  18.900  0.00  0.00    +0.000 C 
ATOM     20  O   UNL     1       0.171  10.002  20.094  0.00  0.00    +0.000 OA
ATOM     21  H   UNL     1       0.641  10.181  16.952  0.00  0.00    +0.000 HD
BRANCH  19  22
ATOM     22  C   UNL     1      -1.422  10.583  18.464  0.00  0.00    +0.000 A 
ATOM     23  C   UNL     1      -2.150  11.543  19.183  0.00  0.00    +0.000 A 
ATOM     24  C   UNL     1      -3.411  11.941  18.731  0.00  0.00    +0.000 A 
ATOM     25  C   UNL     1      -3.937  11.393  17.558  0.00  0.00    +0.000 A 
ATOM     26 CL   UNL     1      -5.495  11.878  17.011  0.00  0.00    +0.000 Cl
ATOM     27  C   UNL     1      -3.208  10.461  16.829  0.00  0.00    +0.000 A 
ATOM     28  C   UNL     1      -1.947  10.056  17.275  0.00  0.00    +0.000 A 
ENDBRANCH  19  22
ENDBRANCH  17  18
ENDBRANCH  16  17
ENDBRANCH  15  16
ENDBRANCH   2  15
TORSDOF 9
ENDMDL
MODEL 7
REMARK VINA RESULT:      -7.1      3.672      5.467
REMARK  Name = 
REMARK  10 active torsions:
REMARK  status: ('A' for Active; 'I' for Inactive)
REMARK    1  A    between atoms: C_1  and  C_2
REMARK    2  A    between atoms: C_2  and  C_3
REMARK    3  A    between atoms: C_3  and  C_4
REMARK    4  A    between atoms: C_4  and  C_5
REMARK    5  A    between atoms: C_5  and  N_6
REMARK    6  A    between atoms: C_7  and  C_8
REMARK    7  A    between atoms: C_8  and  C_9
REMARK    8  A    between atoms: C_9  and  C_10
REMARK    9  A    between atoms: C_10  and  N_11
REMARK   10  A    between atoms: C_12  and  C_14
REMARK                            x       y       z     vdW  Elec       q    Type
REMARK                         _______ _______ _______ _____ _____    ______ ____
ROOT
ATOM      1  N   UNL     1       4.009   5.306  18.640  0.00  0.00    +0.000 N 
ATOM      2  C   UNL     1       3.007   6.263  18.717  0.00  0.00    +0.000 A 
ATOM      3  N   UNL     1       2.107   5.912  19.616  0.00  0.00    +0.000 NA
ATOM      4  C   UNL     1       2.506   4.699  20.110  0.00  0.00    +0.000 A 
ATOM      5  C   UNL     1       1.890   3.888  21.077  0.00  0.00    +0.000 A 
ATOM      6  C   UNL     1       2.483   2.669  21.422  0.00  0.00    +0.000 A 
ATOM      7  C   UNL     1       3.670   2.264  20.811  0.00  0.00    +0.000 A 
ATOM      8  C   UNL     1       4.300   3.059  19.846  0.00  0.00    +0.000 A 
ATOM      9  C   UNL     1       3.693   4.284  19.516  0.00  0.00    +0.000 A 
ENDROOT
BRANCH   1  10
ATOM     10  C   UNL     1       5.158   5.306  17.748  0.00  0.00    +0.000 C 
BRANCH  10  11
ATOM     11  C   UNL     1       4.942   4.552  16.437  0.00  0.00    +0.000 C 
BRANCH  11  12
ATOM     12  C   UNL     1       5.509   5.326  15.244  0.00  0.00    +0.000 C 
BRANCH  12  14
ATOM     13  C   UNL     1       6.014   3.741  13.342  0.00  0.00    +0.000 C 
ATOM     14  C   UNL     1       6.576   4.493  14.534  0.00  0.00    +0.000 C 
ENDBRANCH  12  14
ENDBRANCH  11  12
ENDBRANCH  10  11
ENDBRANCH   1  10
BRANCH   2  15
ATOM     15  C   UNL     1       2.971   7.553  17.940  0.00  0.00    +0.000 C 
BRANCH  15  16
ATOM     16  C   UNL     1       2.212   8.663  18.685  0.00  0.00    +0.000 C 
BRANCH  16  17
ATOM     17  C   UNL     1       1.862   9.863  17.806  0.00  0.00    +0.000 C 
BRANCH  17  18
ATOM     18  N   UNL     1       0.432  10.087  17.721  0.00  0.00    +0.000 N 
ATOM     19  C   UNL     1      -0.296  10.559  18.792  0.00  0.00    +0.000 C 
ATOM     20  O   UNL     1       0.192  10.818  19.885  0.00  0.00    +0.000 OA
ATOM     21  H   UNL     1       0.009  10.057  16.801  0.00  0.00    +0.000 HD
BRANCH  19  22
ATOM     22  C   UNL     1      -1.751  10.774  18.561  0.00  0.00    +0.000 A 
ATOM     23  C   UNL     1      -2.503   9.928  17.732  0.00  0.00    +0.000 A 
ATOM     24  C   UNL     1      -3.868  10.168  17.552  0.00  0.00    +0.000 A 
ATOM     25  C   UNL     1      -4.482  11.238  18.207  0.00  0.00    +0.000 A 
ATOM     26 CL   UNL     1      -6.161  11.536  17.972  0.00  0.00    +0.000 Cl
ATOM     27  C   UNL     1      -3.746  12.063  19.049  0.00  0.00    +0.000 A 
ATOM     28  C   UNL     1      -2.380  11.832  19.234  0.00  0.00    +0.000 A 
ENDBRANCH  19  22
ENDBRANCH  17  18
ENDBRANCH  16  17
ENDBRANCH  15  16
ENDBRANCH   2  15
TORSDOF 9
ENDMDL
MODEL 8
REMARK VINA RESULT:      -7.0      2.996      5.136
REMARK  Name = 
REMARK  10 active torsions:
REMARK  status: ('A' for Active; 'I' for Inactive)
REMARK    1  A    between atoms: C_1  and  C_2
REMARK    2  A    between atoms: C_2  and  C_3
REMARK    3  A    between atoms: C_3  and  C_4
REMARK    4  A    between atoms: C_4  and  C_5
REMARK    5  A    between atoms: C_5  and  N_6
REMARK    6  A    between atoms: C_7  and  C_8
REMARK    7  A    between atoms: C_8  and  C_9
REMARK    8  A    between atoms: C_9  and  C_10
REMARK    9  A    between atoms: C_10  and  N_11
REMARK   10  A    between atoms: C_12  and  C_14
REMARK                            x       y       z     vdW  Elec       q    Type
REMARK                         _______ _______ _______ _____ _____    ______ ____
ROOT
ATOM      1  N   UNL     1       3.676   4.585  17.871  0.00  0.00    +0.000 N 
ATOM      2  C   UNL     1       4.080   5.200  19.047  0.00  0.00    +0.000 A 
ATOM      3  N   UNL     1       5.344   5.572  18.958  0.00  0.00    +0.000 NA
ATOM      4  C   UNL     1       5.780   5.168  17.724  0.00  0.00    +0.000 A 
ATOM      5  C   UNL     1       7.050   5.307  17.143  0.00  0.00    +0.000 A 
ATOM      6  C   UNL     1       7.270   4.803  15.857  0.00  0.00    +0.000 A 
ATOM      7  C   UNL     1       6.240   4.169  15.162  0.00  0.00    +0.000 A 
ATOM      8  C   UNL     1       4.966   4.021  15.725  0.00  0.00    +0.000 A 
ATOM      9  C   UNL     1       4.762   4.539  17.016  0.00  0.00    +0.000 A 
ENDROOT
BRANCH   1  10
ATOM     10  C   UNL     1       2.373   4.004  17.585  0.00  0.00    +0.000 C 
BRANCH  10  11
ATOM     11  C   UNL     1       2.311   2.485  17.729  0.00  0.00    +0.000 C 
BRANCH  11  12
ATOM     12  C   UNL     1       2.359   2.058  19.199  0.00  0.00    +0.000 C 
BRANCH  12  14
ATOM     13  C   UNL     1       1.388   2.690  21.445  0.00  0.00    +0.000 C 
ATOM     14  C   UNL     1       1.147   2.612  19.948  0.00  0.00    +0.000 C 
ENDBRANCH  12  14
ENDBRANCH  11  12
ENDBRANCH  10  11
ENDBRANCH   1  10
BRANCH   2  15
ATOM     15  C   UNL     1       3.199   5.470  20.239  0.00  0.00    +0.000 C 
BRANCH  15  16
ATOM     16  C   UNL     1       1.928   6.249  19.861  0.00  0.00    +0.000 C 
BRANCH  16  17
ATOM     17  C   UNL     1       2.180   7.728  19.570  0.00  0.00    +0.000 C 
BRANCH  17  18
ATOM     18  N   UNL     1       1.349   8.599  20.379  0.00  0.00    +0.000 N 
ATOM     19  C   UNL     1       0.561   9.581  19.818  0.00  0.00    +0.000 C 
ATOM     20  O   UNL     1       0.502   9.801  18.614  0.00  0.00    +0.000 OA
ATOM     21  H   UNL     1       1.225   8.353  21.354  0.00  0.00    +0.000 HD
BRANCH  19  22
ATOM     22  C   UNL     1      -0.266  10.385  20.758  0.00  0.00    +0.000 A 
ATOM     23  C   UNL     1      -1.043  11.469  20.323  0.00  0.00    +0.000 A 
ATOM     24  C   UNL     1      -1.808  12.190  21.244  0.00  0.00    +0.000 A 
ATOM     25  C   UNL     1      -1.809  11.821  22.591  0.00  0.00    +0.000 A 
ATOM     26 CL   UNL     1      -2.743  12.720  23.723  0.00  0.00    +0.000 Cl
ATOM     27  C   UNL     1      -1.061  10.732  23.023  0.00  0.00    +0.000 A 
ATOM     28  C   UNL     1      -0.291  10.006  22.109  0.00  0.00    +0.000 A 
ENDBRANCH  19  22
ENDBRANCH  17  18
ENDBRANCH  16  17
ENDBRANCH  15  16
ENDBRANCH   2  15
TORSDOF 9
ENDMDL
MODEL 9
REMARK VINA RESULT:      -7.0      3.749      5.744
REMARK  Name = 
REMARK  10 active torsions:
REMARK  status: ('A' for Active; 'I' for Inactive)
REMARK    1  A    between atoms: C_1  and  C_2
REMARK    2  A    between atoms: C_2  and  C_3
REMARK    3  A    between atoms: C_3  and  C_4
REMARK    4  A    between atoms: C_4  and  C_5
REMARK    5  A    between atoms: C_5  and  N_6
REMARK    6  A    between atoms: C_7  and  C_8
REMARK    7  A    between atoms: C_8  and  C_9
REMARK    8  A    between atoms: C_9  and  C_10
REMARK    9  A    between atoms: C_10  and  N_11
REMARK   10  A    between atoms: C_12  and  C_14
REMARK                            x       y       z     vdW  Elec       q    Type
REMARK                         _______ _______ _______ _____ _____    ______ ____
ROOT
ATOM      1  N   UNL     1       3.633   5.644  18.187  0.00  0.00    +0.000 N 
ATOM      2  C   UNL     1       2.923   6.785  18.533  0.00  0.00    +0.000 A 
ATOM      3  N   UNL     1       2.263   6.590  19.659  0.00  0.00    +0.000 NA
ATOM      4  C   UNL     1       2.518   5.299  20.038  0.00  0.00    +0.000 A 
ATOM      5  C   UNL     1       2.045   4.592  21.155  0.00  0.00    +0.000 A 
ATOM      6  C   UNL     1       2.437   3.261  21.336  0.00  0.00    +0.000 A 
ATOM      7  C   UNL     1       3.286   2.645  20.417  0.00  0.00    +0.000 A 
ATOM      8  C   UNL     1       3.770   3.333  19.297  0.00  0.00    +0.000 A 
ATOM      9  C   UNL     1       3.370   4.672  19.135  0.00  0.00    +0.000 A 
ENDROOT
BRANCH   1  10
ATOM     10  C   UNL     1       4.453   5.443  17.002  0.00  0.00    +0.000 C 
BRANCH  10  11
ATOM     11  C   UNL     1       5.929   5.787  17.188  0.00  0.00    +0.000 C 
BRANCH  11  12
ATOM     12  C   UNL     1       6.758   5.384  15.964  0.00  0.00    +0.000 C 
BRANCH  12  14
ATOM     13  C   UNL     1       6.117   4.052  13.914  0.00  0.00    +0.000 C 
ATOM     14  C   UNL     1       6.278   4.037  15.423  0.00  0.00    +0.000 C 
ENDBRANCH  12  14
ENDBRANCH  11  12
ENDBRANCH  10  11
ENDBRANCH   1  10
BRANCH   2  15
ATOM     15  C   UNL     1       2.943   8.088  17.776  0.00  0.00    +0.000 C 
BRANCH  15  16
ATOM     16  C   UNL     1       1.603   8.835  17.865  0.00  0.00    +0.000 C 
BRANCH  16  17
ATOM     17  C   UNL     1       1.734  10.270  18.374  0.00  0.00    +0.000 C 
BRANCH  17  18
ATOM     18  N   UNL     1       0.806  10.562  19.450  0.00  0.00    +0.000 N 
ATOM     19  C   UNL     1       0.020  11.695  19.446  0.00  0.00    +0.000 C 
ATOM     20  O   UNL     1       0.043  12.536  18.556  0.00  0.00    +0.000 OA
ATOM     21  H   UNL     1       0.619   9.824  20.118  0.00  0.00    +0.000 HD
BRANCH  19  22
ATOM     22  C   UNL     1      -0.911  11.858  20.595  0.00  0.00    +0.000 A 
ATOM     23  C   UNL     1      -2.137  12.529  20.467  0.00  0.00    +0.000 A 
ATOM     24  C   UNL     1      -2.980  12.652  21.575  0.00  0.00    +0.000 A 
ATOM     25  C   UNL     1      -2.609  12.095  22.801  0.00  0.00    +0.000 A 
ATOM     26 CL   UNL     1      -3.646  12.260  24.164  0.00  0.00    +0.000 Cl
ATOM     27  C   UNL     1      -1.408  11.407  22.926  0.00  0.00    +0.000 A 
ATOM     28  C   UNL     1      -0.557  11.281  21.824  0.00  0.00    +0.000 A 
ENDBRANCH  19  22
ENDBRANCH  17  18
ENDBRANCH  16  17
ENDBRANCH  15  16
ENDBRANCH   2  15
TORSDOF 9
ENDMDL
