MODEL 1
REMARK VINA RESULT:      -5.8      0.000      0.000
REMARK  Name = 
REMARK  3 active torsions:
REMARK  status: ('A' for Active; 'I' for Inactive)
REMARK    1  A    between atoms: C_1  and  N_2
REMARK    2  A    between atoms: N_5  and  C_6
REMARK    3  A    between atoms: N_5  and  C_7
REMARK                            x       y       z     vdW  Elec       q    Type
REMARK                         _______ _______ _______ _____ _____    ______ ____
ROOT
ATOM      1  C   UNL     1       3.729   1.405  18.222  0.00  0.00    +0.000 C 
ATOM      2  N   UNL     1       3.786   2.863  18.144  0.00  0.00    +0.000 N 
ATOM      3  C   UNL     1       3.968   3.488  16.826  0.00  0.00    +0.000 C 
ATOM      4  C   UNL     1       5.189   4.442  16.822  0.00  0.00    +0.000 C 
ATOM      5  N   UNL     1       5.107   5.647  17.796  0.00  0.00    +0.000 N 
ATOM      6  C   UNL     1       6.423   6.412  17.718  0.00  0.00    +0.000 C 
ATOM      7  C   UNL     1       3.982   6.594  17.399  0.00  0.00    +0.000 C 
ATOM      8  C   UNL     1       4.938   5.151  19.253  0.00  0.00    +0.000 C 
ATOM      9  C   UNL     1       3.534   4.747  19.613  0.00  0.00    +0.000 A 
ATOM     10  C   UNL     1       2.775   5.532  20.494  0.00  0.00    +0.000 A 
ATOM     11  C   UNL     1       1.444   5.206  20.754  0.00  0.00    +0.000 A 
ATOM     12  C   UNL     1       0.880   4.093  20.138  0.00  0.00    +0.000 A 
ATOM     13  C   UNL     1       1.643   3.291  19.286  0.00  0.00    +0.000 A 
ATOM     14  C   UNL     1       2.985   3.597  19.017  0.00  0.00    +0.000 A 
ENDROOT
TORSDOF 0
ENDMDL
MODEL 2
REMARK VINA RESULT:      -5.7      1.541      4.640
REMARK  Name = 
REMARK  3 active torsions:
REMARK  status: ('A' for Active; 'I' for Inactive)
REMARK    1  A    between atoms: C_1  and  N_2
REMARK    2  A    between atoms: N_5  and  C_6
REMARK    3  A    between atoms: N_5  and  C_7
REMARK                            x       y       z     vdW  Elec       q    Type
REMARK                         _______ _______ _______ _____ _____    ______ ____
ROOT
ATOM      1  C   UNL     1       2.993   7.631  17.922  0.00  0.00    +0.000 C 
ATOM      2  N   UNL     1       3.322   6.209  17.997  0.00  0.00    +0.000 N 
ATOM      3  C   UNL     1       2.230   5.231  17.894  0.00  0.00    +0.000 C 
ATOM      4  C   UNL     1       2.225   4.267  19.107  0.00  0.00    +0.000 C 
ATOM      5  N   UNL     1       3.493   3.390  19.278  0.00  0.00    +0.000 N 
ATOM      6  C   UNL     1       3.344   2.583  20.563  0.00  0.00    +0.000 C 
ATOM      7  C   UNL     1       3.644   2.415  18.118  0.00  0.00    +0.000 C 
ATOM      8  C   UNL     1       4.749   4.284  19.430  0.00  0.00    +0.000 C 
ATOM      9  C   UNL     1       5.283   4.829  18.132  0.00  0.00    +0.000 A 
ATOM     10  C   UNL     1       6.497   4.355  17.612  0.00  0.00    +0.000 A 
ATOM     11  C   UNL     1       6.944   4.794  16.367  0.00  0.00    +0.000 A 
ATOM     12  C   UNL     1       6.181   5.709  15.649  0.00  0.00    +0.000 A 
ATOM     13  C   UNL     1       4.988   6.207  16.180  0.00  0.00    +0.000 A 
ATOM     14  C   UNL     1       4.523   5.784  17.434  0.00  0.00    +0.000 A 
ENDROOT
TORSDOF 0
ENDMDL
MODEL 3
REMARK VINA RESULT:      -5.6      1.544      3.895
REMARK  Name = 
REMARK  3 active torsions:
REMARK  status: ('A' for Active; 'I' for Inactive)
REMARK    1  A    between atoms: C_1  and  N_2
REMARK    2  A    between atoms: N_5  and  C_6
REMARK    3  A    between atoms: N_5  and  C_7
REMARK                            x       y       z     vdW  Elec       q    Type
REMARK                         _______ _______ _______ _____ _____    ______ ____
ROOT
ATOM      1  C   UNL     1       5.262   3.904  16.456  0.00  0.00    +0.000 C 
ATOM      2  N   UNL     1       4.393   4.190  17.597  0.00  0.00    +0.000 N 
ATOM      3  C   UNL     1       4.751   3.631  18.908  0.00  0.00    +0.000 C 
ATOM      4  C   UNL     1       3.582   2.809  19.505  0.00  0.00    +0.000 C 
ATOM      5  N   UNL     1       2.275   3.596  19.782  0.00  0.00    +0.000 N 
ATOM      6  C   UNL     1       1.221   2.611  20.275  0.00  0.00    +0.000 C 
ATOM      7  C   UNL     1       2.489   4.646  20.865  0.00  0.00    +0.000 C 
ATOM      8  C   UNL     1       1.744   4.235  18.475  0.00  0.00    +0.000 C 
ATOM      9  C   UNL     1       2.443   5.507  18.077  0.00  0.00    +0.000 A 
ATOM     10  C   UNL     1       1.777   6.739  18.167  0.00  0.00    +0.000 A 
ATOM     11  C   UNL     1       2.455   7.924  17.886  0.00  0.00    +0.000 A 
ATOM     12  C   UNL     1       3.793   7.874  17.508  0.00  0.00    +0.000 A 
ATOM     13  C   UNL     1       4.449   6.646  17.386  0.00  0.00    +0.000 A 
ATOM     14  C   UNL     1       3.784   5.442  17.658  0.00  0.00    +0.000 A 
ENDROOT
TORSDOF 0
ENDMDL
MODEL 4
REMARK VINA RESULT:      -5.4      1.460      3.124
REMARK  Name = 
REMARK  3 active torsions:
REMARK  status: ('A' for Active; 'I' for Inactive)
REMARK    1  A    between atoms: C_1  and  N_2
REMARK    2  A    between atoms: N_5  and  C_6
REMARK    3  A    between atoms: N_5  and  C_7
REMARK                            x       y       z     vdW  Elec       q    Type
REMARK                         _______ _______ _______ _____ _____    ______ ____
ROOT
ATOM      1  C   UNL     1       2.188   7.366  19.683  0.00  0.00    +0.000 C 
ATOM      2  N   UNL     1       2.821   6.137  19.210  0.00  0.00    +0.000 N 
ATOM      3  C   UNL     1       4.280   6.008  19.332  0.00  0.00    +0.000 C 
ATOM      4  C   UNL     1       4.930   5.680  17.964  0.00  0.00    +0.000 C 
ATOM      5  N   UNL     1       4.492   4.343  17.312  0.00  0.00    +0.000 N 
ATOM      6  C   UNL     1       5.159   4.240  15.944  0.00  0.00    +0.000 C 
ATOM      7  C   UNL     1       4.940   3.153  18.151  0.00  0.00    +0.000 C 
ATOM      8  C   UNL     1       2.960   4.329  17.088  0.00  0.00    +0.000 C 
ATOM      9  C   UNL     1       2.155   4.008  18.319  0.00  0.00    +0.000 A 
ATOM     10  C   UNL     1       1.483   2.781  18.425  0.00  0.00    +0.000 A 
ATOM     11  C   UNL     1       0.815   2.449  19.603  0.00  0.00    +0.000 A 
ATOM     12  C   UNL     1       0.815   3.346  20.666  0.00  0.00    +0.000 A 
ATOM     13  C   UNL     1       1.455   4.582  20.550  0.00  0.00    +0.000 A 
ATOM     14  C   UNL     1       2.127   4.939  19.372  0.00  0.00    +0.000 A 
ENDROOT
TORSDOF 0
ENDMDL
MODEL 5
REMARK VINA RESULT:      -5.4      1.435      3.135
REMARK  Name = 
REMARK  3 active torsions:
REMARK  status: ('A' for Active; 'I' for Inactive)
REMARK    1  A    between atoms: C_1  and  N_2
REMARK    2  A    between atoms: N_5  and  C_6
REMARK    3  A    between atoms: N_5  and  C_7
REMARK                            x       y       z     vdW  Elec       q    Type
REMARK                         _______ _______ _______ _____ _____    ______ ____
ROOT
ATOM      1  C   UNL     1       2.121   8.049  17.756  0.00  0.00    +0.000 C 
ATOM      2  N   UNL     1       3.017   6.903  17.897  0.00  0.00    +0.000 N 
ATOM      3  C   UNL     1       4.467   7.131  17.807  0.00  0.00    +0.000 C 
ATOM      4  C   UNL     1       5.110   6.227  16.727  0.00  0.00    +0.000 C 
ATOM      5  N   UNL     1       4.990   4.699  16.965  0.00  0.00    +0.000 N 
ATOM      6  C   UNL     1       5.594   3.981  15.764  0.00  0.00    +0.000 C 
ATOM      7  C   UNL     1       5.760   4.278  18.210  0.00  0.00    +0.000 C 
ATOM      8  C   UNL     1       3.500   4.285  17.058  0.00  0.00    +0.000 C 
ATOM      9  C   UNL     1       2.861   4.558  18.393  0.00  0.00    +0.000 A 
ATOM     10  C   UNL     1       2.523   3.497  19.246  0.00  0.00    +0.000 A 
ATOM     11  C   UNL     1       2.017   3.756  20.519  0.00  0.00    +0.000 A 
ATOM     12  C   UNL     1       1.844   5.073  20.932  0.00  0.00    +0.000 A 
ATOM     13  C   UNL     1       2.149   6.131  20.071  0.00  0.00    +0.000 A 
ATOM     14  C   UNL     1       2.653   5.893  18.785  0.00  0.00    +0.000 A 
ENDROOT
TORSDOF 0
ENDMDL
MODEL 6
REMARK VINA RESULT:      -5.3      1.447      4.744
REMARK  Name = 
REMARK  3 active torsions:
REMARK  status: ('A' for Active; 'I' for Inactive)
REMARK    1  A    between atoms: C_1  and  N_2
REMARK    2  A    between atoms: N_5  and  C_6
REMARK    3  A    between atoms: N_5  and  C_7
REMARK                            x       y       z     vdW  Elec       q    Type
REMARK                         _______ _______ _______ _____ _____    ______ ____
ROOT
ATOM      1  C   UNL     1       6.809   5.506  19.508  0.00  0.00    +0.000 C 
ATOM      2  N   UNL     1       5.553   5.092  18.885  0.00  0.00    +0.000 N 
ATOM      3  C   UNL     1       4.293   5.599  19.445  0.00  0.00    +0.000 C 
ATOM      4  C   UNL     1       3.333   4.439  19.807  0.00  0.00    +0.000 C 
ATOM      5  N   UNL     1       2.880   3.543  18.625  0.00  0.00    +0.000 N 
ATOM      6  C   UNL     1       2.023   2.413  19.185  0.00  0.00    +0.000 C 
ATOM      7  C   UNL     1       2.036   4.333  17.633  0.00  0.00    +0.000 C 
ATOM      8  C   UNL     1       4.108   2.901  17.934  0.00  0.00    +0.000 C 
ATOM      9  C   UNL     1       4.833   3.815  16.983  0.00  0.00    +0.000 A 
ATOM     10  C   UNL     1       4.770   3.590  15.599  0.00  0.00    +0.000 A 
ATOM     11  C   UNL     1       5.366   4.489  14.716  0.00  0.00    +0.000 A 
ATOM     12  C   UNL     1       6.028   5.605  15.218  0.00  0.00    +0.000 A 
ATOM     13  C   UNL     1       6.120   5.813  16.597  0.00  0.00    +0.000 A 
ATOM     14  C   UNL     1       5.534   4.917  17.503  0.00  0.00    +0.000 A 
ENDROOT
TORSDOF 0
ENDMDL
MODEL 7
REMARK VINA RESULT:      -5.3      1.457      4.089
REMARK  Name = 
REMARK  3 active torsions:
REMARK  status: ('A' for Active; 'I' for Inactive)
REMARK    1  A    between atoms: C_1  and  N_2
REMARK    2  A    between atoms: N_5  and  C_6
REMARK    3  A    between atoms: N_5  and  C_7
REMARK                            x       y       z     vdW  Elec       q    Type
REMARK                         _______ _______ _______ _____ _____    ______ ____
ROOT
ATOM      1  C   UNL     1       1.617   5.964  21.026  0.00  0.00    +0.000 C 
ATOM      2  N   UNL     1       2.100   5.156  19.909  0.00  0.00    +0.000 N 
ATOM      3  C   UNL     1       1.216   4.119  19.359  0.00  0.00    +0.000 C 
ATOM      4  C   UNL     1       1.911   2.735  19.353  0.00  0.00    +0.000 C 
ATOM      5  N   UNL     1       3.193   2.626  18.486  0.00  0.00    +0.000 N 
ATOM      6  C   UNL     1       3.781   1.233  18.678  0.00  0.00    +0.000 C 
ATOM      7  C   UNL     1       2.870   2.808  17.009  0.00  0.00    +0.000 C 
ATOM      8  C   UNL     1       4.252   3.651  18.962  0.00  0.00    +0.000 C 
ATOM      9  C   UNL     1       4.022   5.055  18.471  0.00  0.00    +0.000 A 
ATOM     10  C   UNL     1       4.875   5.618  17.509  0.00  0.00    +0.000 A 
ATOM     11  C   UNL     1       4.606   6.883  16.990  0.00  0.00    +0.000 A 
ATOM     12  C   UNL     1       3.491   7.584  17.438  0.00  0.00    +0.000 A 
ATOM     13  C   UNL     1       2.659   7.040  18.420  0.00  0.00    +0.000 A 
ATOM     14  C   UNL     1       2.915   5.772  18.961  0.00  0.00    +0.000 A 
ENDROOT
TORSDOF 0
ENDMDL
MODEL 8
REMARK VINA RESULT:      -5.2      1.728      3.387
REMARK  Name = 
REMARK  3 active torsions:
REMARK  status: ('A' for Active; 'I' for Inactive)
REMARK    1  A    between atoms: C_1  and  N_2
REMARK    2  A    between atoms: N_5  and  C_6
REMARK    3  A    between atoms: N_5  and  C_7
REMARK                            x       y       z     vdW  Elec       q    Type
REMARK                         _______ _______ _______ _____ _____    ______ ____
ROOT
ATOM      1  C   UNL     1       2.863   7.521  17.824  0.00  0.00    +0.000 C 
ATOM      2  N   UNL     1       3.925   6.532  17.648  0.00  0.00    +0.000 N 
ATOM      3  C   UNL     1       5.319   6.996  17.628  0.00  0.00    +0.000 C 
ATOM      4  C   UNL     1       6.047   6.529  16.343  0.00  0.00    +0.000 C 
ATOM      5  N   UNL     1       6.165   4.994  16.154  0.00  0.00    +0.000 N 
ATOM      6  C   UNL     1       6.822   4.730  14.804  0.00  0.00    +0.000 C 
ATOM      7  C   UNL     1       7.039   4.376  17.239  0.00  0.00    +0.000 C 
ATOM      8  C   UNL     1       4.759   4.345  16.126  0.00  0.00    +0.000 C 
ATOM      9  C   UNL     1       4.140   4.145  17.483  0.00  0.00    +0.000 A 
ATOM     10  C   UNL     1       3.998   2.854  18.013  0.00  0.00    +0.000 A 
ATOM     11  C   UNL     1       3.509   2.677  19.307  0.00  0.00    +0.000 A 
ATOM     12  C   UNL     1       3.158   3.790  20.063  0.00  0.00    +0.000 A 
ATOM     13  C   UNL     1       3.268   5.076  19.526  0.00  0.00    +0.000 A 
ATOM     14  C   UNL     1       3.751   5.275  18.225  0.00  0.00    +0.000 A 
ENDROOT
TORSDOF 0
ENDMDL
MODEL 9
REMARK VINA RESULT:      -5.1      1.467      4.341
REMARK  Name = 
REMARK  3 active torsions:
REMARK  status: ('A' for Active; 'I' for Inactive)
REMARK    1  A    between atoms: C_1  and  N_2
REMARK    2  A    between atoms: N_5  and  C_6
REMARK    3  A    between atoms: N_5  and  C_7
REMARK                            x       y       z     vdW  Elec       q    Type
REMARK                         _______ _______ _______ _____ _____    ______ ____
ROOT
ATOM      1  C   UNL     1       2.209   7.103  20.039  0.00  0.00    +0.000 C 
ATOM      2  N   UNL     1       2.790   5.912  19.424  0.00  0.00    +0.000 N 
ATOM      3  C   UNL     1       1.932   4.736  19.224  0.00  0.00    +0.000 C 
ATOM      4  C   UNL     1       2.548   3.474  19.876  0.00  0.00    +0.000 C 
ATOM      5  N   UNL     1       3.924   3.028  19.316  0.00  0.00    +0.000 N 
ATOM      6  C   UNL     1       4.408   1.837  20.136  0.00  0.00    +0.000 C 
ATOM      7  C   UNL     1       3.806   2.589  17.863  0.00  0.00    +0.000 C 
ATOM      8  C   UNL     1       4.965   4.163  19.479  0.00  0.00    +0.000 C 
ATOM      9  C   UNL     1       4.874   5.243  18.435  0.00  0.00    +0.000 A 
ATOM     10  C   UNL     1       5.873   5.368  17.457  0.00  0.00    +0.000 A 
ATOM     11  C   UNL     1       5.741   6.309  16.438  0.00  0.00    +0.000 A 
ATOM     12  C   UNL     1       4.616   7.127  16.403  0.00  0.00    +0.000 A 
ATOM     13  C   UNL     1       3.636   7.026  17.394  0.00  0.00    +0.000 A 
ATOM     14  C   UNL     1       3.753   6.091  18.432  0.00  0.00    +0.000 A 
ENDROOT
TORSDOF 0
ENDMDL
