MODEL 1
REMARK VINA RESULT:      -7.7      0.000      0.000
REMARK  Name = 
REMARK  5 active torsions:
REMARK  status: ('A' for Active; 'I' for Inactive)
REMARK    1  A    between atoms: C_1  and  C_2
REMARK    2  A    between atoms: C_5  and  O_6
REMARK    3  A    between atoms: C_15  and  C_16
REMARK    4  A    between atoms: C_17  and  C_18
REMARK    5  A    between atoms: C_20  and  C_21
REMARK                            x       y       z     vdW  Elec       q    Type
REMARK                         _______ _______ _______ _____ _____    ______ ____
ROOT
ATOM      1  C   UNL     1       1.662  11.544  19.882  0.00  0.00    +0.000 C 
ATOM      2  C   UNL     1       0.391  10.739  19.518  0.00  0.00    +0.000 C 
ATOM      3  C   UNL     1      -0.328  11.456  18.337  0.00  0.00    +0.000 C 
ATOM      4  C   UNL     1      -0.950  12.801  18.717  0.00  0.00    +0.000 C 
ATOM      5  C   UNL     1      -1.875  12.687  19.925  0.00  0.00    +0.000 C 
ATOM      6  C   UNL     1      -1.179  12.027  21.114  0.00  0.00    +0.000 C 
ATOM      7  C   UNL     1      -0.617  10.660  20.711  0.00  0.00    +0.000 C 
ATOM      8  C   UNL     1      -0.041   9.909  21.915  0.00  0.00    +0.000 C 
ATOM      9  C   UNL     1       0.315   8.478  21.524  0.00  0.00    +0.000 C 
ATOM     10  C   UNL     1       1.267   8.416  20.322  0.00  0.00    +0.000 C 
ATOM     11  C   UNL     1       0.760   9.265  19.113  0.00  0.00    +0.000 C 
ATOM     12  C   UNL     1       1.734   9.146  17.910  0.00  0.00    +0.000 C 
ATOM     13  C   UNL     1       2.025   7.685  17.511  0.00  0.00    +0.000 C 
ATOM     14  C   UNL     1       2.509   6.847  18.710  0.00  0.00    +0.000 C 
ATOM     15  C   UNL     1       3.921   7.320  19.136  0.00  0.00    +0.000 C 
ATOM     16  C   UNL     1       2.472   5.308  18.496  0.00  0.00    +0.000 C 
ATOM     17  C   UNL     1       2.270   4.723  19.922  0.00  0.00    +0.000 C 
ATOM     18  C   UNL     1       1.827   5.889  20.819  0.00  0.00    +0.000 C 
ATOM     19  C   UNL     1       1.445   6.976  19.826  0.00  0.00    +0.000 C 
ENDROOT
BRANCH  16  20
ATOM     20  C   UNL     1       3.613   4.708  17.728  0.00  0.00    +0.000 A 
ATOM     21  C   UNL     1       4.422   5.350  16.761  0.00  0.00    +0.000 A 
ATOM     22  C   UNL     1       5.264   4.368  16.291  0.00  0.00    +0.000 A 
ATOM     23  N   UNL     1       4.965   3.246  17.000  0.00  0.00    +0.000 N 
ATOM     24  N   UNL     1       3.969   3.424  17.879  0.00  0.00    +0.000 NA
ATOM     25  H   UNL     1       5.384   2.322  16.932  0.00  0.00    +0.000 HD
BRANCH  22  26
ATOM     26  C   UNL     1       6.299   4.344  15.250  0.00  0.00    +0.000 C 
ATOM     27  F   UNL     1       6.194   3.262  14.442  0.00  0.00    +0.000 F 
ATOM     28  F   UNL     1       6.238   5.445  14.460  0.00  0.00    +0.000 F 
ATOM     29  F   UNL     1       7.543   4.320  15.792  0.00  0.00    +0.000 F 
ENDBRANCH  22  26
ENDBRANCH  16  20
BRANCH   5  30
ATOM     30  O   UNL     1      -2.347  13.977  20.295  0.00  0.00    +0.000 OA
ATOM     31  H   UNL     1      -1.596  14.592  20.254  0.00  0.00    +0.000 HD
ENDBRANCH   5  30
TORSDOF 3
ENDMDL
MODEL 2
REMARK VINA RESULT:      -7.6      5.933      8.763
REMARK  Name = 
REMARK  5 active torsions:
REMARK  status: ('A' for Active; 'I' for Inactive)
REMARK    1  A    between atoms: C_1  and  C_2
REMARK    2  A    between atoms: C_5  and  O_6
REMARK    3  A    between atoms: C_15  and  C_16
REMARK    4  A    between atoms: C_17  and  C_18
REMARK    5  A    between atoms: C_20  and  C_21
REMARK                            x       y       z     vdW  Elec       q    Type
REMARK                         _______ _______ _______ _____ _____    ______ ____
ROOT
ATOM      1  C   UNL     1       1.217   5.488  17.512  0.00  0.00    +0.000 C 
ATOM      2  C   UNL     1       2.448   5.882  18.365  0.00  0.00    +0.000 C 
ATOM      3  C   UNL     1       3.725   5.742  17.487  0.00  0.00    +0.000 C 
ATOM      4  C   UNL     1       4.080   4.295  17.139  0.00  0.00    +0.000 C 
ATOM      5  C   UNL     1       4.176   3.412  18.379  0.00  0.00    +0.000 C 
ATOM      6  C   UNL     1       2.915   3.496  19.237  0.00  0.00    +0.000 C 
ATOM      7  C   UNL     1       2.622   4.953  19.611  0.00  0.00    +0.000 C 
ATOM      8  C   UNL     1       1.449   5.061  20.590  0.00  0.00    +0.000 C 
ATOM      9  C   UNL     1       1.318   6.491  21.103  0.00  0.00    +0.000 C 
ATOM     10  C   UNL     1       1.191   7.514  19.967  0.00  0.00    +0.000 C 
ATOM     11  C   UNL     1       2.313   7.358  18.892  0.00  0.00    +0.000 C 
ATOM     12  C   UNL     1       2.165   8.433  17.782  0.00  0.00    +0.000 C 
ATOM     13  C   UNL     1       2.091   9.870  18.339  0.00  0.00    +0.000 C 
ATOM     14  C   UNL     1       0.994  10.016  19.412  0.00  0.00    +0.000 C 
ATOM     15  C   UNL     1      -0.399   9.888  18.747  0.00  0.00    +0.000 C 
ATOM     16  C   UNL     1       1.089  11.301  20.280  0.00  0.00    +0.000 C 
ATOM     17  C   UNL     1       0.446  10.900  21.637  0.00  0.00    +0.000 C 
ATOM     18  C   UNL     1       0.359   9.366  21.648  0.00  0.00    +0.000 C 
ATOM     19  C   UNL     1       1.266   8.951  20.501  0.00  0.00    +0.000 C 
ENDROOT
BRANCH  16  20
ATOM     20  C   UNL     1       0.544  12.562  19.677  0.00  0.00    +0.000 A 
ATOM     21  C   UNL     1       1.230  13.786  19.492  0.00  0.00    +0.000 A 
ATOM     22  C   UNL     1       0.288  14.650  18.984  0.00  0.00    +0.000 A 
ATOM     23  N   UNL     1      -0.854  13.924  18.849  0.00  0.00    +0.000 N 
ATOM     24  N   UNL     1      -0.727  12.655  19.261  0.00  0.00    +0.000 NA
ATOM     25  H   UNL     1      -1.761  14.226  18.500  0.00  0.00    +0.000 HD
BRANCH  22  26
ATOM     26  C   UNL     1       0.318  16.074  18.626  0.00  0.00    +0.000 C 
ATOM     27  F   UNL     1       1.466  16.425  17.999  0.00  0.00    +0.000 F 
ATOM     28  F   UNL     1      -0.708  16.404  17.803  0.00  0.00    +0.000 F 
ATOM     29  F   UNL     1       0.205  16.862  19.726  0.00  0.00    +0.000 F 
ENDBRANCH  22  26
ENDBRANCH  16  20
BRANCH   5  30
ATOM     30  O   UNL     1       4.410   2.062  17.995  0.00  0.00    +0.000 OA
ATOM     31  H   UNL     1       5.342   1.858  18.175  0.00  0.00    +0.000 HD
ENDBRANCH   5  30
TORSDOF 3
ENDMDL
MODEL 3
REMARK VINA RESULT:      -7.6      6.206      9.021
REMARK  Name = 
REMARK  5 active torsions:
REMARK  status: ('A' for Active; 'I' for Inactive)
REMARK    1  A    between atoms: C_1  and  C_2
REMARK    2  A    between atoms: C_5  and  O_6
REMARK    3  A    between atoms: C_15  and  C_16
REMARK    4  A    between atoms: C_17  and  C_18
REMARK    5  A    between atoms: C_20  and  C_21
REMARK                            x       y       z     vdW  Elec       q    Type
REMARK                         _______ _______ _______ _____ _____    ______ ____
ROOT
ATOM      1  C   UNL     1       1.507   6.286  17.454  0.00  0.00    +0.000 C 
ATOM      2  C   UNL     1       2.660   6.763  18.372  0.00  0.00    +0.000 C 
ATOM      3  C   UNL     1       3.954   6.889  17.516  0.00  0.00    +0.000 C 
ATOM      4  C   UNL     1       4.514   5.547  17.041  0.00  0.00    +0.000 C 
ATOM      5  C   UNL     1       4.720   4.569  18.194  0.00  0.00    +0.000 C 
ATOM      6  C   UNL     1       3.450   4.392  19.024  0.00  0.00    +0.000 C 
ATOM      7  C   UNL     1       2.949   5.750  19.527  0.00  0.00    +0.000 C 
ATOM      8  C   UNL     1       1.762   5.596  20.482  0.00  0.00    +0.000 C 
ATOM      9  C   UNL     1       1.424   6.937  21.126  0.00  0.00    +0.000 C 
ATOM     10  C   UNL     1       1.166   8.039  20.090  0.00  0.00    +0.000 C 
ATOM     11  C   UNL     1       2.311   8.146  19.033  0.00  0.00    +0.000 C 
ATOM     12  C   UNL     1       2.025   9.294  18.027  0.00  0.00    +0.000 C 
ATOM     13  C   UNL     1       1.742  10.645  18.717  0.00  0.00    +0.000 C 
ATOM     14  C   UNL     1       0.623  10.530  19.770  0.00  0.00    +0.000 C 
ATOM     15  C   UNL     1      -0.730  10.275  19.062  0.00  0.00    +0.000 C 
ATOM     16  C   UNL     1       0.526  11.725  20.759  0.00  0.00    +0.000 C 
ATOM     17  C   UNL     1      -0.070  11.107  22.055  0.00  0.00    +0.000 C 
ATOM     18  C   UNL     1       0.062   9.583  21.918  0.00  0.00    +0.000 C 
ATOM     19  C   UNL     1       1.031   9.412  20.759  0.00  0.00    +0.000 C 
ENDROOT
BRANCH  16  20
ATOM     20  C   UNL     1      -0.186  12.951  20.265  0.00  0.00    +0.000 A 
ATOM     21  C   UNL     1       0.402  14.115  19.716  0.00  0.00    +0.000 A 
ATOM     22  C   UNL     1      -0.649  14.975  19.496  0.00  0.00    +0.000 A 
ATOM     23  N   UNL     1      -1.771  14.298  19.862  0.00  0.00    +0.000 N 
ATOM     24  N   UNL     1      -1.519  13.068  20.330  0.00  0.00    +0.000 NA
ATOM     25  H   UNL     1      -2.738  14.612  19.835  0.00  0.00    +0.000 HD
BRANCH  22  26
ATOM     26  C   UNL     1      -0.733  16.356  19.004  0.00  0.00    +0.000 C 
ATOM     27  F   UNL     1      -1.924  16.934  19.287  0.00  0.00    +0.000 F 
ATOM     28  F   UNL     1       0.234  17.139  19.545  0.00  0.00    +0.000 F 
ATOM     29  F   UNL     1      -0.571  16.410  17.657  0.00  0.00    +0.000 F 
ENDBRANCH  22  26
ENDBRANCH  16  20
BRANCH   5  30
ATOM     30  O   UNL     1       5.147   3.309  17.689  0.00  0.00    +0.000 OA
ATOM     31  H   UNL     1       4.914   2.631  18.344  0.00  0.00    +0.000 HD
ENDBRANCH   5  30
TORSDOF 3
ENDMDL
MODEL 4
REMARK VINA RESULT:      -7.3      6.469      9.251
REMARK  Name = 
REMARK  5 active torsions:
REMARK  status: ('A' for Active; 'I' for Inactive)
REMARK    1  A    between atoms: C_1  and  C_2
REMARK    2  A    between atoms: C_5  and  O_6
REMARK    3  A    between atoms: C_15  and  C_16
REMARK    4  A    between atoms: C_17  and  C_18
REMARK    5  A    between atoms: C_20  and  C_21
REMARK                            x       y       z     vdW  Elec       q    Type
REMARK                         _______ _______ _______ _____ _____    ______ ____
ROOT
ATOM      1  C   UNL     1       1.717   6.066  17.465  0.00  0.00    +0.000 C 
ATOM      2  C   UNL     1       2.858   6.691  18.306  0.00  0.00    +0.000 C 
ATOM      3  C   UNL     1       4.027   7.070  17.352  0.00  0.00    +0.000 C 
ATOM      4  C   UNL     1       4.752   5.864  16.752  0.00  0.00    +0.000 C 
ATOM      5  C   UNL     1       5.224   4.885  17.824  0.00  0.00    +0.000 C 
ATOM      6  C   UNL     1       4.084   4.461  18.748  0.00  0.00    +0.000 C 
ATOM      7  C   UNL     1       3.417   5.692  19.372  0.00  0.00    +0.000 C 
ATOM      8  C   UNL     1       2.367   5.298  20.414  0.00  0.00    +0.000 C 
ATOM      9  C   UNL     1       1.876   6.534  21.162  0.00  0.00    +0.000 C 
ATOM     10  C   UNL     1       1.344   7.620  20.219  0.00  0.00    +0.000 C 
ATOM     11  C   UNL     1       2.351   7.965  19.076  0.00  0.00    +0.000 C 
ATOM     12  C   UNL     1       1.786   9.091  18.167  0.00  0.00    +0.000 C 
ATOM     13  C   UNL     1       1.352  10.343  18.956  0.00  0.00    +0.000 C 
ATOM     14  C   UNL     1       0.372   9.996  20.093  0.00  0.00    +0.000 C 
ATOM     15  C   UNL     1      -0.982   9.547  19.490  0.00  0.00    +0.000 C 
ATOM     16  C   UNL     1       0.174  11.113  21.156  0.00  0.00    +0.000 C 
ATOM     17  C   UNL     1      -0.187  10.348  22.460  0.00  0.00    +0.000 C 
ATOM     18  C   UNL     1       0.180   8.875  22.223  0.00  0.00    +0.000 C 
ATOM     19  C   UNL     1       1.049   8.921  20.977  0.00  0.00    +0.000 C 
ENDROOT
BRANCH  16  20
ATOM     20  C   UNL     1      -0.772  12.221  20.797  0.00  0.00    +0.000 A 
ATOM     21  C   UNL     1      -1.954  12.590  21.483  0.00  0.00    +0.000 A 
ATOM     22  C   UNL     1      -2.508  13.596  20.725  0.00  0.00    +0.000 A 
ATOM     23  N   UNL     1      -1.646  13.806  19.693  0.00  0.00    +0.000 N 
ATOM     24  N   UNL     1      -0.585  12.987  19.713  0.00  0.00    +0.000 NA
ATOM     25  H   UNL     1      -1.720  14.476  18.932  0.00  0.00    +0.000 HD
BRANCH  22  26
ATOM     26  C   UNL     1      -3.749  14.372  20.836  0.00  0.00    +0.000 C 
ATOM     27  F   UNL     1      -3.592  15.658  20.443  0.00  0.00    +0.000 F 
ATOM     28  F   UNL     1      -4.741  13.838  20.080  0.00  0.00    +0.000 F 
ATOM     29  F   UNL     1      -4.204  14.396  22.114  0.00  0.00    +0.000 F 
ENDBRANCH  22  26
ENDBRANCH  16  20
BRANCH   5  30
ATOM     30  O   UNL     1       5.801   3.739  17.211  0.00  0.00    +0.000 OA
ATOM     31  H   UNL     1       5.892   3.051  17.891  0.00  0.00    +0.000 HD
ENDBRANCH   5  30
TORSDOF 3
ENDMDL
MODEL 5
REMARK VINA RESULT:      -7.3      3.079      5.270
REMARK  Name = 
REMARK  5 active torsions:
REMARK  status: ('A' for Active; 'I' for Inactive)
REMARK    1  A    between atoms: C_1  and  C_2
REMARK    2  A    between atoms: C_5  and  O_6
REMARK    3  A    between atoms: C_15  and  C_16
REMARK    4  A    between atoms: C_17  and  C_18
REMARK    5  A    between atoms: C_20  and  C_21
REMARK                            x       y       z     vdW  Elec       q    Type
REMARK                         _______ _______ _______ _____ _____    ______ ____
ROOT
ATOM      1  C   UNL     1      -3.144  12.157  23.748  0.00  0.00    +0.000 C 
ATOM      2  C   UNL     1      -2.448  13.239  22.886  0.00  0.00    +0.000 C 
ATOM      3  C   UNL     1      -1.635  14.175  23.827  0.00  0.00    +0.000 C 
ATOM      4  C   UNL     1      -2.506  15.055  24.726  0.00  0.00    +0.000 C 
ATOM      5  C   UNL     1      -3.537  15.849  23.930  0.00  0.00    +0.000 C 
ATOM      6  C   UNL     1      -4.380  14.947  23.030  0.00  0.00    +0.000 C 
ATOM      7  C   UNL     1      -3.477  14.121  22.107  0.00  0.00    +0.000 C 
ATOM      8  C   UNL     1      -4.292  13.314  21.093  0.00  0.00    +0.000 C 
ATOM      9  C   UNL     1      -3.368  12.674  20.061  0.00  0.00    +0.000 C 
ATOM     10  C   UNL     1      -2.273  11.815  20.706  0.00  0.00    +0.000 C 
ATOM     11  C   UNL     1      -1.495  12.578  21.824  0.00  0.00    +0.000 C 
ATOM     12  C   UNL     1      -0.375  11.683  22.424  0.00  0.00    +0.000 C 
ATOM     13  C   UNL     1       0.570  11.100  21.353  0.00  0.00    +0.000 C 
ATOM     14  C   UNL     1      -0.203  10.363  20.242  0.00  0.00    +0.000 C 
ATOM     15  C   UNL     1      -0.827   9.068  20.819  0.00  0.00    +0.000 C 
ATOM     16  C   UNL     1       0.614  10.071  18.953  0.00  0.00    +0.000 C 
ATOM     17  C   UNL     1      -0.448  10.042  17.819  0.00  0.00    +0.000 C 
ATOM     18  C   UNL     1      -1.725  10.674  18.394  0.00  0.00    +0.000 C 
ATOM     19  C   UNL     1      -1.244  11.353  19.666  0.00  0.00    +0.000 C 
ENDROOT
BRANCH  16  20
ATOM     20  C   UNL     1       1.524   8.878  18.990  0.00  0.00    +0.000 A 
ATOM     21  C   UNL     1       2.216   8.298  17.901  0.00  0.00    +0.000 A 
ATOM     22  C   UNL     1       2.843   7.191  18.424  0.00  0.00    +0.000 A 
ATOM     23  N   UNL     1       2.549   7.186  19.752  0.00  0.00    +0.000 N 
ATOM     24  N   UNL     1       1.753   8.198  20.123  0.00  0.00    +0.000 NA
ATOM     25  H   UNL     1       2.841   6.521  20.464  0.00  0.00    +0.000 HD
BRANCH  22  26
ATOM     26  C   UNL     1       3.666   6.128  17.834  0.00  0.00    +0.000 C 
ATOM     27  F   UNL     1       4.606   5.666  18.692  0.00  0.00    +0.000 F 
ATOM     28  F   UNL     1       2.912   5.067  17.452  0.00  0.00    +0.000 F 
ATOM     29  F   UNL     1       4.315   6.565  16.725  0.00  0.00    +0.000 F 
ENDBRANCH  22  26
ENDBRANCH  16  20
BRANCH   5  30
ATOM     30  O   UNL     1      -4.382  16.572  24.818  0.00  0.00    +0.000 OA
ATOM     31  H   UNL     1      -5.046  15.954  25.165  0.00  0.00    +0.000 HD
ENDBRANCH   5  30
TORSDOF 3
ENDMDL
MODEL 6
REMARK VINA RESULT:      -7.2      5.864      8.724
REMARK  Name = 
REMARK  5 active torsions:
REMARK  status: ('A' for Active; 'I' for Inactive)
REMARK    1  A    between atoms: C_1  and  C_2
REMARK    2  A    between atoms: C_5  and  O_6
REMARK    3  A    between atoms: C_15  and  C_16
REMARK    4  A    between atoms: C_17  and  C_18
REMARK    5  A    between atoms: C_20  and  C_21
REMARK                            x       y       z     vdW  Elec       q    Type
REMARK                         _______ _______ _______ _____ _____    ______ ____
ROOT
ATOM      1  C   UNL     1       1.352   4.727  17.451  0.00  0.00    +0.000 C 
ATOM      2  C   UNL     1       2.565   4.989  18.378  0.00  0.00    +0.000 C 
ATOM      3  C   UNL     1       3.870   4.734  17.570  0.00  0.00    +0.000 C 
ATOM      4  C   UNL     1       4.102   3.263  17.218  0.00  0.00    +0.000 C 
ATOM      5  C   UNL     1       4.040   2.360  18.447  0.00  0.00    +0.000 C 
ATOM      6  C   UNL     1       2.746   2.558  19.234  0.00  0.00    +0.000 C 
ATOM      7  C   UNL     1       2.575   4.033  19.616  0.00  0.00    +0.000 C 
ATOM      8  C   UNL     1       1.364   4.243  20.529  0.00  0.00    +0.000 C 
ATOM      9  C   UNL     1       1.344   5.674  21.059  0.00  0.00    +0.000 C 
ATOM     10  C   UNL     1       1.382   6.718  19.935  0.00  0.00    +0.000 C 
ATOM     11  C   UNL     1       2.543   6.464  18.922  0.00  0.00    +0.000 C 
ATOM     12  C   UNL     1       2.565   7.562  17.824  0.00  0.00    +0.000 C 
ATOM     13  C   UNL     1       2.600   8.992  18.401  0.00  0.00    +0.000 C 
ATOM     14  C   UNL     1       1.462   9.233  19.412  0.00  0.00    +0.000 C 
ATOM     15  C   UNL     1       0.104   9.250  18.668  0.00  0.00    +0.000 C 
ATOM     16  C   UNL     1       1.632  10.492  20.307  0.00  0.00    +0.000 C 
ATOM     17  C   UNL     1       0.876  10.141  21.618  0.00  0.00    +0.000 C 
ATOM     18  C   UNL     1       0.640   8.623  21.598  0.00  0.00    +0.000 C 
ATOM     19  C   UNL     1       1.566   8.133  20.496  0.00  0.00    +0.000 C 
ENDROOT
BRANCH  16  20
ATOM     20  C   UNL     1       1.248  11.808  19.695  0.00  0.00    +0.000 A 
ATOM     21  C   UNL     1       0.526  12.857  20.312  0.00  0.00    +0.000 A 
ATOM     22  C   UNL     1       0.358  13.802  19.326  0.00  0.00    +0.000 A 
ATOM     23  N   UNL     1       1.000  13.318  18.228  0.00  0.00    +0.000 N 
ATOM     24  N   UNL     1       1.549  12.111  18.425  0.00  0.00    +0.000 NA
ATOM     25  H   UNL     1       1.093  13.742  17.309  0.00  0.00    +0.000 HD
BRANCH  22  26
ATOM     26  C   UNL     1      -0.343  15.092  19.277  0.00  0.00    +0.000 C 
ATOM     27  F   UNL     1      -1.567  15.037  19.853  0.00  0.00    +0.000 F 
ATOM     28  F   UNL     1       0.358  16.065  19.910  0.00  0.00    +0.000 F 
ATOM     29  F   UNL     1      -0.520  15.508  17.998  0.00  0.00    +0.000 F 
ENDBRANCH  22  26
ENDBRANCH  16  20
BRANCH   5  30
ATOM     30  O   UNL     1       4.162   0.998  18.053  0.00  0.00    +0.000 OA
ATOM     31  H   UNL     1       3.421   0.792  17.460  0.00  0.00    +0.000 HD
ENDBRANCH   5  30
TORSDOF 3
ENDMDL
MODEL 7
REMARK VINA RESULT:      -7.1     10.540     12.792
REMARK  Name = 
REMARK  5 active torsions:
REMARK  status: ('A' for Active; 'I' for Inactive)
REMARK    1  A    between atoms: C_1  and  C_2
REMARK    2  A    between atoms: C_5  and  O_6
REMARK    3  A    between atoms: C_15  and  C_16
REMARK    4  A    between atoms: C_17  and  C_18
REMARK    5  A    between atoms: C_20  and  C_21
REMARK                            x       y       z     vdW  Elec       q    Type
REMARK                         _______ _______ _______ _____ _____    ______ ____
ROOT
ATOM      1  C   UNL     1       8.354  13.787  18.342  0.00  0.00    +0.000 C 
ATOM      2  C   UNL     1       9.675  13.707  19.145  0.00  0.00    +0.000 C 
ATOM      3  C   UNL     1      10.610  14.860  18.677  0.00  0.00    +0.000 C 
ATOM      4  C   UNL     1      11.140  14.687  17.252  0.00  0.00    +0.000 C 
ATOM      5  C   UNL     1      11.809  13.331  17.049  0.00  0.00    +0.000 C 
ATOM      6  C   UNL     1      10.895  12.178  17.459  0.00  0.00    +0.000 C 
ATOM      7  C   UNL     1      10.427  12.357  18.907  0.00  0.00    +0.000 C 
ATOM      8  C   UNL     1       9.628  11.147  19.398  0.00  0.00    +0.000 C 
ATOM      9  C   UNL     1       9.361  11.261  20.895  0.00  0.00    +0.000 C 
ATOM     10  C   UNL     1       8.665  12.576  21.270  0.00  0.00    +0.000 C 
ATOM     11  C   UNL     1       9.398  13.827  20.688  0.00  0.00    +0.000 C 
ATOM     12  C   UNL     1       8.680  15.135  21.120  0.00  0.00    +0.000 C 
ATOM     13  C   UNL     1       8.478  15.237  22.646  0.00  0.00    +0.000 C 
ATOM     14  C   UNL     1       7.770  13.994  23.218  0.00  0.00    +0.000 C 
ATOM     15  C   UNL     1       6.301  13.965  22.729  0.00  0.00    +0.000 C 
ATOM     16  C   UNL     1       7.855  13.839  24.762  0.00  0.00    +0.000 C 
ATOM     17  C   UNL     1       7.773  12.306  25.003  0.00  0.00    +0.000 C 
ATOM     18  C   UNL     1       8.027  11.632  23.646  0.00  0.00    +0.000 C 
ATOM     19  C   UNL     1       8.593  12.754  22.791  0.00  0.00    +0.000 C 
ENDROOT
BRANCH  16  20
ATOM     20  C   UNL     1       6.889  14.653  25.573  0.00  0.00    +0.000 A 
ATOM     21  C   UNL     1       6.990  16.028  25.892  0.00  0.00    +0.000 A 
ATOM     22  C   UNL     1       5.917  16.283  26.715  0.00  0.00    +0.000 A 
ATOM     23  N   UNL     1       5.229  15.114  26.807  0.00  0.00    +0.000 N 
ATOM     24  N   UNL     1       5.794  14.110  26.123  0.00  0.00    +0.000 NA
ATOM     25  H   UNL     1       4.376  14.919  27.326  0.00  0.00    +0.000 HD
BRANCH  22  26
ATOM     26  C   UNL     1       5.467  17.479  27.439  0.00  0.00    +0.000 C 
ATOM     27  F   UNL     1       5.958  17.534  28.700  0.00  0.00    +0.000 F 
ATOM     28  F   UNL     1       5.846  18.618  26.808  0.00  0.00    +0.000 F 
ATOM     29  F   UNL     1       4.114  17.517  27.533  0.00  0.00    +0.000 F 
ENDBRANCH  22  26
ENDBRANCH  16  20
BRANCH   5  30
ATOM     30  O   UNL     1      12.195  13.181  15.687  0.00  0.00    +0.000 OA
ATOM     31  H   UNL     1      12.760  12.394  15.623  0.00  0.00    +0.000 HD
ENDBRANCH   5  30
TORSDOF 3
ENDMDL
MODEL 8
REMARK VINA RESULT:      -7.1      6.485      9.306
REMARK  Name = 
REMARK  5 active torsions:
REMARK  status: ('A' for Active; 'I' for Inactive)
REMARK    1  A    between atoms: C_1  and  C_2
REMARK    2  A    between atoms: C_5  and  O_6
REMARK    3  A    between atoms: C_15  and  C_16
REMARK    4  A    between atoms: C_17  and  C_18
REMARK    5  A    between atoms: C_20  and  C_21
REMARK                            x       y       z     vdW  Elec       q    Type
REMARK                         _______ _______ _______ _____ _____    ______ ____
ROOT
ATOM      1  C   UNL     1       1.180   7.298  17.631  0.00  0.00    +0.000 C 
ATOM      2  C   UNL     1       2.338   7.790  18.533  0.00  0.00    +0.000 C 
ATOM      3  C   UNL     1       3.634   7.873  17.675  0.00  0.00    +0.000 C 
ATOM      4  C   UNL     1       4.178   6.510  17.243  0.00  0.00    +0.000 C 
ATOM      5  C   UNL     1       4.371   5.566  18.426  0.00  0.00    +0.000 C 
ATOM      6  C   UNL     1       3.099   5.431  19.261  0.00  0.00    +0.000 C 
ATOM      7  C   UNL     1       2.614   6.810  19.721  0.00  0.00    +0.000 C 
ATOM      8  C   UNL     1       1.425   6.701  20.679  0.00  0.00    +0.000 C 
ATOM      9  C   UNL     1       1.103   8.065  21.280  0.00  0.00    +0.000 C 
ATOM     10  C   UNL     1       0.859   9.137  20.210  0.00  0.00    +0.000 C 
ATOM     11  C   UNL     1       2.005   9.197  19.151  0.00  0.00    +0.000 C 
ATOM     12  C   UNL     1       1.734  10.316  18.109  0.00  0.00    +0.000 C 
ATOM     13  C   UNL     1       1.467  11.691  18.755  0.00  0.00    +0.000 C 
ATOM     14  C   UNL     1       0.347  11.624  19.811  0.00  0.00    +0.000 C 
ATOM     15  C   UNL     1      -1.009  11.362  19.110  0.00  0.00    +0.000 C 
ATOM     16  C   UNL     1       0.263  12.850  20.762  0.00  0.00    +0.000 C 
ATOM     17  C   UNL     1      -0.340  12.281  22.076  0.00  0.00    +0.000 C 
ATOM     18  C   UNL     1      -0.227  10.751  21.987  0.00  0.00    +0.000 C 
ATOM     19  C   UNL     1       0.740  10.532  20.835  0.00  0.00    +0.000 C 
ENDROOT
BRANCH  16  20
ATOM     20  C   UNL     1      -0.433  14.068  20.229  0.00  0.00    +0.000 A 
ATOM     21  C   UNL     1       0.103  15.042  19.353  0.00  0.00    +0.000 A 
ATOM     22  C   UNL     1      -0.885  15.991  19.228  0.00  0.00    +0.000 A 
ATOM     23  N   UNL     1      -1.936  15.538  19.963  0.00  0.00    +0.000 N 
ATOM     24  N   UNL     1      -1.690  14.374  20.579  0.00  0.00    +0.000 NA
ATOM     25  H   UNL     1      -2.846  15.972  20.105  0.00  0.00    +0.000 HD
BRANCH  22  26
ATOM     26  C   UNL     1      -0.962  17.277  18.522  0.00  0.00    +0.000 C 
ATOM     27  F   UNL     1      -0.622  17.170  17.216  0.00  0.00    +0.000 F 
ATOM     28  F   UNL     1      -2.213  17.800  18.572  0.00  0.00    +0.000 F 
ATOM     29  F   UNL     1      -0.133  18.195  19.079  0.00  0.00    +0.000 F 
ENDBRANCH  22  26
ENDBRANCH  16  20
BRANCH   5  30
ATOM     30  O   UNL     1       4.783   4.286  17.962  0.00  0.00    +0.000 OA
ATOM     31  H   UNL     1       3.999   3.714  17.932  0.00  0.00    +0.000 HD
ENDBRANCH   5  30
TORSDOF 3
ENDMDL
MODEL 9
REMARK VINA RESULT:      -7.0     10.593     12.789
REMARK  Name = 
REMARK  5 active torsions:
REMARK  status: ('A' for Active; 'I' for Inactive)
REMARK    1  A    between atoms: C_1  and  C_2
REMARK    2  A    between atoms: C_5  and  O_6
REMARK    3  A    between atoms: C_15  and  C_16
REMARK    4  A    between atoms: C_17  and  C_18
REMARK    5  A    between atoms: C_20  and  C_21
REMARK                            x       y       z     vdW  Elec       q    Type
REMARK                         _______ _______ _______ _____ _____    ______ ____
ROOT
ATOM      1  C   UNL     1       8.661  13.968  18.520  0.00  0.00    +0.000 C 
ATOM      2  C   UNL     1       9.980  13.679  19.278  0.00  0.00    +0.000 C 
ATOM      3  C   UNL     1      11.042  14.732  18.845  0.00  0.00    +0.000 C 
ATOM      4  C   UNL     1      11.513  14.575  17.397  0.00  0.00    +0.000 C 
ATOM      5  C   UNL     1      12.001  13.161  17.101  0.00  0.00    +0.000 C 
ATOM      6  C   UNL     1      10.958  12.109  17.475  0.00  0.00    +0.000 C 
ATOM      7  C   UNL     1      10.551  12.261  18.945  0.00  0.00    +0.000 C 
ATOM      8  C   UNL     1       9.617  11.134  19.392  0.00  0.00    +0.000 C 
ATOM      9  C   UNL     1       9.401  11.194  20.901  0.00  0.00    +0.000 C 
ATOM     10  C   UNL     1       8.885  12.562  21.367  0.00  0.00    +0.000 C 
ATOM     11  C   UNL     1       9.756  13.743  20.833  0.00  0.00    +0.000 C 
ATOM     12  C   UNL     1       9.219  15.103  21.356  0.00  0.00    +0.000 C 
ATOM     13  C   UNL     1       9.067  15.142  22.891  0.00  0.00    +0.000 C 
ATOM     14  C   UNL     1       8.221  13.965  23.415  0.00  0.00    +0.000 C 
ATOM     15  C   UNL     1       6.749  14.148  22.971  0.00  0.00    +0.000 C 
ATOM     16  C   UNL     1       8.321  13.713  24.945  0.00  0.00    +0.000 C 
ATOM     17  C   UNL     1       8.053  12.191  25.106  0.00  0.00    +0.000 C 
ATOM     18  C   UNL     1       8.188  11.569  23.707  0.00  0.00    +0.000 C 
ATOM     19  C   UNL     1       8.872  12.660  22.898  0.00  0.00    +0.000 C 
ENDROOT
BRANCH  16  20
ATOM     20  C   UNL     1       7.485  14.593  25.828  0.00  0.00    +0.000 A 
ATOM     21  C   UNL     1       6.079  14.746  25.794  0.00  0.00    +0.000 A 
ATOM     22  C   UNL     1       5.802  15.714  26.732  0.00  0.00    +0.000 A 
ATOM     23  N   UNL     1       6.997  16.046  27.292  0.00  0.00    +0.000 N 
ATOM     24  N   UNL     1       8.033  15.381  26.764  0.00  0.00    +0.000 NA
ATOM     25  H   UNL     1       7.187  16.725  28.025  0.00  0.00    +0.000 HD
BRANCH  22  26
ATOM     26  C   UNL     1       4.564  16.380  27.156  0.00  0.00    +0.000 C 
ATOM     27  F   UNL     1       3.919  15.698  28.132  0.00  0.00    +0.000 F 
ATOM     28  F   UNL     1       4.805  17.629  27.627  0.00  0.00    +0.000 F 
ATOM     29  F   UNL     1       3.697  16.514  26.121  0.00  0.00    +0.000 F 
ENDBRANCH  22  26
ENDBRANCH  16  20
BRANCH   5  30
ATOM     30  O   UNL     1      12.333  13.043  15.722  0.00  0.00    +0.000 OA
ATOM     31  H   UNL     1      13.297  12.946  15.655  0.00  0.00    +0.000 HD
ENDBRANCH   5  30
TORSDOF 3
ENDMDL
