MODEL 1
REMARK VINA RESULT:      -7.0      0.000      0.000
REMARK  Name = 
REMARK  3 active torsions:
REMARK  status: ('A' for Active; 'I' for Inactive)
REMARK    1  A    between atoms: O_1  and  C_2
REMARK    2  A    between atoms: C_2  and  C_3
REMARK    3  A    between atoms: C_5  and  C_6
REMARK                            x       y       z     vdW  Elec       q    Type
REMARK                         _______ _______ _______ _____ _____    ______ ____
ROOT
ATOM      1  C   UNL     1       5.223   4.040  17.892  0.00  0.00    +0.000 A 
ATOM      2  C   UNL     1       6.359   4.808  18.241  0.00  0.00    +0.000 A 
ATOM      3  C   UNL     1       7.243   5.284  17.265  0.00  0.00    +0.000 A 
ATOM      4  C   UNL     1       6.966   4.983  15.950  0.00  0.00    +0.000 A 
ATOM      5  C   UNL     1       5.867   4.239  15.598  0.00  0.00    +0.000 A 
ATOM      6  C   UNL     1       4.982   3.751  16.537  0.00  0.00    +0.000 A 
ATOM      7  O   UNL     1       5.769   4.060  14.253  0.00  0.00    +0.000 OA
ATOM      8  C   UNL     1       6.917   4.805  13.799  0.00  0.00    +0.000 C 
ATOM      9  O   UNL     1       7.700   5.365  14.872  0.00  0.00    +0.000 OA
ENDROOT
BRANCH   1  12
ATOM     10  C   UNL     1       2.544   3.251  20.243  0.00  0.00    +0.000 A 
ATOM     11  C   UNL     1       2.947   3.939  19.127  0.00  0.00    +0.000 A 
ATOM     12  C   UNL     1       4.300   3.566  18.928  0.00  0.00    +0.000 A 
ATOM     13  N   UNL     1       4.672   2.679  19.868  0.00  0.00    +0.000 NA
ATOM     14  O   UNL     1       3.576   2.489  20.685  0.00  0.00    +0.000 OA
BRANCH  10  15
ATOM     15  C   UNL     1       1.291   3.183  21.015  0.00  0.00    +0.000 C 
BRANCH  15  16
ATOM     16  O   UNL     1       1.572   2.498  22.231  0.00  0.00    +0.000 OA
ATOM     17  H   UNL     1       0.715   2.245  22.612  0.00  0.00    +0.000 HD
ENDBRANCH  15  16
ENDBRANCH  10  15
ENDBRANCH   1  12
TORSDOF 3
ENDMDL
MODEL 2
REMARK VINA RESULT:      -6.9      1.510      6.524
REMARK  Name = 
REMARK  3 active torsions:
REMARK  status: ('A' for Active; 'I' for Inactive)
REMARK    1  A    between atoms: O_1  and  C_2
REMARK    2  A    between atoms: C_2  and  C_3
REMARK    3  A    between atoms: C_5  and  C_6
REMARK                            x       y       z     vdW  Elec       q    Type
REMARK                         _______ _______ _______ _____ _____    ______ ____
ROOT
ATOM      1  C   UNL     1       3.861   3.917  17.956  0.00  0.00    +0.000 A 
ATOM      2  C   UNL     1       2.529   4.140  17.529  0.00  0.00    +0.000 A 
ATOM      3  C   UNL     1       1.442   3.872  18.368  0.00  0.00    +0.000 A 
ATOM      4  C   UNL     1       1.711   3.388  19.629  0.00  0.00    +0.000 A 
ATOM      5  C   UNL     1       2.997   3.168  20.056  0.00  0.00    +0.000 A 
ATOM      6  C   UNL     1       4.088   3.416  19.250  0.00  0.00    +0.000 A 
ATOM      7  O   UNL     1       3.048   2.697  21.332  0.00  0.00    +0.000 OA
ATOM      8  C   UNL     1       1.646   2.678  21.667  0.00  0.00    +0.000 C 
ATOM      9  O   UNL     1       0.789   3.083  20.580  0.00  0.00    +0.000 OA
ENDROOT
BRANCH   1  12
ATOM     10  C   UNL     1       6.284   4.559  15.303  0.00  0.00    +0.000 A 
ATOM     11  C   UNL     1       4.986   4.284  15.652  0.00  0.00    +0.000 A 
ATOM     12  C   UNL     1       4.987   4.220  17.068  0.00  0.00    +0.000 A 
ATOM     13  N   UNL     1       6.222   4.470  17.536  0.00  0.00    +0.000 NA
ATOM     14  O   UNL     1       7.026   4.678  16.433  0.00  0.00    +0.000 OA
BRANCH  10  15
ATOM     15  C   UNL     1       6.992   4.735  14.023  0.00  0.00    +0.000 C 
BRANCH  15  16
ATOM     16  O   UNL     1       8.070   5.636  14.249  0.00  0.00    +0.000 OA
ATOM     17  H   UNL     1       7.933   6.389  13.650  0.00  0.00    +0.000 HD
ENDBRANCH  15  16
ENDBRANCH  10  15
ENDBRANCH   1  12
TORSDOF 3
ENDMDL
MODEL 3
REMARK VINA RESULT:      -6.9      2.223      6.465
REMARK  Name = 
REMARK  3 active torsions:
REMARK  status: ('A' for Active; 'I' for Inactive)
REMARK    1  A    between atoms: O_1  and  C_2
REMARK    2  A    between atoms: C_2  and  C_3
REMARK    3  A    between atoms: C_5  and  C_6
REMARK                            x       y       z     vdW  Elec       q    Type
REMARK                         _______ _______ _______ _____ _____    ______ ____
ROOT
ATOM      1  C   UNL     1       4.296   4.739  16.945  0.00  0.00    +0.000 A 
ATOM      2  C   UNL     1       3.693   5.825  17.623  0.00  0.00    +0.000 A 
ATOM      3  C   UNL     1       2.583   5.639  18.455  0.00  0.00    +0.000 A 
ATOM      4  C   UNL     1       2.098   4.357  18.595  0.00  0.00    +0.000 A 
ATOM      5  C   UNL     1       2.673   3.295  17.943  0.00  0.00    +0.000 A 
ATOM      6  C   UNL     1       3.764   3.449  17.112  0.00  0.00    +0.000 A 
ATOM      7  O   UNL     1       2.051   2.116  18.220  0.00  0.00    +0.000 OA
ATOM      8  C   UNL     1       1.039   2.558  19.147  0.00  0.00    +0.000 C 
ATOM      9  O   UNL     1       1.041   3.984  19.363  0.00  0.00    +0.000 OA
ENDROOT
BRANCH   1  12
ATOM     10  C   UNL     1       6.899   5.001  14.399  0.00  0.00    +0.000 A 
ATOM     11  C   UNL     1       5.611   4.650  14.714  0.00  0.00    +0.000 A 
ATOM     12  C   UNL     1       5.468   4.954  16.092  0.00  0.00    +0.000 A 
ATOM     13  N   UNL     1       6.611   5.483  16.563  0.00  0.00    +0.000 NA
ATOM     14  O   UNL     1       7.499   5.508  15.506  0.00  0.00    +0.000 OA
BRANCH  10  15
ATOM     15  C   UNL     1       7.715   4.936  13.174  0.00  0.00    +0.000 C 
BRANCH  15  16
ATOM     16  O   UNL     1       8.759   5.895  13.302  0.00  0.00    +0.000 OA
ATOM     17  H   UNL     1       8.426   6.592  13.891  0.00  0.00    +0.000 HD
ENDBRANCH  15  16
ENDBRANCH  10  15
ENDBRANCH   1  12
TORSDOF 3
ENDMDL
MODEL 4
REMARK VINA RESULT:      -6.8      1.893      6.379
REMARK  Name = 
REMARK  3 active torsions:
REMARK  status: ('A' for Active; 'I' for Inactive)
REMARK    1  A    between atoms: O_1  and  C_2
REMARK    2  A    between atoms: C_2  and  C_3
REMARK    3  A    between atoms: C_5  and  C_6
REMARK                            x       y       z     vdW  Elec       q    Type
REMARK                         _______ _______ _______ _____ _____    ______ ____
ROOT
ATOM      1  C   UNL     1       4.750   4.086  17.326  0.00  0.00    +0.000 A 
ATOM      2  C   UNL     1       5.178   3.809  18.646  0.00  0.00    +0.000 A 
ATOM      3  C   UNL     1       4.287   3.329  19.614  0.00  0.00    +0.000 A 
ATOM      4  C   UNL     1       2.978   3.132  19.235  0.00  0.00    +0.000 A 
ATOM      5  C   UNL     1       2.550   3.397  17.958  0.00  0.00    +0.000 A 
ATOM      6  C   UNL     1       3.403   3.875  16.985  0.00  0.00    +0.000 A 
ATOM      7  O   UNL     1       1.227   3.129  17.786  0.00  0.00    +0.000 OA
ATOM      8  C   UNL     1       0.881   2.634  19.096  0.00  0.00    +0.000 C 
ATOM      9  O   UNL     1       1.979   2.665  20.030  0.00  0.00    +0.000 OA
ENDROOT
BRANCH   1  12
ATOM     10  C   UNL     1       6.881   4.887  14.471  0.00  0.00    +0.000 A 
ATOM     11  C   UNL     1       5.818   4.175  14.967  0.00  0.00    +0.000 A 
ATOM     12  C   UNL     1       5.703   4.571  16.323  0.00  0.00    +0.000 A 
ATOM     13  N   UNL     1       6.638   5.493  16.610  0.00  0.00    +0.000 NA
ATOM     14  O   UNL     1       7.370   5.685  15.454  0.00  0.00    +0.000 OA
BRANCH  10  15
ATOM     15  C   UNL     1       7.560   4.951  13.166  0.00  0.00    +0.000 C 
BRANCH  15  16
ATOM     16  O   UNL     1       8.633   5.878  13.285  0.00  0.00    +0.000 OA
ATOM     17  H   UNL     1       9.412   5.368  13.560  0.00  0.00    +0.000 HD
ENDBRANCH  15  16
ENDBRANCH  10  15
ENDBRANCH   1  12
TORSDOF 3
ENDMDL
MODEL 5
REMARK VINA RESULT:      -6.7      1.850      6.541
REMARK  Name = 
REMARK  3 active torsions:
REMARK  status: ('A' for Active; 'I' for Inactive)
REMARK    1  A    between atoms: O_1  and  C_2
REMARK    2  A    between atoms: C_2  and  C_3
REMARK    3  A    between atoms: C_5  and  C_6
REMARK                            x       y       z     vdW  Elec       q    Type
REMARK                         _______ _______ _______ _____ _____    ______ ____
ROOT
ATOM      1  C   UNL     1       3.784   4.682  17.862  0.00  0.00    +0.000 A 
ATOM      2  C   UNL     1       2.565   5.376  18.051  0.00  0.00    +0.000 A 
ATOM      3  C   UNL     1       1.722   5.085  19.130  0.00  0.00    +0.000 A 
ATOM      4  C   UNL     1       2.122   4.101  20.006  0.00  0.00    +0.000 A 
ATOM      5  C   UNL     1       3.302   3.420  19.835  0.00  0.00    +0.000 A 
ATOM      6  C   UNL     1       4.150   3.680  18.778  0.00  0.00    +0.000 A 
ATOM      7  O   UNL     1       3.516   2.496  20.810  0.00  0.00    +0.000 OA
ATOM      8  C   UNL     1       2.349   2.698  21.632  0.00  0.00    +0.000 C 
ATOM      9  O   UNL     1       1.443   3.691  21.110  0.00  0.00    +0.000 OA
ENDROOT
BRANCH   1  12
ATOM     10  C   UNL     1       6.056   4.923  15.015  0.00  0.00    +0.000 A 
ATOM     11  C   UNL     1       5.342   4.122  15.869  0.00  0.00    +0.000 A 
ATOM     12  C   UNL     1       4.661   5.014  16.735  0.00  0.00    +0.000 A 
ATOM     13  N   UNL     1       4.939   6.284  16.393  0.00  0.00    +0.000 NA
ATOM     14  O   UNL     1       5.810   6.222  15.323  0.00  0.00    +0.000 OA
BRANCH  10  15
ATOM     15  C   UNL     1       6.986   4.671  13.900  0.00  0.00    +0.000 C 
BRANCH  15  16
ATOM     16  O   UNL     1       8.025   5.640  13.980  0.00  0.00    +0.000 OA
ATOM     17  H   UNL     1       8.381   5.741  13.082  0.00  0.00    +0.000 HD
ENDBRANCH  15  16
ENDBRANCH  10  15
ENDBRANCH   1  12
TORSDOF 3
ENDMDL
MODEL 6
REMARK VINA RESULT:      -6.7      1.051      1.051
REMARK  Name = 
REMARK  3 active torsions:
REMARK  status: ('A' for Active; 'I' for Inactive)
REMARK    1  A    between atoms: O_1  and  C_2
REMARK    2  A    between atoms: C_2  and  C_3
REMARK    3  A    between atoms: C_5  and  C_6
REMARK                            x       y       z     vdW  Elec       q    Type
REMARK                         _______ _______ _______ _____ _____    ______ ____
ROOT
ATOM      1  C   UNL     1       4.979   4.675  17.849  0.00  0.00    +0.000 A 
ATOM      2  C   UNL     1       6.122   5.461  18.131  0.00  0.00    +0.000 A 
ATOM      3  C   UNL     1       7.087   5.720  17.150  0.00  0.00    +0.000 A 
ATOM      4  C   UNL     1       6.882   5.188  15.897  0.00  0.00    +0.000 A 
ATOM      5  C   UNL     1       5.777   4.425  15.610  0.00  0.00    +0.000 A 
ATOM      6  C   UNL     1       4.813   4.147  16.557  0.00  0.00    +0.000 A 
ATOM      7  O   UNL     1       5.759   4.002  14.317  0.00  0.00    +0.000 OA
ATOM      8  C   UNL     1       6.964   4.615  13.816  0.00  0.00    +0.000 C 
ATOM      9  O   UNL     1       7.700   5.341  14.822  0.00  0.00    +0.000 OA
ENDROOT
BRANCH   1  12
ATOM     10  C   UNL     1       2.381   3.548  20.154  0.00  0.00    +0.000 A 
ATOM     11  C   UNL     1       3.196   3.261  19.088  0.00  0.00    +0.000 A 
ATOM     12  C   UNL     1       3.972   4.430  18.886  0.00  0.00    +0.000 A 
ATOM     13  N   UNL     1       3.649   5.357  19.805  0.00  0.00    +0.000 NA
ATOM     14  O   UNL     1       2.657   4.803  20.590  0.00  0.00    +0.000 OA
BRANCH  10  15
ATOM     15  C   UNL     1       1.326   2.813  20.872  0.00  0.00    +0.000 C 
BRANCH  15  16
ATOM     16  O   UNL     1       1.736   2.690  22.229  0.00  0.00    +0.000 OA
ATOM     17  H   UNL     1       0.927   2.707  22.767  0.00  0.00    +0.000 HD
ENDBRANCH  15  16
ENDBRANCH  10  15
ENDBRANCH   1  12
TORSDOF 3
ENDMDL
MODEL 7
REMARK VINA RESULT:      -6.7      2.094      6.315
REMARK  Name = 
REMARK  3 active torsions:
REMARK  status: ('A' for Active; 'I' for Inactive)
REMARK    1  A    between atoms: O_1  and  C_2
REMARK    2  A    between atoms: C_2  and  C_3
REMARK    3  A    between atoms: C_5  and  C_6
REMARK                            x       y       z     vdW  Elec       q    Type
REMARK                         _______ _______ _______ _____ _____    ______ ____
ROOT
ATOM      1  C   UNL     1       5.177   4.831  16.953  0.00  0.00    +0.000 A 
ATOM      2  C   UNL     1       5.707   5.406  18.134  0.00  0.00    +0.000 A 
ATOM      3  C   UNL     1       4.983   5.406  19.331  0.00  0.00    +0.000 A 
ATOM      4  C   UNL     1       3.735   4.822  19.323  0.00  0.00    +0.000 A 
ATOM      5  C   UNL     1       3.210   4.261  18.186  0.00  0.00    +0.000 A 
ATOM      6  C   UNL     1       3.897   4.252  16.990  0.00  0.00    +0.000 A 
ATOM      7  O   UNL     1       1.973   3.733  18.390  0.00  0.00    +0.000 OA
ATOM      8  C   UNL     1       1.796   3.998  19.797  0.00  0.00    +0.000 C 
ATOM      9  O   UNL     1       2.896   4.720  20.388  0.00  0.00    +0.000 OA
ENDROOT
BRANCH   1  12
ATOM     10  C   UNL     1       6.710   4.448  13.662  0.00  0.00    +0.000 A 
ATOM     11  C   UNL     1       5.647   4.185  14.489  0.00  0.00    +0.000 A 
ATOM     12  C   UNL     1       5.959   4.827  15.713  0.00  0.00    +0.000 A 
ATOM     13  N   UNL     1       7.140   5.461  15.608  0.00  0.00    +0.000 NA
ATOM     14  O   UNL     1       7.604   5.221  14.330  0.00  0.00    +0.000 OA
BRANCH  10  15
ATOM     15  C   UNL     1       7.057   4.078  12.279  0.00  0.00    +0.000 C 
BRANCH  15  16
ATOM     16  O   UNL     1       6.609   2.744  12.066  0.00  0.00    +0.000 OA
ATOM     17  H   UNL     1       5.849   2.609  12.655  0.00  0.00    +0.000 HD
ENDBRANCH  15  16
ENDBRANCH  10  15
ENDBRANCH   1  12
TORSDOF 3
ENDMDL
MODEL 8
REMARK VINA RESULT:      -6.7      1.673      1.772
REMARK  Name = 
REMARK  3 active torsions:
REMARK  status: ('A' for Active; 'I' for Inactive)
REMARK    1  A    between atoms: O_1  and  C_2
REMARK    2  A    between atoms: C_2  and  C_3
REMARK    3  A    between atoms: C_5  and  C_6
REMARK                            x       y       z     vdW  Elec       q    Type
REMARK                         _______ _______ _______ _____ _____    ______ ____
ROOT
ATOM      1  C   UNL     1       3.825   4.530  17.386  0.00  0.00    +0.000 A 
ATOM      2  C   UNL     1       4.088   5.919  17.311  0.00  0.00    +0.000 A 
ATOM      3  C   UNL     1       5.019   6.435  16.403  0.00  0.00    +0.000 A 
ATOM      4  C   UNL     1       5.671   5.544  15.580  0.00  0.00    +0.000 A 
ATOM      5  C   UNL     1       5.425   4.195  15.642  0.00  0.00    +0.000 A 
ATOM      6  C   UNL     1       4.517   3.656  16.530  0.00  0.00    +0.000 A 
ATOM      7  O   UNL     1       6.164   3.490  14.742  0.00  0.00    +0.000 OA
ATOM      8  C   UNL     1       6.877   4.557  14.086  0.00  0.00    +0.000 C 
ATOM      9  O   UNL     1       6.595   5.861  14.635  0.00  0.00    +0.000 OA
ENDROOT
BRANCH   1  12
ATOM     10  C   UNL     1       1.787   3.278  20.144  0.00  0.00    +0.000 A 
ATOM     11  C   UNL     1       2.977   3.819  19.729  0.00  0.00    +0.000 A 
ATOM     12  C   UNL     1       2.832   4.012  18.332  0.00  0.00    +0.000 A 
ATOM     13  N   UNL     1       1.605   3.625  17.943  0.00  0.00    +0.000 NA
ATOM     14  O   UNL     1       0.959   3.167  19.075  0.00  0.00    +0.000 OA
BRANCH  10  15
ATOM     15  C   UNL     1       1.262   2.815  21.440  0.00  0.00    +0.000 C 
BRANCH  15  16
ATOM     16  O   UNL     1       2.362   2.706  22.336  0.00  0.00    +0.000 OA
ATOM     17  H   UNL     1       2.222   1.894  22.850  0.00  0.00    +0.000 HD
ENDBRANCH  15  16
ENDBRANCH  10  15
ENDBRANCH   1  12
TORSDOF 3
ENDMDL
MODEL 9
REMARK VINA RESULT:      -6.6      1.805      6.561
REMARK  Name = 
REMARK  3 active torsions:
REMARK  status: ('A' for Active; 'I' for Inactive)
REMARK    1  A    between atoms: O_1  and  C_2
REMARK    2  A    between atoms: C_2  and  C_3
REMARK    3  A    between atoms: C_5  and  C_6
REMARK                            x       y       z     vdW  Elec       q    Type
REMARK                         _______ _______ _______ _____ _____    ______ ____
ROOT
ATOM      1  C   UNL     1       4.110   3.872  17.674  0.00  0.00    +0.000 A 
ATOM      2  C   UNL     1       3.729   2.509  17.630  0.00  0.00    +0.000 A 
ATOM      3  C   UNL     1       2.993   1.925  18.668  0.00  0.00    +0.000 A 
ATOM      4  C   UNL     1       2.647   2.725  19.734  0.00  0.00    +0.000 A 
ATOM      5  C   UNL     1       3.009   4.048  19.789  0.00  0.00    +0.000 A 
ATOM      6  C   UNL     1       3.739   4.649  18.785  0.00  0.00    +0.000 A 
ATOM      7  O   UNL     1       2.564   4.662  20.919  0.00  0.00    +0.000 OA
ATOM      8  C   UNL     1       1.852   3.579  21.550  0.00  0.00    +0.000 C 
ATOM      9  O   UNL     1       1.929   2.338  20.821  0.00  0.00    +0.000 OA
ENDROOT
BRANCH   1  12
ATOM     10  C   UNL     1       6.188   4.805  14.822  0.00  0.00    +0.000 A 
ATOM     11  C   UNL     1       5.668   3.806  15.605  0.00  0.00    +0.000 A 
ATOM     12  C   UNL     1       4.867   4.468  16.569  0.00  0.00    +0.000 A 
ATOM     13  N   UNL     1       4.892   5.794  16.351  0.00  0.00    +0.000 NA
ATOM     14  O   UNL     1       5.718   5.999  15.264  0.00  0.00    +0.000 OA
BRANCH  10  15
ATOM     15  C   UNL     1       7.105   4.839  13.669  0.00  0.00    +0.000 C 
BRANCH  15  16
ATOM     16  O   UNL     1       8.197   5.684  14.014  0.00  0.00    +0.000 OA
ATOM     17  H   UNL     1       9.000   5.250  13.681  0.00  0.00    +0.000 HD
ENDBRANCH  15  16
ENDBRANCH  10  15
ENDBRANCH   1  12
TORSDOF 3
ENDMDL
