MODEL 1
REMARK VINA RESULT:      -8.6      0.000      0.000
REMARK  Name = 
REMARK  4 active torsions:
REMARK  status: ('A' for Active; 'I' for Inactive)
REMARK    1  A    between atoms: C_1  and  C_21
REMARK    2  A    between atoms: N_2  and  N_3
REMARK    3  A    between atoms: C_6  and  C_7
REMARK    4  A    between atoms: C_10  and  C_11
REMARK                            x       y       z     vdW  Elec       q    Type
REMARK                         _______ _______ _______ _____ _____    ______ ____
ROOT
ATOM      1  N   UNL     1       4.632   3.238  17.677  0.00  0.00    +0.000 N 
ATOM      2  C   UNL     1       3.892   4.036  18.495  0.00  0.00    +0.000 A 
ATOM      3  N   UNL     1       3.540   5.278  18.232  0.00  0.00    +0.000 NA
ATOM      4  C   UNL     1       2.791   5.811  19.264  0.00  0.00    +0.000 A 
ATOM      5  C   UNL     1       2.645   4.978  20.354  0.00  0.00    +0.000 A 
ATOM      6  S   UNL     1       3.358   3.454  20.026  0.00  0.00    +0.000 S 
ATOM      7  H   UNL     1       4.825   2.305  18.026  0.00  0.00    +0.000 HD
ENDROOT
BRANCH   4   8
ATOM      8  C   UNL     1       2.230   7.152  19.156  0.00  0.00    +0.000 A 
ATOM      9  C   UNL     1       2.277   7.877  17.963  0.00  0.00    +0.000 A 
ATOM     10  C   UNL     1       1.783   9.188  17.904  0.00  0.00    +0.000 A 
ATOM     11  C   UNL     1       1.213   9.816  19.025  0.00  0.00    +0.000 A 
ATOM     12  C   UNL     1       1.169   9.070  20.217  0.00  0.00    +0.000 A 
ATOM     13  C   UNL     1       1.678   7.766  20.283  0.00  0.00    +0.000 A 
BRANCH  11  14
ATOM     14  C   UNL     1       0.687  11.202  18.954  0.00  0.00    +0.000 A 
ATOM     15  C   UNL     1       1.539  12.299  18.720  0.00  0.00    +0.000 A 
ATOM     16  C   UNL     1       1.050  13.608  18.658  0.00  0.00    +0.000 A 
ATOM     17  C   UNL     1      -0.309  13.852  18.816  0.00  0.00    +0.000 A 
ATOM     18  C   UNL     1      -1.177  12.790  19.043  0.00  0.00    +0.000 A 
ATOM     19  C   UNL     1      -0.682  11.482  19.120  0.00  0.00    +0.000 A 
ENDBRANCH  11  14
ENDBRANCH   4   8
BRANCH   1  21
ATOM     20  C   UNL     1       5.226   3.586  15.525  0.00  0.00    +0.000 C 
ATOM     21  N   UNL     1       5.487   3.790  16.774  0.00  0.00    +0.000 NA
BRANCH  20  22
ATOM     22  C   UNL     1       6.152   4.078  14.495  0.00  0.00    +0.000 A 
ATOM     23  C   UNL     1       6.057   3.649  13.170  0.00  0.00    +0.000 A 
ATOM     24  C   UNL     1       6.927   4.172  12.221  0.00  0.00    +0.000 A 
ATOM     25  C   UNL     1       7.866   5.106  12.637  0.00  0.00    +0.000 A 
ATOM     26  N   UNL     1       7.986   5.537  13.914  0.00  0.00    +0.000 NA
ATOM     27  C   UNL     1       7.126   5.010  14.817  0.00  0.00    +0.000 A 
ENDBRANCH  20  22
ENDBRANCH   1  21
TORSDOF 4
ENDMDL
MODEL 2
REMARK VINA RESULT:      -8.4      0.626      1.147
REMARK  Name = 
REMARK  4 active torsions:
REMARK  status: ('A' for Active; 'I' for Inactive)
REMARK    1  A    between atoms: C_1  and  C_21
REMARK    2  A    between atoms: N_2  and  N_3
REMARK    3  A    between atoms: C_6  and  C_7
REMARK    4  A    between atoms: C_10  and  C_11
REMARK                            x       y       z     vdW  Elec       q    Type
REMARK                         _______ _______ _______ _____ _____    ______ ____
ROOT
ATOM      1  N   UNL     1       4.538   3.187  17.590  0.00  0.00    +0.000 N 
ATOM      2  C   UNL     1       3.846   3.924  18.501  0.00  0.00    +0.000 A 
ATOM      3  N   UNL     1       3.504   5.188  18.358  0.00  0.00    +0.000 NA
ATOM      4  C   UNL     1       2.808   5.643  19.461  0.00  0.00    +0.000 A 
ATOM      5  C   UNL     1       2.693   4.724  20.484  0.00  0.00    +0.000 A 
ATOM      6  S   UNL     1       3.367   3.223  20.001  0.00  0.00    +0.000 S 
ATOM      7  H   UNL     1       4.730   2.226  17.852  0.00  0.00    +0.000 HD
ENDROOT
BRANCH   4   8
ATOM      8  C   UNL     1       2.265   6.995  19.489  0.00  0.00    +0.000 A 
ATOM      9  C   UNL     1       1.702   7.540  20.646  0.00  0.00    +0.000 A 
ATOM     10  C   UNL     1       1.132   8.820  20.627  0.00  0.00    +0.000 A 
ATOM     11  C   UNL     1       1.117   9.609  19.462  0.00  0.00    +0.000 A 
ATOM     12  C   UNL     1       1.692   9.047  18.308  0.00  0.00    +0.000 A 
ATOM     13  C   UNL     1       2.246   7.759  18.319  0.00  0.00    +0.000 A 
BRANCH  11  14
ATOM     14  C   UNL     1       0.516  10.966  19.452  0.00  0.00    +0.000 A 
ATOM     15  C   UNL     1       0.805  11.904  20.461  0.00  0.00    +0.000 A 
ATOM     16  C   UNL     1       0.237  13.182  20.460  0.00  0.00    +0.000 A 
ATOM     17  C   UNL     1      -0.626  13.560  19.438  0.00  0.00    +0.000 A 
ATOM     18  C   UNL     1      -0.927  12.658  18.424  0.00  0.00    +0.000 A 
ATOM     19  C   UNL     1      -0.369  11.374  18.437  0.00  0.00    +0.000 A 
ENDBRANCH  11  14
ENDBRANCH   4   8
BRANCH   1  21
ATOM     20  C   UNL     1       5.247   3.454  15.461  0.00  0.00    +0.000 C 
ATOM     21  N   UNL     1       5.365   3.801  16.699  0.00  0.00    +0.000 NA
BRANCH  20  22
ATOM     22  C   UNL     1       6.163   4.011  14.455  0.00  0.00    +0.000 A 
ATOM     23  C   UNL     1       6.090   3.626  13.116  0.00  0.00    +0.000 A 
ATOM     24  C   UNL     1       6.949   4.209  12.191  0.00  0.00    +0.000 A 
ATOM     25  C   UNL     1       7.855   5.157  12.647  0.00  0.00    +0.000 A 
ATOM     26  N   UNL     1       7.952   5.547  13.939  0.00  0.00    +0.000 NA
ATOM     27  C   UNL     1       7.105   4.961  14.817  0.00  0.00    +0.000 A 
ENDBRANCH  20  22
ENDBRANCH   1  21
TORSDOF 4
ENDMDL
MODEL 3
REMARK VINA RESULT:      -8.1      5.304     10.941
REMARK  Name = 
REMARK  4 active torsions:
REMARK  status: ('A' for Active; 'I' for Inactive)
REMARK    1  A    between atoms: C_1  and  C_21
REMARK    2  A    between atoms: N_2  and  N_3
REMARK    3  A    between atoms: C_6  and  C_7
REMARK    4  A    between atoms: C_10  and  C_11
REMARK                            x       y       z     vdW  Elec       q    Type
REMARK                         _______ _______ _______ _____ _____    ______ ____
ROOT
ATOM      1  N   UNL     1      -2.240  13.092  19.363  0.00  0.00    +0.000 N 
ATOM      2  C   UNL     1      -1.005  12.536  19.507  0.00  0.00    +0.000 A 
ATOM      3  N   UNL     1      -0.714  11.265  19.317  0.00  0.00    +0.000 NA
ATOM      4  C   UNL     1       0.627  11.024  19.543  0.00  0.00    +0.000 A 
ATOM      5  C   UNL     1       1.339  12.119  19.986  0.00  0.00    +0.000 A 
ATOM      6  S   UNL     1       0.331  13.506  20.001  0.00  0.00    +0.000 S 
ATOM      7  H   UNL     1      -2.302  14.087  19.552  0.00  0.00    +0.000 HD
ENDROOT
BRANCH   4   8
ATOM      8  C   UNL     1       1.189   9.697  19.320  0.00  0.00    +0.000 A 
ATOM      9  C   UNL     1       1.294   8.759  20.350  0.00  0.00    +0.000 A 
ATOM     10  C   UNL     1       1.894   7.513  20.120  0.00  0.00    +0.000 A 
ATOM     11  C   UNL     1       2.395   7.152  18.857  0.00  0.00    +0.000 A 
ATOM     12  C   UNL     1       2.276   8.107  17.831  0.00  0.00    +0.000 A 
ATOM     13  C   UNL     1       1.693   9.360  18.062  0.00  0.00    +0.000 A 
BRANCH  11  14
ATOM     14  C   UNL     1       3.024   5.829  18.621  0.00  0.00    +0.000 A 
ATOM     15  C   UNL     1       4.271   5.498  19.184  0.00  0.00    +0.000 A 
ATOM     16  C   UNL     1       4.871   4.254  18.960  0.00  0.00    +0.000 A 
ATOM     17  C   UNL     1       4.231   3.303  18.174  0.00  0.00    +0.000 A 
ATOM     18  C   UNL     1       2.996   3.597  17.608  0.00  0.00    +0.000 A 
ATOM     19  C   UNL     1       2.405   4.849  17.822  0.00  0.00    +0.000 A 
ENDBRANCH  11  14
ENDBRANCH   4   8
BRANCH   1  21
ATOM     20  C   UNL     1      -4.404  12.909  19.986  0.00  0.00    +0.000 C 
ATOM     21  N   UNL     1      -3.355  12.326  19.508  0.00  0.00    +0.000 NA
BRANCH  20  22
ATOM     22  C   UNL     1      -5.620  12.126  20.251  0.00  0.00    +0.000 A 
ATOM     23  C   UNL     1      -6.086  11.180  19.337  0.00  0.00    +0.000 A 
ATOM     24  C   UNL     1      -7.216  10.433  19.647  0.00  0.00    +0.000 A 
ATOM     25  C   UNL     1      -7.842  10.667  20.864  0.00  0.00    +0.000 A 
ATOM     26  N   UNL     1      -7.417  11.580  21.767  0.00  0.00    +0.000 NA
ATOM     27  C   UNL     1      -6.315  12.294  21.438  0.00  0.00    +0.000 A 
ENDBRANCH  20  22
ENDBRANCH   1  21
TORSDOF 4
ENDMDL
MODEL 4
REMARK VINA RESULT:      -8.0      0.909      1.757
REMARK  Name = 
REMARK  4 active torsions:
REMARK  status: ('A' for Active; 'I' for Inactive)
REMARK    1  A    between atoms: C_1  and  C_21
REMARK    2  A    between atoms: N_2  and  N_3
REMARK    3  A    between atoms: C_6  and  C_7
REMARK    4  A    between atoms: C_10  and  C_11
REMARK                            x       y       z     vdW  Elec       q    Type
REMARK                         _______ _______ _______ _____ _____    ______ ____
ROOT
ATOM      1  N   UNL     1       3.345   2.630  18.431  0.00  0.00    +0.000 N 
ATOM      2  C   UNL     1       2.923   3.646  19.232  0.00  0.00    +0.000 A 
ATOM      3  N   UNL     1       2.742   4.894  18.850  0.00  0.00    +0.000 NA
ATOM      4  C   UNL     1       2.309   5.678  19.901  0.00  0.00    +0.000 A 
ATOM      5  C   UNL     1       2.239   5.022  21.113  0.00  0.00    +0.000 A 
ATOM      6  S   UNL     1       2.607   3.361  20.902  0.00  0.00    +0.000 S 
ATOM      7  H   UNL     1       3.442   1.724  18.878  0.00  0.00    +0.000 HD
ENDROOT
BRANCH   4   8
ATOM      8  C   UNL     1       1.972   7.081  19.690  0.00  0.00    +0.000 A 
ATOM      9  C   UNL     1       1.385   7.856  20.692  0.00  0.00    +0.000 A 
ATOM     10  C   UNL     1       1.016   9.185  20.441  0.00  0.00    +0.000 A 
ATOM     11  C   UNL     1       1.233   9.792  19.191  0.00  0.00    +0.000 A 
ATOM     12  C   UNL     1       1.830   8.998  18.196  0.00  0.00    +0.000 A 
ATOM     13  C   UNL     1       2.183   7.664  18.438  0.00  0.00    +0.000 A 
BRANCH  11  14
ATOM     14  C   UNL     1       0.844  11.201  18.935  0.00  0.00    +0.000 A 
ATOM     15  C   UNL     1      -0.507  11.584  18.840  0.00  0.00    +0.000 A 
ATOM     16  C   UNL     1      -0.879  12.910  18.592  0.00  0.00    +0.000 A 
ATOM     17  C   UNL     1       0.095  13.891  18.446  0.00  0.00    +0.000 A 
ATOM     18  C   UNL     1       1.438  13.546  18.540  0.00  0.00    +0.000 A 
ATOM     19  C   UNL     1       1.807  12.215  18.773  0.00  0.00    +0.000 A 
ENDBRANCH  11  14
ENDBRANCH   4   8
BRANCH   1  21
ATOM     20  C   UNL     1       5.016   3.787  17.445  0.00  0.00    +0.000 C 
ATOM     21  N   UNL     1       4.090   2.896  17.323  0.00  0.00    +0.000 NA
BRANCH  20  22
ATOM     22  C   UNL     1       5.803   4.189  16.270  0.00  0.00    +0.000 A 
ATOM     23  C   UNL     1       5.504   3.704  14.996  0.00  0.00    +0.000 A 
ATOM     24  C   UNL     1       6.249   4.143  13.908  0.00  0.00    +0.000 A 
ATOM     25  C   UNL     1       7.272   5.052  14.138  0.00  0.00    +0.000 A 
ATOM     26  N   UNL     1       7.589   5.536  15.362  0.00  0.00    +0.000 NA
ATOM     27  C   UNL     1       6.848   5.090  16.403  0.00  0.00    +0.000 A 
ENDBRANCH  20  22
ENDBRANCH   1  21
TORSDOF 4
ENDMDL
MODEL 5
REMARK VINA RESULT:      -8.0      2.511      9.254
REMARK  Name = 
REMARK  4 active torsions:
REMARK  status: ('A' for Active; 'I' for Inactive)
REMARK    1  A    between atoms: C_1  and  C_21
REMARK    2  A    between atoms: N_2  and  N_3
REMARK    3  A    between atoms: C_6  and  C_7
REMARK    4  A    between atoms: C_10  and  C_11
REMARK                            x       y       z     vdW  Elec       q    Type
REMARK                         _______ _______ _______ _____ _____    ______ ____
ROOT
ATOM      1  N   UNL     1       1.470   7.285  21.245  0.00  0.00    +0.000 N 
ATOM      2  C   UNL     1       2.069   6.249  20.596  0.00  0.00    +0.000 A 
ATOM      3  N   UNL     1       2.683   6.330  19.434  0.00  0.00    +0.000 NA
ATOM      4  C   UNL     1       3.185   5.101  19.050  0.00  0.00    +0.000 A 
ATOM      5  C   UNL     1       2.873   4.064  19.905  0.00  0.00    +0.000 A 
ATOM      6  S   UNL     1       2.039   4.666  21.276  0.00  0.00    +0.000 S 
ATOM      7  H   UNL     1       1.032   7.059  22.132  0.00  0.00    +0.000 HD
ENDROOT
BRANCH   4   8
ATOM      8  C   UNL     1       3.969   4.970  17.829  0.00  0.00    +0.000 A 
ATOM      9  C   UNL     1       4.471   6.084  17.152  0.00  0.00    +0.000 A 
ATOM     10  C   UNL     1       5.170   5.931  15.947  0.00  0.00    +0.000 A 
ATOM     11  C   UNL     1       5.408   4.665  15.382  0.00  0.00    +0.000 A 
ATOM     12  C   UNL     1       4.900   3.554  16.080  0.00  0.00    +0.000 A 
ATOM     13  C   UNL     1       4.185   3.705  17.275  0.00  0.00    +0.000 A 
BRANCH  11  14
ATOM     14  C   UNL     1       6.154   4.511  14.109  0.00  0.00    +0.000 A 
ATOM     15  C   UNL     1       5.776   3.554  13.148  0.00  0.00    +0.000 A 
ATOM     16  C   UNL     1       6.480   3.400  11.949  0.00  0.00    +0.000 A 
ATOM     17  C   UNL     1       7.574   4.212  11.674  0.00  0.00    +0.000 A 
ATOM     18  C   UNL     1       7.968   5.171  12.600  0.00  0.00    +0.000 A 
ATOM     19  C   UNL     1       7.271   5.312  13.806  0.00  0.00    +0.000 A 
ENDBRANCH  11  14
ENDBRANCH   4   8
BRANCH   1  21
ATOM     20  C   UNL     1       0.263   9.195  21.181  0.00  0.00    +0.000 C 
ATOM     21  N   UNL     1       1.012   8.358  20.543  0.00  0.00    +0.000 NA
BRANCH  20  22
ATOM     22  C   UNL     1      -0.338  10.331  20.467  0.00  0.00    +0.000 A 
ATOM     23  C   UNL     1      -0.467  10.327  19.078  0.00  0.00    +0.000 A 
ATOM     24  C   UNL     1      -1.079  11.404  18.447  0.00  0.00    +0.000 A 
ATOM     25  C   UNL     1      -1.536  12.451  19.237  0.00  0.00    +0.000 A 
ATOM     26  N   UNL     1      -1.421  12.485  20.585  0.00  0.00    +0.000 NA
ATOM     27  C   UNL     1      -0.819  11.423  21.171  0.00  0.00    +0.000 A 
ENDBRANCH  20  22
ENDBRANCH   1  21
TORSDOF 4
ENDMDL
MODEL 6
REMARK VINA RESULT:      -7.9      5.348     11.129
REMARK  Name = 
REMARK  4 active torsions:
REMARK  status: ('A' for Active; 'I' for Inactive)
REMARK    1  A    between atoms: C_1  and  C_21
REMARK    2  A    between atoms: N_2  and  N_3
REMARK    3  A    between atoms: C_6  and  C_7
REMARK    4  A    between atoms: C_10  and  C_11
REMARK                            x       y       z     vdW  Elec       q    Type
REMARK                         _______ _______ _______ _____ _____    ______ ____
ROOT
ATOM      1  N   UNL     1      -1.908  13.142  19.292  0.00  0.00    +0.000 N 
ATOM      2  C   UNL     1      -0.717  12.500  19.142  0.00  0.00    +0.000 A 
ATOM      3  N   UNL     1      -0.483  11.244  19.461  0.00  0.00    +0.000 NA
ATOM      4  C   UNL     1       0.826  10.897  19.185  0.00  0.00    +0.000 A 
ATOM      5  C   UNL     1       1.608  11.935  18.722  0.00  0.00    +0.000 A 
ATOM      6  S   UNL     1       0.649  13.342  18.516  0.00  0.00    +0.000 S 
ATOM      7  H   UNL     1      -1.926  14.115  19.005  0.00  0.00    +0.000 HD
ENDROOT
BRANCH   4   8
ATOM      8  C   UNL     1       1.289   9.530  19.389  0.00  0.00    +0.000 A 
ATOM      9  C   UNL     1       1.963   8.824  18.390  0.00  0.00    +0.000 A 
ATOM     10  C   UNL     1       2.343   7.489  18.593  0.00  0.00    +0.000 A 
ATOM     11  C   UNL     1       2.080   6.818  19.800  0.00  0.00    +0.000 A 
ATOM     12  C   UNL     1       1.404   7.546  20.796  0.00  0.00    +0.000 A 
ATOM     13  C   UNL     1       1.007   8.874  20.590  0.00  0.00    +0.000 A 
BRANCH  11  14
ATOM     14  C   UNL     1       2.490   5.407  20.009  0.00  0.00    +0.000 A 
ATOM     15  C   UNL     1       3.398   4.771  19.141  0.00  0.00    +0.000 A 
ATOM     16  C   UNL     1       3.782   3.439  19.330  0.00  0.00    +0.000 A 
ATOM     17  C   UNL     1       3.279   2.713  20.402  0.00  0.00    +0.000 A 
ATOM     18  C   UNL     1       2.385   3.315  21.281  0.00  0.00    +0.000 A 
ATOM     19  C   UNL     1       1.989   4.644  21.080  0.00  0.00    +0.000 A 
ENDBRANCH  11  14
ENDBRANCH   4   8
BRANCH   1  21
ATOM     20  C   UNL     1      -2.974  13.486  21.255  0.00  0.00    +0.000 C 
ATOM     21  N   UNL     1      -2.800  12.719  20.230  0.00  0.00    +0.000 NA
BRANCH  20  22
ATOM     22  C   UNL     1      -3.856  13.054  22.349  0.00  0.00    +0.000 A 
ATOM     23  C   UNL     1      -3.375  12.900  23.650  0.00  0.00    +0.000 A 
ATOM     24  C   UNL     1      -4.253  12.531  24.662  0.00  0.00    +0.000 A 
ATOM     25  C   UNL     1      -5.585  12.324  24.330  0.00  0.00    +0.000 A 
ATOM     26  N   UNL     1      -6.079  12.460  23.077  0.00  0.00    +0.000 NA
ATOM     27  C   UNL     1      -5.201  12.819  22.112  0.00  0.00    +0.000 A 
ENDBRANCH  20  22
ENDBRANCH   1  21
TORSDOF 4
ENDMDL
MODEL 7
REMARK VINA RESULT:      -7.9      5.047     10.148
REMARK  Name = 
REMARK  4 active torsions:
REMARK  status: ('A' for Active; 'I' for Inactive)
REMARK    1  A    between atoms: C_1  and  C_21
REMARK    2  A    between atoms: N_2  and  N_3
REMARK    3  A    between atoms: C_6  and  C_7
REMARK    4  A    between atoms: C_10  and  C_11
REMARK                            x       y       z     vdW  Elec       q    Type
REMARK                         _______ _______ _______ _____ _____    ______ ____
ROOT
ATOM      1  N   UNL     1       0.140  14.312  21.384  0.00  0.00    +0.000 N 
ATOM      2  C   UNL     1       0.012  12.957  21.411  0.00  0.00    +0.000 A 
ATOM      3  N   UNL     1       0.649  12.115  20.623  0.00  0.00    +0.000 NA
ATOM      4  C   UNL     1       0.298  10.809  20.906  0.00  0.00    +0.000 A 
ATOM      5  C   UNL     1      -0.679  10.674  21.871  0.00  0.00    +0.000 A 
ATOM      6  S   UNL     1      -1.075  12.211  22.521  0.00  0.00    +0.000 S 
ATOM      7  H   UNL     1      -0.425  14.824  22.053  0.00  0.00    +0.000 HD
ENDROOT
BRANCH   4   8
ATOM      8  C   UNL     1       0.938   9.702  20.205  0.00  0.00    +0.000 A 
ATOM      9  C   UNL     1       1.293   8.521  20.862  0.00  0.00    +0.000 A 
ATOM     10  C   UNL     1       1.962   7.498  20.177  0.00  0.00    +0.000 A 
ATOM     11  C   UNL     1       2.286   7.606  18.812  0.00  0.00    +0.000 A 
ATOM     12  C   UNL     1       1.916   8.799  18.166  0.00  0.00    +0.000 A 
ATOM     13  C   UNL     1       1.263   9.832  18.853  0.00  0.00    +0.000 A 
BRANCH  11  14
ATOM     14  C   UNL     1       2.990   6.516  18.093  0.00  0.00    +0.000 A 
ATOM     15  C   UNL     1       4.170   6.759  17.364  0.00  0.00    +0.000 A 
ATOM     16  C   UNL     1       4.833   5.736  16.679  0.00  0.00    +0.000 A 
ATOM     17  C   UNL     1       4.339   4.438  16.716  0.00  0.00    +0.000 A 
ATOM     18  C   UNL     1       3.179   4.164  17.432  0.00  0.00    +0.000 A 
ATOM     19  C   UNL     1       2.509   5.193  18.104  0.00  0.00    +0.000 A 
ENDBRANCH  11  14
ENDBRANCH   4   8
BRANCH   1  21
ATOM     20  C   UNL     1       0.181  16.175  20.106  0.00  0.00    +0.000 C 
ATOM     21  N   UNL     1       0.531  14.939  20.241  0.00  0.00    +0.000 NA
BRANCH  20  22
ATOM     22  C   UNL     1       0.493  16.891  18.860  0.00  0.00    +0.000 A 
ATOM     23  C   UNL     1      -0.511  17.482  18.092  0.00  0.00    +0.000 A 
ATOM     24  C   UNL     1      -0.166  18.185  16.944  0.00  0.00    +0.000 A 
ATOM     25  C   UNL     1       1.178  18.266  16.605  0.00  0.00    +0.000 A 
ATOM     26  N   UNL     1       2.173  17.700  17.326  0.00  0.00    +0.000 NA
ATOM     27  C   UNL     1       1.807  17.021  18.439  0.00  0.00    +0.000 A 
ENDBRANCH  20  22
ENDBRANCH   1  21
TORSDOF 4
ENDMDL
MODEL 8
REMARK VINA RESULT:      -7.9      5.039     10.156
REMARK  Name = 
REMARK  4 active torsions:
REMARK  status: ('A' for Active; 'I' for Inactive)
REMARK    1  A    between atoms: C_1  and  C_21
REMARK    2  A    between atoms: N_2  and  N_3
REMARK    3  A    between atoms: C_6  and  C_7
REMARK    4  A    between atoms: C_10  and  C_11
REMARK                            x       y       z     vdW  Elec       q    Type
REMARK                         _______ _______ _______ _____ _____    ______ ____
ROOT
ATOM      1  N   UNL     1      -0.171  14.231  21.256  0.00  0.00    +0.000 N 
ATOM      2  C   UNL     1      -0.161  12.872  21.340  0.00  0.00    +0.000 A 
ATOM      3  N   UNL     1       0.502  12.063  20.538  0.00  0.00    +0.000 NA
ATOM      4  C   UNL     1       0.304  10.742  20.890  0.00  0.00    +0.000 A 
ATOM      5  C   UNL     1      -0.587  10.553  21.927  0.00  0.00    +0.000 A 
ATOM      6  S   UNL     1      -1.090  12.070  22.549  0.00  0.00    +0.000 S 
ATOM      7  H   UNL     1      -0.738  14.712  21.946  0.00  0.00    +0.000 HD
ENDROOT
BRANCH   4   8
ATOM      8  C   UNL     1       1.003   9.675  20.185  0.00  0.00    +0.000 A 
ATOM      9  C   UNL     1       1.303   9.765  18.823  0.00  0.00    +0.000 A 
ATOM     10  C   UNL     1       1.921   8.698  18.157  0.00  0.00    +0.000 A 
ATOM     11  C   UNL     1       2.277   7.512  18.825  0.00  0.00    +0.000 A 
ATOM     12  C   UNL     1       1.971   7.441  20.196  0.00  0.00    +0.000 A 
ATOM     13  C   UNL     1       1.336   8.499  20.861  0.00  0.00    +0.000 A 
BRANCH  11  14
ATOM     14  C   UNL     1       2.936   6.389  18.114  0.00  0.00    +0.000 A 
ATOM     15  C   UNL     1       2.344   5.113  18.049  0.00  0.00    +0.000 A 
ATOM     16  C   UNL     1       2.965   4.049  17.386  0.00  0.00    +0.000 A 
ATOM     17  C   UNL     1       4.190   4.239  16.758  0.00  0.00    +0.000 A 
ATOM     18  C   UNL     1       4.798   5.489  16.799  0.00  0.00    +0.000 A 
ATOM     19  C   UNL     1       4.181   6.548  17.477  0.00  0.00    +0.000 A 
ENDBRANCH  11  14
ENDBRANCH   4   8
BRANCH   1  21
ATOM     20  C   UNL     1       0.387  16.097  20.113  0.00  0.00    +0.000 C 
ATOM     21  N   UNL     1       0.077  14.845  20.067  0.00  0.00    +0.000 NA
BRANCH  20  22
ATOM     22  C   UNL     1       0.585  16.848  18.864  0.00  0.00    +0.000 A 
ATOM     23  C   UNL     1      -0.492  17.412  18.179  0.00  0.00    +0.000 A 
ATOM     24  C   UNL     1      -0.254  18.149  17.024  0.00  0.00    +0.000 A 
ATOM     25  C   UNL     1       1.059  18.288  16.595  0.00  0.00    +0.000 A 
ATOM     26  N   UNL     1       2.122  17.748  17.235  0.00  0.00    +0.000 NA
ATOM     27  C   UNL     1       1.861  17.035  18.355  0.00  0.00    +0.000 A 
ENDBRANCH  20  22
ENDBRANCH   1  21
TORSDOF 4
ENDMDL
MODEL 9
REMARK VINA RESULT:      -7.9      2.485      9.181
REMARK  Name = 
REMARK  4 active torsions:
REMARK  status: ('A' for Active; 'I' for Inactive)
REMARK    1  A    between atoms: C_1  and  C_21
REMARK    2  A    between atoms: N_2  and  N_3
REMARK    3  A    between atoms: C_6  and  C_7
REMARK    4  A    between atoms: C_10  and  C_11
REMARK                            x       y       z     vdW  Elec       q    Type
REMARK                         _______ _______ _______ _____ _____    ______ ____
ROOT
ATOM      1  N   UNL     1       1.621   7.568  21.240  0.00  0.00    +0.000 N 
ATOM      2  C   UNL     1       2.071   6.485  20.548  0.00  0.00    +0.000 A 
ATOM      3  N   UNL     1       2.675   6.525  19.378  0.00  0.00    +0.000 NA
ATOM      4  C   UNL     1       3.006   5.256  18.946  0.00  0.00    +0.000 A 
ATOM      5  C   UNL     1       2.572   4.239  19.771  0.00  0.00    +0.000 A 
ATOM      6  S   UNL     1       1.842   4.897  21.176  0.00  0.00    +0.000 S 
ATOM      7  H   UNL     1       1.170   7.370  22.127  0.00  0.00    +0.000 HD
ENDROOT
BRANCH   4   8
ATOM      8  C   UNL     1       3.750   5.066  17.707  0.00  0.00    +0.000 A 
ATOM      9  C   UNL     1       3.881   3.809  17.112  0.00  0.00    +0.000 A 
ATOM     10  C   UNL     1       4.654   3.645  15.954  0.00  0.00    +0.000 A 
ATOM     11  C   UNL     1       5.309   4.727  15.339  0.00  0.00    +0.000 A 
ATOM     12  C   UNL     1       5.162   5.986  15.950  0.00  0.00    +0.000 A 
ATOM     13  C   UNL     1       4.406   6.150  17.118  0.00  0.00    +0.000 A 
BRANCH  11  14
ATOM     14  C   UNL     1       6.121   4.547  14.111  0.00  0.00    +0.000 A 
ATOM     15  C   UNL     1       5.783   3.581  13.143  0.00  0.00    +0.000 A 
ATOM     16  C   UNL     1       6.549   3.402  11.986  0.00  0.00    +0.000 A 
ATOM     17  C   UNL     1       7.666   4.196  11.760  0.00  0.00    +0.000 A 
ATOM     18  C   UNL     1       8.022   5.163  12.694  0.00  0.00    +0.000 A 
ATOM     19  C   UNL     1       7.263   5.329  13.858  0.00  0.00    +0.000 A 
ENDBRANCH  11  14
ENDBRANCH   4   8
BRANCH   1  21
ATOM     20  C   UNL     1       0.157   9.247  20.865  0.00  0.00    +0.000 C 
ATOM     21  N   UNL     1       1.299   8.715  20.582  0.00  0.00    +0.000 NA
BRANCH  20  22
ATOM     22  C   UNL     1      -0.297  10.438  20.133  0.00  0.00    +0.000 A 
ATOM     23  C   UNL     1      -1.025  10.328  18.948  0.00  0.00    +0.000 A 
ATOM     24  C   UNL     1      -1.469  11.480  18.310  0.00  0.00    +0.000 A 
ATOM     25  C   UNL     1      -1.161  12.706  18.885  0.00  0.00    +0.000 A 
ATOM     26  N   UNL     1      -0.453  12.845  20.029  0.00  0.00    +0.000 NA
ATOM     27  C   UNL     1      -0.032  11.706  20.627  0.00  0.00    +0.000 A 
ENDBRANCH  20  22
ENDBRANCH   1  21
TORSDOF 4
ENDMDL
