MODEL 1
REMARK VINA RESULT:      -5.9      0.000      0.000
REMARK  Name = 
REMARK  5 active torsions:
REMARK  status: ('A' for Active; 'I' for Inactive)
REMARK    1  A    between atoms: C_1  and  S_2
REMARK    2  A    between atoms: S_2  and  C_3
REMARK    3  A    between atoms: C_6  and  S_7
REMARK    4  A    between atoms: S_7  and  C_8
REMARK    5  A    between atoms: C_11  and  N_12
REMARK                            x       y       z     vdW  Elec       q    Type
REMARK                         _______ _______ _______ _____ _____    ______ ____
ROOT
ATOM      1  S   UNL     1       6.448   5.251  18.504  0.00  0.00    +0.000 S 
ENDROOT
BRANCH   1   5
ATOM      2  C   UNL     1       6.450   4.346  14.507  0.00  0.00    +0.000 A 
ATOM      3  N   UNL     1       7.327   5.305  14.710  0.00  0.00    +0.000 NA
ATOM      4  N   UNL     1       7.416   5.652  16.044  0.00  0.00    +0.000 NA
ATOM      5  C   UNL     1       6.618   4.924  16.797  0.00  0.00    +0.000 A 
ATOM      6  S   UNL     1       5.664   3.792  15.927  0.00  0.00    +0.000 S 
BRANCH   2   8
ATOM      7  C   UNL     1       7.364   4.539  11.936  0.00  0.00    +0.000 C 
ATOM      8  S   UNL     1       6.096   3.706  12.917  0.00  0.00    +0.000 S 
ENDBRANCH   2   8
ENDBRANCH   1   5
BRANCH   1   9
ATOM      9  C   UNL     1       4.755   4.849  18.704  0.00  0.00    +0.000 A 
ATOM     10  N   UNL     1       3.765   5.630  18.320  0.00  0.00    +0.000 NA
ATOM     11  C   UNL     1       2.554   5.010  18.583  0.00  0.00    +0.000 A 
ATOM     12  C   UNL     1       2.658   3.772  19.169  0.00  0.00    +0.000 A 
ATOM     13  S   UNL     1       4.285   3.345  19.399  0.00  0.00    +0.000 S 
BRANCH  12  14
ATOM     14  N   UNL     1       1.591   2.908  19.557  0.00  0.00    +0.000 N 
ATOM     15  O   UNL     1       1.014   2.306  18.641  0.00  0.00    +0.000 OA
ATOM     16  O   UNL     1       1.316   2.819  20.760  0.00  0.00    +0.000 OA
ENDBRANCH  12  14
ENDBRANCH   1   9
TORSDOF 4
ENDMDL
MODEL 2
REMARK VINA RESULT:      -5.9      0.963      1.246
REMARK  Name = 
REMARK  5 active torsions:
REMARK  status: ('A' for Active; 'I' for Inactive)
REMARK    1  A    between atoms: C_1  and  S_2
REMARK    2  A    between atoms: S_2  and  C_3
REMARK    3  A    between atoms: C_6  and  S_7
REMARK    4  A    between atoms: S_7  and  C_8
REMARK    5  A    between atoms: C_11  and  N_12
REMARK                            x       y       z     vdW  Elec       q    Type
REMARK                         _______ _______ _______ _____ _____    ______ ____
ROOT
ATOM      1  S   UNL     1       6.585   5.414  18.110  0.00  0.00    +0.000 S 
ENDROOT
BRANCH   1   5
ATOM      2  C   UNL     1       6.790   4.406  14.143  0.00  0.00    +0.000 A 
ATOM      3  N   UNL     1       7.558   5.455  14.338  0.00  0.00    +0.000 NA
ATOM      4  N   UNL     1       7.574   5.846  15.663  0.00  0.00    +0.000 NA
ATOM      5  C   UNL     1       6.834   5.060  16.418  0.00  0.00    +0.000 A 
ATOM      6  S   UNL     1       6.026   3.813  15.558  0.00  0.00    +0.000 S 
BRANCH   2   8
ATOM      7  C   UNL     1       4.748   3.520  12.551  0.00  0.00    +0.000 C 
ATOM      8  S   UNL     1       6.547   3.691  12.564  0.00  0.00    +0.000 S 
ENDBRANCH   2   8
ENDBRANCH   1   5
BRANCH   1   9
ATOM      9  C   UNL     1       4.853   5.177  18.198  0.00  0.00    +0.000 A 
ATOM     10  N   UNL     1       3.972   5.996  17.659  0.00  0.00    +0.000 NA
ATOM     11  C   UNL     1       2.691   5.509  17.871  0.00  0.00    +0.000 A 
ATOM     12  C   UNL     1       2.635   4.331  18.575  0.00  0.00    +0.000 A 
ATOM     13  S   UNL     1       4.193   3.794  18.984  0.00  0.00    +0.000 S 
BRANCH  12  14
ATOM     14  N   UNL     1       1.466   3.602  18.946  0.00  0.00    +0.000 N 
ATOM     15  O   UNL     1       0.946   3.914  20.026  0.00  0.00    +0.000 OA
ATOM     16  O   UNL     1       1.057   2.721  18.180  0.00  0.00    +0.000 OA
ENDBRANCH  12  14
ENDBRANCH   1   9
TORSDOF 4
ENDMDL
MODEL 3
REMARK VINA RESULT:      -5.9      1.339      1.637
REMARK  Name = 
REMARK  5 active torsions:
REMARK  status: ('A' for Active; 'I' for Inactive)
REMARK    1  A    between atoms: C_1  and  S_2
REMARK    2  A    between atoms: S_2  and  C_3
REMARK    3  A    between atoms: C_6  and  S_7
REMARK    4  A    between atoms: S_7  and  C_8
REMARK    5  A    between atoms: C_11  and  N_12
REMARK                            x       y       z     vdW  Elec       q    Type
REMARK                         _______ _______ _______ _____ _____    ______ ____
ROOT
ATOM      1  S   UNL     1       6.503   5.793  18.148  0.00  0.00    +0.000 S 
ENDROOT
BRANCH   1   5
ATOM      2  C   UNL     1       6.780   4.401  14.303  0.00  0.00    +0.000 A 
ATOM      3  N   UNL     1       7.569   5.447  14.417  0.00  0.00    +0.000 NA
ATOM      4  N   UNL     1       7.562   5.963  15.698  0.00  0.00    +0.000 NA
ATOM      5  C   UNL     1       6.785   5.271  16.505  0.00  0.00    +0.000 A 
ATOM      6  S   UNL     1       5.967   3.965  15.748  0.00  0.00    +0.000 S 
BRANCH   2   8
ATOM      7  C   UNL     1       4.763   3.649  12.614  0.00  0.00    +0.000 C 
ATOM      8  S   UNL     1       6.558   3.541  12.795  0.00  0.00    +0.000 S 
ENDBRANCH   2   8
ENDBRANCH   1   5
BRANCH   1   9
ATOM      9  C   UNL     1       5.101   4.813  18.521  0.00  0.00    +0.000 A 
ATOM     10  N   UNL     1       5.154   3.686  19.202  0.00  0.00    +0.000 NA
ATOM     11  C   UNL     1       3.874   3.176  19.360  0.00  0.00    +0.000 A 
ATOM     12  C   UNL     1       2.882   3.931  18.784  0.00  0.00    +0.000 A 
ATOM     13  S   UNL     1       3.526   5.311  18.035  0.00  0.00    +0.000 S 
BRANCH  12  14
ATOM     14  N   UNL     1       1.481   3.656  18.778  0.00  0.00    +0.000 N 
ATOM     15  O   UNL     1       0.951   3.496  19.885  0.00  0.00    +0.000 OA
ATOM     16  O   UNL     1       0.900   3.595  17.687  0.00  0.00    +0.000 OA
ENDBRANCH  12  14
ENDBRANCH   1   9
TORSDOF 4
ENDMDL
MODEL 4
REMARK VINA RESULT:      -5.9      1.310      1.558
REMARK  Name = 
REMARK  5 active torsions:
REMARK  status: ('A' for Active; 'I' for Inactive)
REMARK    1  A    between atoms: C_1  and  S_2
REMARK    2  A    between atoms: S_2  and  C_3
REMARK    3  A    between atoms: C_6  and  S_7
REMARK    4  A    between atoms: S_7  and  C_8
REMARK    5  A    between atoms: C_11  and  N_12
REMARK                            x       y       z     vdW  Elec       q    Type
REMARK                         _______ _______ _______ _____ _____    ______ ____
ROOT
ATOM      1  S   UNL     1       6.925   5.339  18.481  0.00  0.00    +0.000 S 
ENDROOT
BRANCH   1   5
ATOM      2  C   UNL     1       6.226   4.443  14.543  0.00  0.00    +0.000 A 
ATOM      3  N   UNL     1       7.115   5.411  14.591  0.00  0.00    +0.000 NA
ATOM      4  N   UNL     1       7.436   5.755  15.890  0.00  0.00    +0.000 NA
ATOM      5  C   UNL     1       6.792   5.018  16.770  0.00  0.00    +0.000 A 
ATOM      6  S   UNL     1       5.710   3.878  16.078  0.00  0.00    +0.000 S 
BRANCH   2   8
ATOM      7  C   UNL     1       7.105   3.785  12.038  0.00  0.00    +0.000 C 
ATOM      8  S   UNL     1       5.601   3.804  13.039  0.00  0.00    +0.000 S 
ENDBRANCH   2   8
ENDBRANCH   1   5
BRANCH   1   9
ATOM      9  C   UNL     1       5.451   4.570  19.030  0.00  0.00    +0.000 A 
ATOM     10  N   UNL     1       5.369   3.300  19.375  0.00  0.00    +0.000 NA
ATOM     11  C   UNL     1       4.081   3.013  19.797  0.00  0.00    +0.000 A 
ATOM     12  C   UNL     1       3.213   4.078  19.755  0.00  0.00    +0.000 A 
ATOM     13  S   UNL     1       3.994   5.475  19.192  0.00  0.00    +0.000 S 
BRANCH  12  14
ATOM     14  N   UNL     1       1.834   4.082  20.122  0.00  0.00    +0.000 N 
ATOM     15  O   UNL     1       1.396   5.140  20.590  0.00  0.00    +0.000 OA
ATOM     16  O   UNL     1       1.179   3.046  19.951  0.00  0.00    +0.000 OA
ENDBRANCH  12  14
ENDBRANCH   1   9
TORSDOF 4
ENDMDL
MODEL 5
REMARK VINA RESULT:      -5.8      3.139      6.194
REMARK  Name = 
REMARK  5 active torsions:
REMARK  status: ('A' for Active; 'I' for Inactive)
REMARK    1  A    between atoms: C_1  and  S_2
REMARK    2  A    between atoms: S_2  and  C_3
REMARK    3  A    between atoms: C_6  and  S_7
REMARK    4  A    between atoms: S_7  and  C_8
REMARK    5  A    between atoms: C_11  and  N_12
REMARK                            x       y       z     vdW  Elec       q    Type
REMARK                         _______ _______ _______ _____ _____    ______ ____
ROOT
ATOM      1  S   UNL     1       6.776   4.998  18.014  0.00  0.00    +0.000 S 
ENDROOT
BRANCH   1   5
ATOM      2  C   UNL     1       2.859   4.413  19.070  0.00  0.00    +0.000 A 
ATOM      3  N   UNL     1       2.946   5.566  18.443  0.00  0.00    +0.000 NA
ATOM      4  N   UNL     1       4.234   5.830  18.020  0.00  0.00    +0.000 NA
ATOM      5  C   UNL     1       5.064   4.854  18.325  0.00  0.00    +0.000 A 
ATOM      6  S   UNL     1       4.341   3.560  19.194  0.00  0.00    +0.000 S 
BRANCH   2   8
ATOM      7  C   UNL     1       1.162   2.285  18.801  0.00  0.00    +0.000 C 
ATOM      8  S   UNL     1       1.361   3.812  19.744  0.00  0.00    +0.000 S 
ENDBRANCH   2   8
ENDBRANCH   1   5
BRANCH   1   9
ATOM      9  C   UNL     1       6.762   4.842  16.271  0.00  0.00    +0.000 A 
ATOM     10  N   UNL     1       7.534   5.544  15.465  0.00  0.00    +0.000 NA
ATOM     11  C   UNL     1       7.311   5.159  14.152  0.00  0.00    +0.000 A 
ATOM     12  C   UNL     1       6.366   4.175  13.997  0.00  0.00    +0.000 A 
ATOM     13  S   UNL     1       5.735   3.696  15.498  0.00  0.00    +0.000 S 
BRANCH  12  14
ATOM     14  N   UNL     1       5.925   3.586  12.773  0.00  0.00    +0.000 N 
ATOM     15  O   UNL     1       6.813   3.186  12.009  0.00  0.00    +0.000 OA
ATOM     16  O   UNL     1       4.709   3.518  12.560  0.00  0.00    +0.000 OA
ENDBRANCH  12  14
ENDBRANCH   1   9
TORSDOF 4
ENDMDL
MODEL 6
REMARK VINA RESULT:      -5.7      3.562      6.305
REMARK  Name = 
REMARK  5 active torsions:
REMARK  status: ('A' for Active; 'I' for Inactive)
REMARK    1  A    between atoms: C_1  and  S_2
REMARK    2  A    between atoms: S_2  and  C_3
REMARK    3  A    between atoms: C_6  and  S_7
REMARK    4  A    between atoms: S_7  and  C_8
REMARK    5  A    between atoms: C_11  and  N_12
REMARK                            x       y       z     vdW  Elec       q    Type
REMARK                         _______ _______ _______ _____ _____    ______ ____
ROOT
ATOM      1  S   UNL     1       6.284   5.537  19.043  0.00  0.00    +0.000 S 
ENDROOT
BRANCH   1   5
ATOM      2  C   UNL     1       2.866   3.479  19.980  0.00  0.00    +0.000 A 
ATOM      3  N   UNL     1       3.834   2.606  19.806  0.00  0.00    +0.000 NA
ATOM      4  N   UNL     1       5.038   3.219  19.516  0.00  0.00    +0.000 NA
ATOM      5  C   UNL     1       4.934   4.531  19.507  0.00  0.00    +0.000 A 
ATOM      6  S   UNL     1       3.347   5.115  19.805  0.00  0.00    +0.000 S 
BRANCH   2   8
ATOM      7  C   UNL     1       0.664   2.481  18.700  0.00  0.00    +0.000 C 
ATOM      8  S   UNL     1       1.219   3.008  20.337  0.00  0.00    +0.000 S 
ENDBRANCH   2   8
ENDBRANCH   1   5
BRANCH   1   9
ATOM      9  C   UNL     1       6.118   5.450  17.302  0.00  0.00    +0.000 A 
ATOM     10  N   UNL     1       5.105   5.966  16.635  0.00  0.00    +0.000 NA
ATOM     11  C   UNL     1       5.289   5.762  15.276  0.00  0.00    +0.000 A 
ATOM     12  C   UNL     1       6.439   5.087  14.949  0.00  0.00    +0.000 A 
ATOM     13  S   UNL     1       7.330   4.695  16.340  0.00  0.00    +0.000 S 
BRANCH  12  14
ATOM     14  N   UNL     1       6.889   4.730  13.642  0.00  0.00    +0.000 N 
ATOM     15  O   UNL     1       6.299   3.787  13.099  0.00  0.00    +0.000 OA
ATOM     16  O   UNL     1       7.822   5.375  13.146  0.00  0.00    +0.000 OA
ENDBRANCH  12  14
ENDBRANCH   1   9
TORSDOF 4
ENDMDL
MODEL 7
REMARK VINA RESULT:      -5.6      1.401      1.663
REMARK  Name = 
REMARK  5 active torsions:
REMARK  status: ('A' for Active; 'I' for Inactive)
REMARK    1  A    between atoms: C_1  and  S_2
REMARK    2  A    between atoms: S_2  and  C_3
REMARK    3  A    between atoms: C_6  and  S_7
REMARK    4  A    between atoms: S_7  and  C_8
REMARK    5  A    between atoms: C_11  and  N_12
REMARK                            x       y       z     vdW  Elec       q    Type
REMARK                         _______ _______ _______ _____ _____    ______ ____
ROOT
ATOM      1  S   UNL     1       5.492   6.540  17.836  0.00  0.00    +0.000 S 
ENDROOT
BRANCH   1   5
ATOM      2  C   UNL     1       6.369   4.512  14.384  0.00  0.00    +0.000 A 
ATOM      3  N   UNL     1       7.454   5.145  14.773  0.00  0.00    +0.000 NA
ATOM      4  N   UNL     1       7.257   5.833  15.955  0.00  0.00    +0.000 NA
ATOM      5  C   UNL     1       6.036   5.672  16.422  0.00  0.00    +0.000 A 
ATOM      6  S   UNL     1       5.022   4.706  15.427  0.00  0.00    +0.000 S 
BRANCH   2   8
ATOM      7  C   UNL     1       7.397   4.536  11.849  0.00  0.00    +0.000 C 
ATOM      8  S   UNL     1       6.298   3.572  12.911  0.00  0.00    +0.000 S 
ENDBRANCH   2   8
ENDBRANCH   1   5
BRANCH   1   9
ATOM      9  C   UNL     1       4.814   5.207  18.745  0.00  0.00    +0.000 A 
ATOM     10  N   UNL     1       5.409   4.040  18.891  0.00  0.00    +0.000 NA
ATOM     11  C   UNL     1       4.634   3.218  19.694  0.00  0.00    +0.000 A 
ATOM     12  C   UNL     1       3.462   3.785  20.132  0.00  0.00    +0.000 A 
ATOM     13  S   UNL     1       3.303   5.373  19.555  0.00  0.00    +0.000 S 
BRANCH  12  14
ATOM     14  N   UNL     1       2.469   3.182  20.961  0.00  0.00    +0.000 N 
ATOM     15  O   UNL     1       2.886   2.502  21.908  0.00  0.00    +0.000 OA
ATOM     16  O   UNL     1       1.279   3.374  20.684  0.00  0.00    +0.000 OA
ENDBRANCH  12  14
ENDBRANCH   1   9
TORSDOF 4
ENDMDL
MODEL 8
REMARK VINA RESULT:      -5.6      1.263      1.465
REMARK  Name = 
REMARK  5 active torsions:
REMARK  status: ('A' for Active; 'I' for Inactive)
REMARK    1  A    between atoms: C_1  and  S_2
REMARK    2  A    between atoms: S_2  and  C_3
REMARK    3  A    between atoms: C_6  and  S_7
REMARK    4  A    between atoms: S_7  and  C_8
REMARK    5  A    between atoms: C_11  and  N_12
REMARK                            x       y       z     vdW  Elec       q    Type
REMARK                         _______ _______ _______ _____ _____    ______ ____
ROOT
ATOM      1  S   UNL     1       5.886   6.523  17.396  0.00  0.00    +0.000 S 
ENDROOT
BRANCH   1   5
ATOM      2  C   UNL     1       6.581   4.371  13.978  0.00  0.00    +0.000 A 
ATOM      3  N   UNL     1       7.663   5.067  14.250  0.00  0.00    +0.000 NA
ATOM      4  N   UNL     1       7.527   5.802  15.412  0.00  0.00    +0.000 NA
ATOM      5  C   UNL     1       6.356   5.612  15.982  0.00  0.00    +0.000 A 
ATOM      6  S   UNL     1       5.313   4.557  15.117  0.00  0.00    +0.000 S 
BRANCH   2   8
ATOM      7  C   UNL     1       4.695   3.607  12.148  0.00  0.00    +0.000 C 
ATOM      8  S   UNL     1       6.437   3.358  12.558  0.00  0.00    +0.000 S 
ENDBRANCH   2   8
ENDBRANCH   1   5
BRANCH   1   9
ATOM      9  C   UNL     1       4.606   5.487  17.990  0.00  0.00    +0.000 A 
ATOM     10  N   UNL     1       3.331   5.658  17.704  0.00  0.00    +0.000 NA
ATOM     11  C   UNL     1       2.581   4.652  18.294  0.00  0.00    +0.000 A 
ATOM     12  C   UNL     1       3.312   3.745  19.022  0.00  0.00    +0.000 A 
ATOM     13  S   UNL     1       4.966   4.123  18.978  0.00  0.00    +0.000 S 
BRANCH  12  14
ATOM     14  N   UNL     1       2.816   2.615  19.739  0.00  0.00    +0.000 N 
ATOM     15  O   UNL     1       3.196   2.502  20.912  0.00  0.00    +0.000 OA
ATOM     16  O   UNL     1       2.055   1.836  19.153  0.00  0.00    +0.000 OA
ENDBRANCH  12  14
ENDBRANCH   1   9
TORSDOF 4
ENDMDL
MODEL 9
REMARK VINA RESULT:      -5.6      1.535      1.704
REMARK  Name = 
REMARK  5 active torsions:
REMARK  status: ('A' for Active; 'I' for Inactive)
REMARK    1  A    between atoms: C_1  and  S_2
REMARK    2  A    between atoms: S_2  and  C_3
REMARK    3  A    between atoms: C_6  and  S_7
REMARK    4  A    between atoms: S_7  and  C_8
REMARK    5  A    between atoms: C_11  and  N_12
REMARK                            x       y       z     vdW  Elec       q    Type
REMARK                         _______ _______ _______ _____ _____    ______ ____
ROOT
ATOM      1  S   UNL     1       5.328   6.675  17.302  0.00  0.00    +0.000 S 
ENDROOT
BRANCH   1   5
ATOM      2  C   UNL     1       6.571   4.523  14.044  0.00  0.00    +0.000 A 
ATOM      3  N   UNL     1       7.612   5.156  14.537  0.00  0.00    +0.000 NA
ATOM      4  N   UNL     1       7.288   5.885  15.665  0.00  0.00    +0.000 NA
ATOM      5  C   UNL     1       6.019   5.754  15.990  0.00  0.00    +0.000 A 
ATOM      6  S   UNL     1       5.114   4.766  14.915  0.00  0.00    +0.000 S 
BRANCH   2   8
ATOM      7  C   UNL     1       4.910   3.451  12.151  0.00  0.00    +0.000 C 
ATOM      8  S   UNL     1       6.658   3.534  12.603  0.00  0.00    +0.000 S 
ENDBRANCH   2   8
ENDBRANCH   1   5
BRANCH   1   9
ATOM      9  C   UNL     1       4.730   5.359  18.290  0.00  0.00    +0.000 A 
ATOM     10  N   UNL     1       5.410   4.256  18.533  0.00  0.00    +0.000 NA
ATOM     11  C   UNL     1       4.678   3.433  19.375  0.00  0.00    +0.000 A 
ATOM     12  C   UNL     1       3.453   3.934  19.744  0.00  0.00    +0.000 A 
ATOM     13  S   UNL     1       3.188   5.460  19.050  0.00  0.00    +0.000 S 
BRANCH  12  14
ATOM     14  N   UNL     1       2.487   3.314  20.591  0.00  0.00    +0.000 N 
ATOM     15  O   UNL     1       1.305   3.624  20.392  0.00  0.00    +0.000 OA
ATOM     16  O   UNL     1       2.886   2.522  21.454  0.00  0.00    +0.000 OA
ENDBRANCH  12  14
ENDBRANCH   1   9
TORSDOF 4
ENDMDL
