MODEL 1
REMARK VINA RESULT:      -8.0      0.000      0.000
REMARK  Name = 
REMARK  5 active torsions:
REMARK  status: ('A' for Active; 'I' for Inactive)
REMARK    1  A    between atoms: C_1  and  O_2
REMARK    2  A    between atoms: O_2  and  C_3
REMARK    3  A    between atoms: C_8  and  N_9
REMARK    4  A    between atoms: C_12  and  C_13
REMARK    5  A    between atoms: C_18  and  C_19
REMARK                            x       y       z     vdW  Elec       q    Type
REMARK                         _______ _______ _______ _____ _____    ______ ____
ROOT
ATOM      1  N   UNL     1       2.219   6.365  20.476  0.00  0.00    +0.000 N 
ATOM      2  C   UNL     1       3.101   5.456  19.966  0.00  0.00    +0.000 A 
ATOM      3  N   UNL     1       4.172   5.724  19.249  0.00  0.00    +0.000 NA
ATOM      4  C   UNL     1       4.649   4.601  18.606  0.00  0.00    +0.000 A 
ATOM      5  C   UNL     1       4.050   3.425  18.999  0.00  0.00    +0.000 A 
ATOM      6  S   UNL     1       2.852   3.758  20.191  0.00  0.00    +0.000 S 
ATOM      7  H   UNL     1       1.398   5.991  20.945  0.00  0.00    +0.000 HD
ENDROOT
BRANCH   4   8
ATOM      8  C   UNL     1       5.679   4.742  17.528  0.00  0.00    +0.000 A 
ATOM      9  S   UNL     1       5.441   4.359  15.876  0.00  0.00    +0.000 S 
ATOM     10  C   UNL     1       6.986   5.009  15.507  0.00  0.00    +0.000 A 
ATOM     11  N   UNL     1       7.436   5.109  14.245  0.00  0.00    +0.000 N 
ATOM     12  N   UNL     1       7.685   5.413  16.537  0.00  0.00    +0.000 NA
ATOM     13  C   UNL     1       6.952   5.257  17.706  0.00  0.00    +0.000 A 
ATOM     14  C   UNL     1       7.623   5.597  18.989  0.00  0.00    +0.000 C 
ATOM     15  H   UNL     1       6.748   5.185  13.507  0.00  0.00    +0.000 HD
ATOM     16  H   UNL     1       8.227   5.734  14.132  0.00  0.00    +0.000 HD
ENDBRANCH   4   8
BRANCH   1  22
ATOM     17  C   UNL     1       1.317   8.657  20.585  0.00  0.00    +0.000 A 
ATOM     18  C   UNL     1       0.907   9.832  19.931  0.00  0.00    +0.000 A 
ATOM     19  C   UNL     1       1.114   9.995  18.562  0.00  0.00    +0.000 A 
ATOM     20  C   UNL     1       1.764   9.006  17.842  0.00  0.00    +0.000 A 
ATOM     21  C   UNL     1       2.161   7.831  18.482  0.00  0.00    +0.000 A 
ATOM     22  C   UNL     1       1.902   7.604  19.843  0.00  0.00    +0.000 A 
BRANCH  17  24
ATOM     23  C   UNL     1       0.248   9.370  22.572  0.00  0.00    +0.000 C 
ATOM     24  O   UNL     1       1.131   8.449  21.932  0.00  0.00    +0.000 OA
ENDBRANCH  17  24
ENDBRANCH   1  22
TORSDOF 3
ENDMDL
MODEL 2
REMARK VINA RESULT:      -7.0      2.709      6.387
REMARK  Name = 
REMARK  5 active torsions:
REMARK  status: ('A' for Active; 'I' for Inactive)
REMARK    1  A    between atoms: C_1  and  O_2
REMARK    2  A    between atoms: O_2  and  C_3
REMARK    3  A    between atoms: C_8  and  N_9
REMARK    4  A    between atoms: C_12  and  C_13
REMARK    5  A    between atoms: C_18  and  C_19
REMARK                            x       y       z     vdW  Elec       q    Type
REMARK                         _______ _______ _______ _____ _____    ______ ____
ROOT
ATOM      1  N   UNL     1       4.250   3.404  17.793  0.00  0.00    +0.000 N 
ATOM      2  C   UNL     1       3.435   4.199  18.547  0.00  0.00    +0.000 A 
ATOM      3  N   UNL     1       2.961   5.379  18.208  0.00  0.00    +0.000 NA
ATOM      4  C   UNL     1       2.468   6.064  19.299  0.00  0.00    +0.000 A 
ATOM      5  C   UNL     1       2.384   5.312  20.449  0.00  0.00    +0.000 A 
ATOM      6  S   UNL     1       2.958   3.718  20.140  0.00  0.00    +0.000 S 
ATOM      7  H   UNL     1       4.591   2.553  18.231  0.00  0.00    +0.000 HD
ENDROOT
BRANCH   4   8
ATOM      8  C   UNL     1       2.145   7.521  19.179  0.00  0.00    +0.000 A 
ATOM      9  S   UNL     1       2.529   8.512  17.836  0.00  0.00    +0.000 S 
ATOM     10  C   UNL     1       1.636   9.800  18.537  0.00  0.00    +0.000 A 
ATOM     11  N   UNL     1       1.442  10.965  17.898  0.00  0.00    +0.000 N 
ATOM     12  N   UNL     1       1.147   9.561  19.726  0.00  0.00    +0.000 NA
ATOM     13  C   UNL     1       1.439   8.259  20.114  0.00  0.00    +0.000 A 
ATOM     14  C   UNL     1       1.023   7.837  21.477  0.00  0.00    +0.000 C 
ATOM     15  H   UNL     1       1.461  10.954  16.886  0.00  0.00    +0.000 HD
ATOM     16  H   UNL     1       0.697  11.536  18.285  0.00  0.00    +0.000 HD
ENDBRANCH   4   8
BRANCH   1  22
ATOM     17  C   UNL     1       6.455   4.412  17.343  0.00  0.00    +0.000 A 
ATOM     18  C   UNL     1       7.355   5.007  16.442  0.00  0.00    +0.000 A 
ATOM     19  C   UNL     1       7.068   5.063  15.078  0.00  0.00    +0.000 A 
ATOM     20  C   UNL     1       5.900   4.494  14.598  0.00  0.00    +0.000 A 
ATOM     21  C   UNL     1       4.995   3.915  15.488  0.00  0.00    +0.000 A 
ATOM     22  C   UNL     1       5.219   3.907  16.874  0.00  0.00    +0.000 A 
BRANCH  17  24
ATOM     23  C   UNL     1       7.065   5.567  19.315  0.00  0.00    +0.000 C 
ATOM     24  O   UNL     1       6.692   4.338  18.696  0.00  0.00    +0.000 OA
ENDBRANCH  17  24
ENDBRANCH   1  22
TORSDOF 3
ENDMDL
MODEL 3
REMARK VINA RESULT:      -6.6      3.505      7.560
REMARK  Name = 
REMARK  5 active torsions:
REMARK  status: ('A' for Active; 'I' for Inactive)
REMARK    1  A    between atoms: C_1  and  O_2
REMARK    2  A    between atoms: O_2  and  C_3
REMARK    3  A    between atoms: C_8  and  N_9
REMARK    4  A    between atoms: C_12  and  C_13
REMARK    5  A    between atoms: C_18  and  C_19
REMARK                            x       y       z     vdW  Elec       q    Type
REMARK                         _______ _______ _______ _____ _____    ______ ____
ROOT
ATOM      1  N   UNL     1       3.222   5.658  18.929  0.00  0.00    +0.000 N 
ATOM      2  C   UNL     1       2.806   6.957  18.895  0.00  0.00    +0.000 A 
ATOM      3  N   UNL     1       2.180   7.604  19.856  0.00  0.00    +0.000 NA
ATOM      4  C   UNL     1       1.600   8.767  19.395  0.00  0.00    +0.000 A 
ATOM      5  C   UNL     1       1.959   9.109  18.110  0.00  0.00    +0.000 A 
ATOM      6  S   UNL     1       3.036   7.923  17.477  0.00  0.00    +0.000 S 
ATOM      7  H   UNL     1       3.624   5.284  18.073  0.00  0.00    +0.000 HD
ENDROOT
BRANCH   4   8
ATOM      8  C   UNL     1       0.614   9.497  20.252  0.00  0.00    +0.000 A 
ATOM      9  S   UNL     1       0.655   9.573  21.962  0.00  0.00    +0.000 S 
ATOM     10  C   UNL     1      -0.640  10.699  21.940  0.00  0.00    +0.000 A 
ATOM     11  N   UNL     1      -1.095  11.288  23.058  0.00  0.00    +0.000 N 
ATOM     12  N   UNL     1      -1.142  10.953  20.758  0.00  0.00    +0.000 NA
ATOM     13  C   UNL     1      -0.439  10.262  19.779  0.00  0.00    +0.000 A 
ATOM     14  C   UNL     1      -0.922  10.374  18.377  0.00  0.00    +0.000 C 
ATOM     15  H   UNL     1      -0.448  11.390  23.830  0.00  0.00    +0.000 HD
ATOM     16  H   UNL     1      -1.667  12.110  22.895  0.00  0.00    +0.000 HD
ENDBRANCH   4   8
BRANCH   1  22
ATOM     17  C   UNL     1       1.676   3.737  18.968  0.00  0.00    +0.000 A 
ATOM     18  C   UNL     1       0.928   2.796  19.699  0.00  0.00    +0.000 A 
ATOM     19  C   UNL     1       1.065   2.695  21.082  0.00  0.00    +0.000 A 
ATOM     20  C   UNL     1       1.976   3.503  21.744  0.00  0.00    +0.000 A 
ATOM     21  C   UNL     1       2.711   4.448  21.028  0.00  0.00    +0.000 A 
ATOM     22  C   UNL     1       2.543   4.626  19.645  0.00  0.00    +0.000 A 
BRANCH  17  24
ATOM     23  C   UNL     1       2.574   3.202  16.846  0.00  0.00    +0.000 C 
ATOM     24  O   UNL     1       1.571   3.877  17.604  0.00  0.00    +0.000 OA
ENDBRANCH  17  24
ENDBRANCH   1  22
TORSDOF 3
ENDMDL
MODEL 4
REMARK VINA RESULT:      -6.6      3.120      6.730
REMARK  Name = 
REMARK  5 active torsions:
REMARK  status: ('A' for Active; 'I' for Inactive)
REMARK    1  A    between atoms: C_1  and  O_2
REMARK    2  A    between atoms: O_2  and  C_3
REMARK    3  A    between atoms: C_8  and  N_9
REMARK    4  A    between atoms: C_12  and  C_13
REMARK    5  A    between atoms: C_18  and  C_19
REMARK                            x       y       z     vdW  Elec       q    Type
REMARK                         _______ _______ _______ _____ _____    ______ ____
ROOT
ATOM      1  N   UNL     1       4.986   7.068  16.589  0.00  0.00    +0.000 N 
ATOM      2  C   UNL     1       4.070   6.887  17.585  0.00  0.00    +0.000 A 
ATOM      3  N   UNL     1       3.997   5.857  18.402  0.00  0.00    +0.000 NA
ATOM      4  C   UNL     1       2.780   5.806  19.050  0.00  0.00    +0.000 A 
ATOM      5  C   UNL     1       1.996   6.923  18.872  0.00  0.00    +0.000 A 
ATOM      6  S   UNL     1       2.812   8.045  17.851  0.00  0.00    +0.000 S 
ATOM      7  H   UNL     1       4.860   7.883  15.995  0.00  0.00    +0.000 HD
ENDROOT
BRANCH   4   8
ATOM      8  C   UNL     1       2.389   4.571  19.801  0.00  0.00    +0.000 A 
ATOM      9  S   UNL     1       2.286   4.440  21.505  0.00  0.00    +0.000 S 
ATOM     10  C   UNL     1       1.625   2.865  21.340  0.00  0.00    +0.000 A 
ATOM     11  N   UNL     1       1.198   2.155  22.397  0.00  0.00    +0.000 N 
ATOM     12  N   UNL     1       1.554   2.412  20.114  0.00  0.00    +0.000 NA
ATOM     13  C   UNL     1       1.998   3.377  19.219  0.00  0.00    +0.000 A 
ATOM     14  C   UNL     1       2.057   3.005  17.780  0.00  0.00    +0.000 C 
ATOM     15  H   UNL     1       0.890   2.669  23.213  0.00  0.00    +0.000 HD
ATOM     16  H   UNL     1       0.599   1.370  22.160  0.00  0.00    +0.000 HD
ENDBRANCH   4   8
BRANCH   1  22
ATOM     17  C   UNL     1       6.888   5.572  16.113  0.00  0.00    +0.000 A 
ATOM     18  C   UNL     1       7.490   4.597  15.299  0.00  0.00    +0.000 A 
ATOM     19  C   UNL     1       6.784   4.006  14.253  0.00  0.00    +0.000 A 
ATOM     20  C   UNL     1       5.461   4.354  14.033  0.00  0.00    +0.000 A 
ATOM     21  C   UNL     1       4.862   5.333  14.827  0.00  0.00    +0.000 A 
ATOM     22  C   UNL     1       5.567   6.000  15.842  0.00  0.00    +0.000 A 
BRANCH  17  24
ATOM     23  C   UNL     1       7.629   5.421  18.355  0.00  0.00    +0.000 C 
ATOM     24  O   UNL     1       7.546   6.186  17.154  0.00  0.00    +0.000 OA
ENDBRANCH  17  24
ENDBRANCH   1  22
TORSDOF 3
ENDMDL
MODEL 5
REMARK VINA RESULT:      -6.6      2.700      6.383
REMARK  Name = 
REMARK  5 active torsions:
REMARK  status: ('A' for Active; 'I' for Inactive)
REMARK    1  A    between atoms: C_1  and  O_2
REMARK    2  A    between atoms: O_2  and  C_3
REMARK    3  A    between atoms: C_8  and  N_9
REMARK    4  A    between atoms: C_12  and  C_13
REMARK    5  A    between atoms: C_18  and  C_19
REMARK                            x       y       z     vdW  Elec       q    Type
REMARK                         _______ _______ _______ _____ _____    ______ ____
ROOT
ATOM      1  N   UNL     1       4.323   3.312  18.091  0.00  0.00    +0.000 N 
ATOM      2  C   UNL     1       3.460   3.957  18.930  0.00  0.00    +0.000 A 
ATOM      3  N   UNL     1       2.864   5.109  18.704  0.00  0.00    +0.000 NA
ATOM      4  C   UNL     1       2.340   5.648  19.860  0.00  0.00    +0.000 A 
ATOM      5  C   UNL     1       2.366   4.799  20.944  0.00  0.00    +0.000 A 
ATOM      6  S   UNL     1       3.082   3.301  20.487  0.00  0.00    +0.000 S 
ATOM      7  H   UNL     1       4.759   2.466  18.447  0.00  0.00    +0.000 HD
ENDROOT
BRANCH   4   8
ATOM      8  C   UNL     1       1.875   7.071  19.873  0.00  0.00    +0.000 A 
ATOM      9  S   UNL     1       0.982   7.809  21.134  0.00  0.00    +0.000 S 
ATOM     10  C   UNL     1       1.130   9.326  20.345  0.00  0.00    +0.000 A 
ATOM     11  N   UNL     1       0.678  10.465  20.897  0.00  0.00    +0.000 N 
ATOM     12  N   UNL     1       1.726   9.298  19.181  0.00  0.00    +0.000 NA
ATOM     13  C   UNL     1       2.151   8.008  18.890  0.00  0.00    +0.000 A 
ATOM     14  C   UNL     1       2.785   7.774  17.566  0.00  0.00    +0.000 C 
ATOM     15  H   UNL     1       0.622  10.507  21.906  0.00  0.00    +0.000 HD
ATOM     16  H   UNL     1       1.048  11.310  20.473  0.00  0.00    +0.000 HD
ENDBRANCH   4   8
BRANCH   1  22
ATOM     17  C   UNL     1       6.355   4.651  17.691  0.00  0.00    +0.000 A 
ATOM     18  C   UNL     1       7.160   5.402  16.816  0.00  0.00    +0.000 A 
ATOM     19  C   UNL     1       6.872   5.458  15.453  0.00  0.00    +0.000 A 
ATOM     20  C   UNL     1       5.804   4.737  14.945  0.00  0.00    +0.000 A 
ATOM     21  C   UNL     1       4.992   4.002  15.810  0.00  0.00    +0.000 A 
ATOM     22  C   UNL     1       5.209   3.983  17.197  0.00  0.00    +0.000 A 
BRANCH  17  24
ATOM     23  C   UNL     1       7.452   5.582  19.569  0.00  0.00    +0.000 C 
ATOM     24  O   UNL     1       6.596   4.569  19.043  0.00  0.00    +0.000 OA
ENDBRANCH  17  24
ENDBRANCH   1  22
TORSDOF 3
ENDMDL
MODEL 6
REMARK VINA RESULT:      -6.4      1.428      1.822
REMARK  Name = 
REMARK  5 active torsions:
REMARK  status: ('A' for Active; 'I' for Inactive)
REMARK    1  A    between atoms: C_1  and  O_2
REMARK    2  A    between atoms: O_2  and  C_3
REMARK    3  A    between atoms: C_8  and  N_9
REMARK    4  A    between atoms: C_12  and  C_13
REMARK    5  A    between atoms: C_18  and  C_19
REMARK                            x       y       z     vdW  Elec       q    Type
REMARK                         _______ _______ _______ _____ _____    ______ ____
ROOT
ATOM      1  N   UNL     1       1.391   7.273  20.973  0.00  0.00    +0.000 N 
ATOM      2  C   UNL     1       2.167   6.308  20.400  0.00  0.00    +0.000 A 
ATOM      3  N   UNL     1       3.304   6.495  19.763  0.00  0.00    +0.000 NA
ATOM      4  C   UNL     1       3.658   5.390  19.017  0.00  0.00    +0.000 A 
ATOM      5  C   UNL     1       2.881   4.277  19.248  0.00  0.00    +0.000 A 
ATOM      6  S   UNL     1       1.674   4.648  20.418  0.00  0.00    +0.000 S 
ATOM      7  H   UNL     1       0.501   6.973  21.362  0.00  0.00    +0.000 HD
ENDROOT
BRANCH   4   8
ATOM      8  C   UNL     1       4.757   5.497  18.005  0.00  0.00    +0.000 A 
ATOM      9  S   UNL     1       6.125   4.472  17.919  0.00  0.00    +0.000 S 
ATOM     10  C   UNL     1       6.593   5.226  16.451  0.00  0.00    +0.000 A 
ATOM     11  N   UNL     1       7.647   4.802  15.733  0.00  0.00    +0.000 N 
ATOM     12  N   UNL     1       5.845   6.231  16.073  0.00  0.00    +0.000 NA
ATOM     13  C   UNL     1       4.792   6.406  16.961  0.00  0.00    +0.000 A 
ATOM     14  C   UNL     1       3.878   7.556  16.728  0.00  0.00    +0.000 C 
ATOM     15  H   UNL     1       7.913   3.829  15.823  0.00  0.00    +0.000 HD
ATOM     16  H   UNL     1       7.667   5.143  14.777  0.00  0.00    +0.000 HD
ENDBRANCH   4   8
BRANCH   1  22
ATOM     17  C   UNL     1       1.081   9.688  21.362  0.00  0.00    +0.000 A 
ATOM     18  C   UNL     1       0.867  10.981  20.853  0.00  0.00    +0.000 A 
ATOM     19  C   UNL     1       0.899  11.222  19.480  0.00  0.00    +0.000 A 
ATOM     20  C   UNL     1       1.183  10.184  18.606  0.00  0.00    +0.000 A 
ATOM     21  C   UNL     1       1.383   8.896  19.104  0.00  0.00    +0.000 A 
ATOM     22  C   UNL     1       1.284   8.606  20.474  0.00  0.00    +0.000 A 
BRANCH  17  24
ATOM     23  C   UNL     1      -0.203   9.613  23.347  0.00  0.00    +0.000 C 
ATOM     24  O   UNL     1       1.055   9.402  22.707  0.00  0.00    +0.000 OA
ENDBRANCH  17  24
ENDBRANCH   1  22
TORSDOF 3
ENDMDL
MODEL 7
REMARK VINA RESULT:      -6.4      4.216      7.374
REMARK  Name = 
REMARK  5 active torsions:
REMARK  status: ('A' for Active; 'I' for Inactive)
REMARK    1  A    between atoms: C_1  and  O_2
REMARK    2  A    between atoms: O_2  and  C_3
REMARK    3  A    between atoms: C_8  and  N_9
REMARK    4  A    between atoms: C_12  and  C_13
REMARK    5  A    between atoms: C_18  and  C_19
REMARK                            x       y       z     vdW  Elec       q    Type
REMARK                         _______ _______ _______ _____ _____    ______ ____
ROOT
ATOM      1  N   UNL     1       1.802   6.936  21.090  0.00  0.00    +0.000 N 
ATOM      2  C   UNL     1       1.138   8.129  21.095  0.00  0.00    +0.000 A 
ATOM      3  N   UNL     1       0.297   8.559  20.178  0.00  0.00    +0.000 NA
ATOM      4  C   UNL     1       0.068   9.915  20.291  0.00  0.00    +0.000 A 
ATOM      5  C   UNL     1       0.587  10.484  21.432  0.00  0.00    +0.000 A 
ATOM      6  S   UNL     1       1.392   9.279  22.364  0.00  0.00    +0.000 S 
ATOM      7  H   UNL     1       2.476   6.786  21.836  0.00  0.00    +0.000 HD
ENDROOT
BRANCH   4   8
ATOM      8  C   UNL     1      -0.627  10.646  19.185  0.00  0.00    +0.000 A 
ATOM      9  S   UNL     1      -1.950  10.045  18.280  0.00  0.00    +0.000 S 
ATOM     10  C   UNL     1      -2.108  11.569  17.506  0.00  0.00    +0.000 A 
ATOM     11  N   UNL     1      -3.108  11.835  16.648  0.00  0.00    +0.000 N 
ATOM     12  N   UNL     1      -1.199  12.455  17.821  0.00  0.00    +0.000 NA
ATOM     13  C   UNL     1      -0.334  11.937  18.777  0.00  0.00    +0.000 A 
ATOM     14  C   UNL     1       0.813  12.784  19.200  0.00  0.00    +0.000 C 
ATOM     15  H   UNL     1      -3.969  11.315  16.757  0.00  0.00    +0.000 HD
ATOM     16  H   UNL     1      -3.249  12.823  16.464  0.00  0.00    +0.000 HD
ENDBRANCH   4   8
BRANCH   1  22
ATOM     17  C   UNL     1       1.829   4.933  19.653  0.00  0.00    +0.000 A 
ATOM     18  C   UNL     1       2.341   4.247  18.537  0.00  0.00    +0.000 A 
ATOM     19  C   UNL     1       3.199   4.883  17.642  0.00  0.00    +0.000 A 
ATOM     20  C   UNL     1       3.525   6.217  17.829  0.00  0.00    +0.000 A 
ATOM     21  C   UNL     1       3.032   6.899  18.943  0.00  0.00    +0.000 A 
ATOM     22  C   UNL     1       2.225   6.268  19.903  0.00  0.00    +0.000 A 
BRANCH  17  24
ATOM     23  C   UNL     1       1.384   3.057  21.024  0.00  0.00    +0.000 C 
ATOM     24  O   UNL     1       0.983   4.347  20.566  0.00  0.00    +0.000 OA
ENDBRANCH  17  24
ENDBRANCH   1  22
TORSDOF 3
ENDMDL
MODEL 8
REMARK VINA RESULT:      -6.4      1.464      1.973
REMARK  Name = 
REMARK  5 active torsions:
REMARK  status: ('A' for Active; 'I' for Inactive)
REMARK    1  A    between atoms: C_1  and  O_2
REMARK    2  A    between atoms: O_2  and  C_3
REMARK    3  A    between atoms: C_8  and  N_9
REMARK    4  A    between atoms: C_12  and  C_13
REMARK    5  A    between atoms: C_18  and  C_19
REMARK                            x       y       z     vdW  Elec       q    Type
REMARK                         _______ _______ _______ _____ _____    ______ ____
ROOT
ATOM      1  N   UNL     1       1.509   7.375  21.020  0.00  0.00    +0.000 N 
ATOM      2  C   UNL     1       2.181   6.321  20.472  0.00  0.00    +0.000 A 
ATOM      3  N   UNL     1       3.209   6.392  19.651  0.00  0.00    +0.000 NA
ATOM      4  C   UNL     1       3.436   5.189  19.015  0.00  0.00    +0.000 A 
ATOM      5  C   UNL     1       2.697   4.138  19.508  0.00  0.00    +0.000 A 
ATOM      6  S   UNL     1       1.685   4.693  20.787  0.00  0.00    +0.000 S 
ATOM      7  H   UNL     1       0.686   7.153  21.575  0.00  0.00    +0.000 HD
ENDROOT
BRANCH   4   8
ATOM      8  C   UNL     1       4.369   5.131  17.845  0.00  0.00    +0.000 A 
ATOM      9  S   UNL     1       5.660   6.218  17.554  0.00  0.00    +0.000 S 
ATOM     10  C   UNL     1       6.167   5.253  16.228  0.00  0.00    +0.000 A 
ATOM     11  N   UNL     1       7.288   5.522  15.537  0.00  0.00    +0.000 N 
ATOM     12  N   UNL     1       5.397   4.233  15.949  0.00  0.00    +0.000 NA
ATOM     13  C   UNL     1       4.353   4.155  16.863  0.00  0.00    +0.000 A 
ATOM     14  C   UNL     1       3.332   3.095  16.653  0.00  0.00    +0.000 C 
ATOM     15  H   UNL     1       8.027   6.018  16.017  0.00  0.00    +0.000 HD
ATOM     16  H   UNL     1       7.619   4.753  14.963  0.00  0.00    +0.000 HD
ENDBRANCH   4   8
BRANCH   1  22
ATOM     17  C   UNL     1       1.040   9.794  21.119  0.00  0.00    +0.000 A 
ATOM     18  C   UNL     1       0.763  11.004  20.459  0.00  0.00    +0.000 A 
ATOM     19  C   UNL     1       0.823  11.088  19.069  0.00  0.00    +0.000 A 
ATOM     20  C   UNL     1       1.196   9.978  18.328  0.00  0.00    +0.000 A 
ATOM     21  C   UNL     1       1.459   8.770  18.976  0.00  0.00    +0.000 A 
ATOM     22  C   UNL     1       1.336   8.632  20.368  0.00  0.00    +0.000 A 
BRANCH  17  24
ATOM     23  C   UNL     1      -0.311   9.776  23.060  0.00  0.00    +0.000 C 
ATOM     24  O   UNL     1       0.990   9.661  22.487  0.00  0.00    +0.000 OA
ENDBRANCH  17  24
ENDBRANCH   1  22
TORSDOF 3
ENDMDL
MODEL 9
REMARK VINA RESULT:      -6.3      2.711      6.732
REMARK  Name = 
REMARK  5 active torsions:
REMARK  status: ('A' for Active; 'I' for Inactive)
REMARK    1  A    between atoms: C_1  and  O_2
REMARK    2  A    between atoms: O_2  and  C_3
REMARK    3  A    between atoms: C_8  and  N_9
REMARK    4  A    between atoms: C_12  and  C_13
REMARK    5  A    between atoms: C_18  and  C_19
REMARK                            x       y       z     vdW  Elec       q    Type
REMARK                         _______ _______ _______ _____ _____    ______ ____
ROOT
ATOM      1  N   UNL     1       4.565   4.498  18.816  0.00  0.00    +0.000 N 
ATOM      2  C   UNL     1       3.414   5.005  19.347  0.00  0.00    +0.000 A 
ATOM      3  N   UNL     1       2.925   6.210  19.144  0.00  0.00    +0.000 NA
ATOM      4  C   UNL     1       1.958   6.531  20.074  0.00  0.00    +0.000 A 
ATOM      5  C   UNL     1       1.566   5.479  20.870  0.00  0.00    +0.000 A 
ATOM      6  S   UNL     1       2.455   4.067  20.441  0.00  0.00    +0.000 S 
ATOM      7  H   UNL     1       4.845   3.573  19.133  0.00  0.00    +0.000 HD
ENDROOT
BRANCH   4   8
ATOM      8  C   UNL     1       1.481   7.945  20.194  0.00  0.00    +0.000 A 
ATOM      9  S   UNL     1       0.875   8.667  21.623  0.00  0.00    +0.000 S 
ATOM     10  C   UNL     1       0.819  10.187  20.827  0.00  0.00    +0.000 A 
ATOM     11  N   UNL     1       0.479  11.318  21.468  0.00  0.00    +0.000 N 
ATOM     12  N   UNL     1       1.144  10.168  19.559  0.00  0.00    +0.000 NA
ATOM     13  C   UNL     1       1.517   8.886  19.178  0.00  0.00    +0.000 A 
ATOM     14  C   UNL     1       1.847   8.663  17.745  0.00  0.00    +0.000 C 
ATOM     15  H   UNL     1       0.647  11.359  22.465  0.00  0.00    +0.000 HD
ATOM     16  H   UNL     1       0.732  12.169  20.976  0.00  0.00    +0.000 HD
ENDBRANCH   4   8
BRANCH   1  22
ATOM     17  C   UNL     1       5.892   5.843  17.232  0.00  0.00    +0.000 A 
ATOM     18  C   UNL     1       7.082   6.524  16.918  0.00  0.00    +0.000 A 
ATOM     19  C   UNL     1       8.077   6.701  17.878  0.00  0.00    +0.000 A 
ATOM     20  C   UNL     1       7.879   6.235  19.168  0.00  0.00    +0.000 A 
ATOM     21  C   UNL     1       6.707   5.546  19.483  0.00  0.00    +0.000 A 
ATOM     22  C   UNL     1       5.717   5.286  18.521  0.00  0.00    +0.000 A 
BRANCH  17  24
ATOM     23  C   UNL     1       5.232   4.819  15.204  0.00  0.00    +0.000 C 
ATOM     24  O   UNL     1       4.885   5.640  16.318  0.00  0.00    +0.000 OA
ENDBRANCH  17  24
ENDBRANCH   1  22
TORSDOF 3
ENDMDL
