MODEL 1
REMARK VINA RESULT:      -8.1      0.000      0.000
REMARK  Name = 
REMARK  6 active torsions:
REMARK  status: ('A' for Active; 'I' for Inactive)
REMARK    1  A    between atoms: C_1  and  C_2
REMARK    2  A    between atoms: N_4  and  C_5
REMARK    3  A    between atoms: C_10  and  N_11
REMARK    4  A    between atoms: N_11  and  S_12
REMARK    5  A    between atoms: S_12  and  C_15
REMARK    6  A    between atoms: C_20  and  N_21
REMARK                            x       y       z     vdW  Elec       q    Type
REMARK                         _______ _______ _______ _____ _____    ______ ____
ROOT
ATOM      1  N   UNL     1       5.349   3.819  17.820  0.00  0.00    +0.000 N 
ATOM      2  H   UNL     1       5.953   3.236  18.409  0.00  0.00    +0.000 HD
ENDROOT
BRANCH   1   8
ATOM      3  C   UNL     1       6.956   4.892  16.220  0.00  0.00    +0.000 A 
ATOM      4  C   UNL     1       7.281   5.158  14.877  0.00  0.00    +0.000 A 
ATOM      5  C   UNL     1       6.570   4.570  13.829  0.00  0.00    +0.000 A 
ATOM      6  C   UNL     1       5.530   3.702  14.108  0.00  0.00    +0.000 A 
ATOM      7  C   UNL     1       5.167   3.463  15.435  0.00  0.00    +0.000 A 
ATOM      8  C   UNL     1       5.850   4.062  16.499  0.00  0.00    +0.000 A 
BRANCH   3  12
ATOM      9  C   UNL     1       8.311   7.314  18.776  0.00  0.00    +0.000 C 
ATOM     10  C   UNL     1       7.602   6.875  17.525  0.00  0.00    +0.000 C 
ATOM     11  O   UNL     1       7.015   7.703  16.830  0.00  0.00    +0.000 OA
ATOM     12  N   UNL     1       7.687   5.519  17.257  0.00  0.00    +0.000 N 
ATOM     13  H   UNL     1       8.509   5.027  17.594  0.00  0.00    +0.000 HD
ENDBRANCH   3  12
ENDBRANCH   1   8
BRANCH   1  14
ATOM     14  S   UNL     1       4.662   5.039  18.757  0.00  0.00    +0.000 S 
ATOM     15  O   UNL     1       5.647   5.408  19.752  0.00  0.00    +0.000 OA
ATOM     16  O   UNL     1       4.131   6.034  17.851  0.00  0.00    +0.000 OA
BRANCH  14  17
ATOM     17  C   UNL     1       3.266   4.335  19.595  0.00  0.00    +0.000 A 
ATOM     18  C   UNL     1       2.132   5.146  19.778  0.00  0.00    +0.000 A 
ATOM     19  C   UNL     1       0.985   4.642  20.402  0.00  0.00    +0.000 A 
ATOM     20  C   UNL     1       0.959   3.330  20.867  0.00  0.00    +0.000 A 
ATOM     21  C   UNL     1       2.052   2.495  20.644  0.00  0.00    +0.000 A 
ATOM     22  C   UNL     1       3.187   2.987  19.967  0.00  0.00    +0.000 A 
BRANCH  22  23
ATOM     23  N   UNL     1       4.211   2.008  19.618  0.00  0.00    +0.000 N 
ATOM     24  O   UNL     1       5.182   1.885  20.374  0.00  0.00    +0.000 OA
ATOM     25  O   UNL     1       4.001   1.310  18.617  0.00  0.00    +0.000 OA
ENDBRANCH  22  23
ENDBRANCH  14  17
ENDBRANCH   1  14
TORSDOF 5
ENDMDL
MODEL 2
REMARK VINA RESULT:      -7.9      2.229      6.205
REMARK  Name = 
REMARK  6 active torsions:
REMARK  status: ('A' for Active; 'I' for Inactive)
REMARK    1  A    between atoms: C_1  and  C_2
REMARK    2  A    between atoms: N_4  and  C_5
REMARK    3  A    between atoms: C_10  and  N_11
REMARK    4  A    between atoms: N_11  and  S_12
REMARK    5  A    between atoms: S_12  and  C_15
REMARK    6  A    between atoms: C_20  and  N_21
REMARK                            x       y       z     vdW  Elec       q    Type
REMARK                         _______ _______ _______ _____ _____    ______ ____
ROOT
ATOM      1  N   UNL     1       3.070   5.142  18.175  0.00  0.00    +0.000 N 
ATOM      2  H   UNL     1       2.858   5.045  17.177  0.00  0.00    +0.000 HD
ENDROOT
BRANCH   1   8
ATOM      3  C   UNL     1       2.199   6.439  20.137  0.00  0.00    +0.000 A 
ATOM      4  C   UNL     1       1.611   7.634  20.593  0.00  0.00    +0.000 A 
ATOM      5  C   UNL     1       1.456   8.735  19.748  0.00  0.00    +0.000 A 
ATOM      6  C   UNL     1       1.894   8.659  18.438  0.00  0.00    +0.000 A 
ATOM      7  C   UNL     1       2.437   7.466  17.958  0.00  0.00    +0.000 A 
ATOM      8  C   UNL     1       2.578   6.344  18.782  0.00  0.00    +0.000 A 
BRANCH   3  12
ATOM      9  C   UNL     1       2.011   3.052  21.789  0.00  0.00    +0.000 C 
ATOM     10  C   UNL     1       1.604   4.166  20.864  0.00  0.00    +0.000 C 
ATOM     11  O   UNL     1       0.689   3.991  20.060  0.00  0.00    +0.000 OA
ATOM     12  N   UNL     1       2.324   5.338  21.017  0.00  0.00    +0.000 N 
ATOM     13  H   UNL     1       2.708   5.534  21.937  0.00  0.00    +0.000 HD
ENDBRANCH   3  12
ENDBRANCH   1   8
BRANCH   1  14
ATOM     14  S   UNL     1       4.618   4.552  18.478  0.00  0.00    +0.000 S 
ATOM     15  O   UNL     1       5.252   5.486  19.385  0.00  0.00    +0.000 OA
ATOM     16  O   UNL     1       4.486   3.157  18.842  0.00  0.00    +0.000 OA
BRANCH  14  17
ATOM     17  C   UNL     1       5.504   4.583  16.942  0.00  0.00    +0.000 A 
ATOM     18  C   UNL     1       4.775   4.370  15.760  0.00  0.00    +0.000 A 
ATOM     19  C   UNL     1       5.406   4.414  14.512  0.00  0.00    +0.000 A 
ATOM     20  C   UNL     1       6.775   4.654  14.426  0.00  0.00    +0.000 A 
ATOM     21  C   UNL     1       7.503   4.925  15.584  0.00  0.00    +0.000 A 
ATOM     22  C   UNL     1       6.855   4.933  16.837  0.00  0.00    +0.000 A 
BRANCH  22  23
ATOM     23  N   UNL     1       7.644   5.397  17.973  0.00  0.00    +0.000 N 
ATOM     24  O   UNL     1       7.732   6.616  18.163  0.00  0.00    +0.000 OA
ATOM     25  O   UNL     1       8.117   4.529  18.718  0.00  0.00    +0.000 OA
ENDBRANCH  22  23
ENDBRANCH  14  17
ENDBRANCH   1  14
TORSDOF 5
ENDMDL
MODEL 3
REMARK VINA RESULT:      -7.9      0.981      1.136
REMARK  Name = 
REMARK  6 active torsions:
REMARK  status: ('A' for Active; 'I' for Inactive)
REMARK    1  A    between atoms: C_1  and  C_2
REMARK    2  A    between atoms: N_4  and  C_5
REMARK    3  A    between atoms: C_10  and  N_11
REMARK    4  A    between atoms: N_11  and  S_12
REMARK    5  A    between atoms: S_12  and  C_15
REMARK    6  A    between atoms: C_20  and  N_21
REMARK                            x       y       z     vdW  Elec       q    Type
REMARK                         _______ _______ _______ _____ _____    ______ ____
ROOT
ATOM      1  N   UNL     1       5.325   3.831  17.684  0.00  0.00    +0.000 N 
ATOM      2  H   UNL     1       5.962   3.359  18.333  0.00  0.00    +0.000 HD
ENDROOT
BRANCH   1   8
ATOM      3  C   UNL     1       6.986   4.908  16.144  0.00  0.00    +0.000 A 
ATOM      4  C   UNL     1       7.355   5.183  14.814  0.00  0.00    +0.000 A 
ATOM      5  C   UNL     1       6.676   4.605  13.739  0.00  0.00    +0.000 A 
ATOM      6  C   UNL     1       5.624   3.740  13.979  0.00  0.00    +0.000 A 
ATOM      7  C   UNL     1       5.218   3.493  15.291  0.00  0.00    +0.000 A 
ATOM      8  C   UNL     1       5.869   4.082  16.380  0.00  0.00    +0.000 A 
BRANCH   3  12
ATOM      9  C   UNL     1       8.258   7.301  18.770  0.00  0.00    +0.000 C 
ATOM     10  C   UNL     1       7.583   6.876  17.495  0.00  0.00    +0.000 C 
ATOM     11  O   UNL     1       7.007   7.710  16.798  0.00  0.00    +0.000 OA
ATOM     12  N   UNL     1       7.686   5.525  17.208  0.00  0.00    +0.000 N 
ATOM     13  H   UNL     1       8.504   5.034  17.558  0.00  0.00    +0.000 HD
ENDBRANCH   3  12
ENDBRANCH   1   8
BRANCH   1  14
ATOM     14  S   UNL     1       4.429   4.987  18.519  0.00  0.00    +0.000 S 
ATOM     15  O   UNL     1       5.339   5.640  19.437  0.00  0.00    +0.000 OA
ATOM     16  O   UNL     1       3.701   5.763  17.538  0.00  0.00    +0.000 OA
BRANCH  14  17
ATOM     17  C   UNL     1       3.209   4.121  19.472  0.00  0.00    +0.000 A 
ATOM     18  C   UNL     1       2.722   4.742  20.634  0.00  0.00    +0.000 A 
ATOM     19  C   UNL     1       1.735   4.128  21.414  0.00  0.00    +0.000 A 
ATOM     20  C   UNL     1       1.234   2.879  21.055  0.00  0.00    +0.000 A 
ATOM     21  C   UNL     1       1.665   2.274  19.875  0.00  0.00    +0.000 A 
ATOM     22  C   UNL     1       2.620   2.919  19.062  0.00  0.00    +0.000 A 
BRANCH  22  23
ATOM     23  N   UNL     1       2.886   2.309  17.763  0.00  0.00    +0.000 N 
ATOM     24  O   UNL     1       3.648   1.336  17.722  0.00  0.00    +0.000 OA
ATOM     25  O   UNL     1       2.268   2.766  16.793  0.00  0.00    +0.000 OA
ENDBRANCH  22  23
ENDBRANCH  14  17
ENDBRANCH   1  14
TORSDOF 5
ENDMDL
MODEL 4
REMARK VINA RESULT:      -7.6      1.512      1.973
REMARK  Name = 
REMARK  6 active torsions:
REMARK  status: ('A' for Active; 'I' for Inactive)
REMARK    1  A    between atoms: C_1  and  C_2
REMARK    2  A    between atoms: N_4  and  C_5
REMARK    3  A    between atoms: C_10  and  N_11
REMARK    4  A    between atoms: N_11  and  S_12
REMARK    5  A    between atoms: S_12  and  C_15
REMARK    6  A    between atoms: C_20  and  N_21
REMARK                            x       y       z     vdW  Elec       q    Type
REMARK                         _______ _______ _______ _____ _____    ______ ____
ROOT
ATOM      1  N   UNL     1       4.284   4.218  17.349  0.00  0.00    +0.000 N 
ATOM      2  H   UNL     1       3.853   5.112  17.606  0.00  0.00    +0.000 HD
ENDROOT
BRANCH   1   8
ATOM      3  C   UNL     1       6.610   4.493  16.450  0.00  0.00    +0.000 A 
ATOM      4  C   UNL     1       7.421   4.675  15.315  0.00  0.00    +0.000 A 
ATOM      5  C   UNL     1       6.891   4.599  14.025  0.00  0.00    +0.000 A 
ATOM      6  C   UNL     1       5.544   4.332  13.852  0.00  0.00    +0.000 A 
ATOM      7  C   UNL     1       4.718   4.194  14.970  0.00  0.00    +0.000 A 
ATOM      8  C   UNL     1       5.226   4.292  16.270  0.00  0.00    +0.000 A 
BRANCH   3  12
ATOM      9  C   UNL     1       7.955   5.716  19.757  0.00  0.00    +0.000 C 
ATOM     10  C   UNL     1       7.541   5.802  18.313  0.00  0.00    +0.000 C 
ATOM     11  O   UNL     1       7.553   6.888  17.735  0.00  0.00    +0.000 OA
ATOM     12  N   UNL     1       7.178   4.594  17.742  0.00  0.00    +0.000 N 
ATOM     13  H   UNL     1       7.607   3.752  18.116  0.00  0.00    +0.000 HD
ENDBRANCH   3  12
ENDBRANCH   1   8
BRANCH   1  14
ATOM     14  S   UNL     1       3.135   2.991  17.455  0.00  0.00    +0.000 S 
ATOM     15  O   UNL     1       2.055   3.349  16.559  0.00  0.00    +0.000 OA
ATOM     16  O   UNL     1       3.831   1.732  17.293  0.00  0.00    +0.000 OA
BRANCH  14  17
ATOM     17  C   UNL     1       2.505   3.001  19.113  0.00  0.00    +0.000 A 
ATOM     18  C   UNL     1       1.112   3.078  19.285  0.00  0.00    +0.000 A 
ATOM     19  C   UNL     1       0.548   3.058  20.566  0.00  0.00    +0.000 A 
ATOM     20  C   UNL     1       1.364   2.978  21.691  0.00  0.00    +0.000 A 
ATOM     21  C   UNL     1       2.743   2.843  21.537  0.00  0.00    +0.000 A 
ATOM     22  C   UNL     1       3.306   2.810  20.245  0.00  0.00    +0.000 A 
BRANCH  22  23
ATOM     23  N   UNL     1       4.728   2.490  20.164  0.00  0.00    +0.000 N 
ATOM     24  O   UNL     1       5.083   1.340  20.449  0.00  0.00    +0.000 OA
ATOM     25  O   UNL     1       5.479   3.379  19.743  0.00  0.00    +0.000 OA
ENDBRANCH  22  23
ENDBRANCH  14  17
ENDBRANCH   1  14
TORSDOF 5
ENDMDL
MODEL 5
REMARK VINA RESULT:      -7.5      2.419      6.104
REMARK  Name = 
REMARK  6 active torsions:
REMARK  status: ('A' for Active; 'I' for Inactive)
REMARK    1  A    between atoms: C_1  and  C_2
REMARK    2  A    between atoms: N_4  and  C_5
REMARK    3  A    between atoms: C_10  and  N_11
REMARK    4  A    between atoms: N_11  and  S_12
REMARK    5  A    between atoms: S_12  and  C_15
REMARK    6  A    between atoms: C_20  and  N_21
REMARK                            x       y       z     vdW  Elec       q    Type
REMARK                         _______ _______ _______ _____ _____    ______ ____
ROOT
ATOM      1  N   UNL     1       3.313   4.816  17.481  0.00  0.00    +0.000 N 
ATOM      2  H   UNL     1       3.121   4.883  16.476  0.00  0.00    +0.000 HD
ENDROOT
BRANCH   1   8
ATOM      3  C   UNL     1       2.648   5.940  19.622  0.00  0.00    +0.000 A 
ATOM      4  C   UNL     1       2.172   7.112  20.240  0.00  0.00    +0.000 A 
ATOM      5  C   UNL     1       2.048   8.307  19.529  0.00  0.00    +0.000 A 
ATOM      6  C   UNL     1       2.405   8.350  18.193  0.00  0.00    +0.000 A 
ATOM      7  C   UNL     1       2.835   7.185  17.555  0.00  0.00    +0.000 A 
ATOM      8  C   UNL     1       2.942   5.972  18.244  0.00  0.00    +0.000 A 
BRANCH   3  12
ATOM      9  C   UNL     1       2.010   2.595  21.248  0.00  0.00    +0.000 C 
ATOM     10  C   UNL     1       1.665   3.903  20.590  0.00  0.00    +0.000 C 
ATOM     11  O   UNL     1       0.496   4.155  20.301  0.00  0.00    +0.000 OA
ATOM     12  N   UNL     1       2.744   4.742  20.369  0.00  0.00    +0.000 N 
ATOM     13  H   UNL     1       3.533   4.666  21.005  0.00  0.00    +0.000 HD
ENDBRANCH   3  12
ENDBRANCH   1   8
BRANCH   1  14
ATOM     14  S   UNL     1       4.776   4.015  17.720  0.00  0.00    +0.000 S 
ATOM     15  O   UNL     1       4.642   3.253  18.943  0.00  0.00    +0.000 OA
ATOM     16  O   UNL     1       5.113   3.351  16.479  0.00  0.00    +0.000 OA
BRANCH  14  17
ATOM     17  C   UNL     1       6.019   5.255  17.974  0.00  0.00    +0.000 A 
ATOM     18  C   UNL     1       6.710   5.250  19.198  0.00  0.00    +0.000 A 
ATOM     19  C   UNL     1       7.725   6.180  19.450  0.00  0.00    +0.000 A 
ATOM     20  C   UNL     1       8.054   7.137  18.493  0.00  0.00    +0.000 A 
ATOM     21  C   UNL     1       7.419   7.119  17.252  0.00  0.00    +0.000 A 
ATOM     22  C   UNL     1       6.434   6.149  16.979  0.00  0.00    +0.000 A 
BRANCH  22  23
ATOM     23  N   UNL     1       5.946   6.086  15.605  0.00  0.00    +0.000 N 
ATOM     24  O   UNL     1       4.946   6.751  15.311  0.00  0.00    +0.000 OA
ATOM     25  O   UNL     1       6.615   5.422  14.803  0.00  0.00    +0.000 OA
ENDBRANCH  22  23
ENDBRANCH  14  17
ENDBRANCH   1  14
TORSDOF 5
ENDMDL
MODEL 6
REMARK VINA RESULT:      -7.5      1.589      3.109
REMARK  Name = 
REMARK  6 active torsions:
REMARK  status: ('A' for Active; 'I' for Inactive)
REMARK    1  A    between atoms: C_1  and  C_2
REMARK    2  A    between atoms: N_4  and  C_5
REMARK    3  A    between atoms: C_10  and  N_11
REMARK    4  A    between atoms: N_11  and  S_12
REMARK    5  A    between atoms: S_12  and  C_15
REMARK    6  A    between atoms: C_20  and  N_21
REMARK                            x       y       z     vdW  Elec       q    Type
REMARK                         _______ _______ _______ _____ _____    ______ ____
ROOT
ATOM      1  N   UNL     1       5.168   3.918  17.879  0.00  0.00    +0.000 N 
ATOM      2  H   UNL     1       5.304   3.140  18.532  0.00  0.00    +0.000 HD
ENDROOT
BRANCH   1   8
ATOM      3  C   UNL     1       6.502   5.835  16.962  0.00  0.00    +0.000 A 
ATOM      4  C   UNL     1       7.519   6.780  17.192  0.00  0.00    +0.000 A 
ATOM      5  C   UNL     1       8.088   6.939  18.458  0.00  0.00    +0.000 A 
ATOM      6  C   UNL     1       7.643   6.162  19.512  0.00  0.00    +0.000 A 
ATOM      7  C   UNL     1       6.666   5.189  19.289  0.00  0.00    +0.000 A 
ATOM      8  C   UNL     1       6.102   4.997  18.024  0.00  0.00    +0.000 A 
BRANCH   3  12
ATOM      9  C   UNL     1       5.313   4.511  13.635  0.00  0.00    +0.000 C 
ATOM     10  C   UNL     1       6.114   4.539  14.908  0.00  0.00    +0.000 C 
ATOM     11  O   UNL     1       6.837   3.587  15.198  0.00  0.00    +0.000 OA
ATOM     12  N   UNL     1       5.961   5.689  15.663  0.00  0.00    +0.000 N 
ATOM     13  H   UNL     1       5.732   6.546  15.168  0.00  0.00    +0.000 HD
ENDBRANCH   3  12
ENDBRANCH   1   8
BRANCH   1  14
ATOM     14  S   UNL     1       3.519   4.183  17.658  0.00  0.00    +0.000 S 
ATOM     15  O   UNL     1       3.348   5.604  17.440  0.00  0.00    +0.000 OA
ATOM     16  O   UNL     1       3.057   3.231  16.671  0.00  0.00    +0.000 OA
BRANCH  14  17
ATOM     17  C   UNL     1       2.710   3.755  19.177  0.00  0.00    +0.000 A 
ATOM     18  C   UNL     1       1.532   4.446  19.511  0.00  0.00    +0.000 A 
ATOM     19  C   UNL     1       0.826   4.135  20.679  0.00  0.00    +0.000 A 
ATOM     20  C   UNL     1       1.293   3.143  21.538  0.00  0.00    +0.000 A 
ATOM     21  C   UNL     1       2.427   2.409  21.194  0.00  0.00    +0.000 A 
ATOM     22  C   UNL     1       3.108   2.687  19.991  0.00  0.00    +0.000 A 
BRANCH  22  23
ATOM     23  N   UNL     1       4.174   1.763  19.619  0.00  0.00    +0.000 N 
ATOM     24  O   UNL     1       3.967   0.981  18.682  0.00  0.00    +0.000 OA
ATOM     25  O   UNL     1       5.248   1.873  20.224  0.00  0.00    +0.000 OA
ENDBRANCH  22  23
ENDBRANCH  14  17
ENDBRANCH   1  14
TORSDOF 5
ENDMDL
MODEL 7
REMARK VINA RESULT:      -7.5      1.236      1.428
REMARK  Name = 
REMARK  6 active torsions:
REMARK  status: ('A' for Active; 'I' for Inactive)
REMARK    1  A    between atoms: C_1  and  C_2
REMARK    2  A    between atoms: N_4  and  C_5
REMARK    3  A    between atoms: C_10  and  N_11
REMARK    4  A    between atoms: N_11  and  S_12
REMARK    5  A    between atoms: S_12  and  C_15
REMARK    6  A    between atoms: C_20  and  N_21
REMARK                            x       y       z     vdW  Elec       q    Type
REMARK                         _______ _______ _______ _____ _____    ______ ____
ROOT
ATOM      1  N   UNL     1       4.739   3.459  17.383  0.00  0.00    +0.000 N 
ATOM      2  H   UNL     1       5.176   3.392  18.308  0.00  0.00    +0.000 HD
ENDROOT
BRANCH   1   8
ATOM      3  C   UNL     1       6.907   4.409  16.553  0.00  0.00    +0.000 A 
ATOM      4  C   UNL     1       7.629   4.915  15.457  0.00  0.00    +0.000 A 
ATOM      5  C   UNL     1       7.116   4.852  14.159  0.00  0.00    +0.000 A 
ATOM      6  C   UNL     1       5.878   4.276  13.939  0.00  0.00    +0.000 A 
ATOM      7  C   UNL     1       5.130   3.811  15.023  0.00  0.00    +0.000 A 
ATOM      8  C   UNL     1       5.616   3.888  16.332  0.00  0.00    +0.000 A 
BRANCH   3  12
ATOM      9  C   UNL     1       8.032   5.587  19.957  0.00  0.00    +0.000 C 
ATOM     10  C   UNL     1       7.610   5.711  18.519  0.00  0.00    +0.000 C 
ATOM     11  O   UNL     1       7.443   6.825  18.022  0.00  0.00    +0.000 OA
ATOM     12  N   UNL     1       7.451   4.506  17.856  0.00  0.00    +0.000 N 
ATOM     13  H   UNL     1       8.012   3.721  18.173  0.00  0.00    +0.000 HD
ENDBRANCH   3  12
ENDBRANCH   1   8
BRANCH   1  14
ATOM     14  S   UNL     1       3.173   4.059  17.546  0.00  0.00    +0.000 S 
ATOM     15  O   UNL     1       3.259   5.498  17.403  0.00  0.00    +0.000 OA
ATOM     16  O   UNL     1       2.321   3.287  16.668  0.00  0.00    +0.000 OA
BRANCH  14  17
ATOM     17  C   UNL     1       2.640   3.699  19.199  0.00  0.00    +0.000 A 
ATOM     18  C   UNL     1       1.528   4.398  19.697  0.00  0.00    +0.000 A 
ATOM     19  C   UNL     1       1.036   4.138  20.981  0.00  0.00    +0.000 A 
ATOM     20  C   UNL     1       1.656   3.190  21.792  0.00  0.00    +0.000 A 
ATOM     21  C   UNL     1       2.725   2.447  21.293  0.00  0.00    +0.000 A 
ATOM     22  C   UNL     1       3.186   2.673  19.980  0.00  0.00    +0.000 A 
BRANCH  22  23
ATOM     23  N   UNL     1       4.186   1.738  19.473  0.00  0.00    +0.000 N 
ATOM     24  O   UNL     1       5.308   1.747  19.993  0.00  0.00    +0.000 OA
ATOM     25  O   UNL     1       3.817   0.944  18.598  0.00  0.00    +0.000 OA
ENDBRANCH  22  23
ENDBRANCH  14  17
ENDBRANCH   1  14
TORSDOF 5
ENDMDL
MODEL 8
REMARK VINA RESULT:      -7.5      2.218      6.068
REMARK  Name = 
REMARK  6 active torsions:
REMARK  status: ('A' for Active; 'I' for Inactive)
REMARK    1  A    between atoms: C_1  and  C_2
REMARK    2  A    between atoms: N_4  and  C_5
REMARK    3  A    between atoms: C_10  and  N_11
REMARK    4  A    between atoms: N_11  and  S_12
REMARK    5  A    between atoms: S_12  and  C_15
REMARK    6  A    between atoms: C_20  and  N_21
REMARK                            x       y       z     vdW  Elec       q    Type
REMARK                         _______ _______ _______ _____ _____    ______ ____
ROOT
ATOM      1  N   UNL     1       4.527   5.340  18.665  0.00  0.00    +0.000 N 
ATOM      2  H   UNL     1       4.924   5.005  19.550  0.00  0.00    +0.000 HD
ENDROOT
BRANCH   1   8
ATOM      3  C   UNL     1       2.605   6.464  19.821  0.00  0.00    +0.000 A 
ATOM      4  C   UNL     1       1.640   7.487  19.778  0.00  0.00    +0.000 A 
ATOM      5  C   UNL     1       1.665   8.467  18.783  0.00  0.00    +0.000 A 
ATOM      6  C   UNL     1       2.659   8.442  17.821  0.00  0.00    +0.000 A 
ATOM      7  C   UNL     1       3.597   7.407  17.824  0.00  0.00    +0.000 A 
ATOM      8  C   UNL     1       3.573   6.403  18.797  0.00  0.00    +0.000 A 
BRANCH   3  12
ATOM      9  C   UNL     1       2.004   3.315  21.810  0.00  0.00    +0.000 C 
ATOM     10  C   UNL     1       1.799   4.315  20.706  0.00  0.00    +0.000 C 
ATOM     11  O   UNL     1       1.016   4.066  19.790  0.00  0.00    +0.000 OA
ATOM     12  N   UNL     1       2.539   5.479  20.834  0.00  0.00    +0.000 N 
ATOM     13  H   UNL     1       2.781   5.777  21.774  0.00  0.00    +0.000 HD
ENDBRANCH   3  12
ENDBRANCH   1   8
BRANCH   1  14
ATOM     14  S   UNL     1       4.276   4.032  17.634  0.00  0.00    +0.000 S 
ATOM     15  O   UNL     1       4.692   2.846  18.353  0.00  0.00    +0.000 OA
ATOM     16  O   UNL     1       2.928   4.140  17.119  0.00  0.00    +0.000 OA
BRANCH  14  17
ATOM     17  C   UNL     1       5.357   4.244  16.243  0.00  0.00    +0.000 A 
ATOM     18  C   UNL     1       4.836   3.991  14.963  0.00  0.00    +0.000 A 
ATOM     19  C   UNL     1       5.626   4.171  13.821  0.00  0.00    +0.000 A 
ATOM     20  C   UNL     1       6.949   4.587  13.941  0.00  0.00    +0.000 A 
ATOM     21  C   UNL     1       7.465   4.896  15.199  0.00  0.00    +0.000 A 
ATOM     22  C   UNL     1       6.652   4.767  16.344  0.00  0.00    +0.000 A 
BRANCH  22  23
ATOM     23  N   UNL     1       7.205   5.276  17.595  0.00  0.00    +0.000 N 
ATOM     24  O   UNL     1       7.703   4.465  18.385  0.00  0.00    +0.000 OA
ATOM     25  O   UNL     1       7.203   6.504  17.749  0.00  0.00    +0.000 OA
ENDBRANCH  22  23
ENDBRANCH  14  17
ENDBRANCH   1  14
TORSDOF 5
ENDMDL
MODEL 9
REMARK VINA RESULT:      -7.4      1.370      1.766
REMARK  Name = 
REMARK  6 active torsions:
REMARK  status: ('A' for Active; 'I' for Inactive)
REMARK    1  A    between atoms: C_1  and  C_2
REMARK    2  A    between atoms: N_4  and  C_5
REMARK    3  A    between atoms: C_10  and  N_11
REMARK    4  A    between atoms: N_11  and  S_12
REMARK    5  A    between atoms: S_12  and  C_15
REMARK    6  A    between atoms: C_20  and  N_21
REMARK                            x       y       z     vdW  Elec       q    Type
REMARK                         _______ _______ _______ _____ _____    ______ ____
ROOT
ATOM      1  N   UNL     1       4.666   5.094  16.708  0.00  0.00    +0.000 N 
ATOM      2  H   UNL     1       3.758   5.503  16.462  0.00  0.00    +0.000 HD
ENDROOT
BRANCH   1   8
ATOM      3  C   UNL     1       6.899   4.967  15.574  0.00  0.00    +0.000 A 
ATOM      4  C   UNL     1       7.602   4.730  14.378  0.00  0.00    +0.000 A 
ATOM      5  C   UNL     1       6.953   4.248  13.239  0.00  0.00    +0.000 A 
ATOM      6  C   UNL     1       5.595   3.989  13.282  0.00  0.00    +0.000 A 
ATOM      7  C   UNL     1       4.876   4.263  14.447  0.00  0.00    +0.000 A 
ATOM      8  C   UNL     1       5.503   4.769  15.590  0.00  0.00    +0.000 A 
BRANCH   3  12
ATOM      9  C   UNL     1       8.047   7.011  18.531  0.00  0.00    +0.000 C 
ATOM     10  C   UNL     1       7.352   6.732  17.226  0.00  0.00    +0.000 C 
ATOM     11  O   UNL     1       6.649   7.599  16.708  0.00  0.00    +0.000 OA
ATOM     12  N   UNL     1       7.586   5.472  16.703  0.00  0.00    +0.000 N 
ATOM     13  H   UNL     1       8.471   5.028  16.932  0.00  0.00    +0.000 HD
ENDBRANCH   3  12
ENDBRANCH   1   8
BRANCH   1  14
ATOM     14  S   UNL     1       4.474   4.054  18.019  0.00  0.00    +0.000 S 
ATOM     15  O   UNL     1       3.822   2.862  17.516  0.00  0.00    +0.000 OA
ATOM     16  O   UNL     1       5.755   3.958  18.686  0.00  0.00    +0.000 OA
BRANCH  14  17
ATOM     17  C   UNL     1       3.375   4.846  19.164  0.00  0.00    +0.000 A 
ATOM     18  C   UNL     1       3.022   6.183  18.916  0.00  0.00    +0.000 A 
ATOM     19  C   UNL     1       2.133   6.857  19.762  0.00  0.00    +0.000 A 
ATOM     20  C   UNL     1       1.599   6.213  20.874  0.00  0.00    +0.000 A 
ATOM     21  C   UNL     1       1.893   4.869  21.103  0.00  0.00    +0.000 A 
ATOM     22  C   UNL     1       2.746   4.176  20.220  0.00  0.00    +0.000 A 
BRANCH  22  23
ATOM     23  N   UNL     1       2.863   2.736  20.426  0.00  0.00    +0.000 N 
ATOM     24  O   UNL     1       3.810   2.319  21.103  0.00  0.00    +0.000 OA
ATOM     25  O   UNL     1       1.957   2.029  19.965  0.00  0.00    +0.000 OA
ENDBRANCH  22  23
ENDBRANCH  14  17
ENDBRANCH   1  14
TORSDOF 5
ENDMDL
