MODEL 1
REMARK VINA RESULT:      -6.9      0.000      0.000
REMARK  Name = 
REMARK  3 active torsions:
REMARK  status: ('A' for Active; 'I' for Inactive)
REMARK    1  A    between atoms: C_2  and  N_3
REMARK    2  A    between atoms: C_2  and  N_7
REMARK    3  A    between atoms: N_3  and  C_4
REMARK                            x       y       z     vdW  Elec       q    Type
REMARK                         _______ _______ _______ _____ _____    ______ ____
ROOT
ATOM      1  N   UNL     1       4.555   5.108  17.136  0.00  0.00    +0.000 N 
ATOM      2  C   UNL     1       4.000   6.142  18.044  0.00  0.00    +0.000 C 
ATOM      3  C   UNL     1       3.545   5.632  19.412  0.00  0.00    +0.000 C 
ATOM      4  C   UNL     1       2.635   4.456  19.232  0.00  0.00    +0.000 A 
ATOM      5  C   UNL     1       1.475   4.284  19.993  0.00  0.00    +0.000 A 
ATOM      6  C   UNL     1       0.670   3.169  19.784  0.00  0.00    +0.000 A 
ATOM      7  C   UNL     1       1.031   2.213  18.835  0.00  0.00    +0.000 A 
ATOM      8  C   UNL     1       2.198   2.372  18.085  0.00  0.00    +0.000 A 
ATOM      9  C   UNL     1       3.001   3.502  18.268  0.00  0.00    +0.000 A 
ATOM     10  C   UNL     1       4.287   3.702  17.502  0.00  0.00    +0.000 C 
ENDROOT
BRANCH   1  12
ATOM     11  S   UNL     1       5.656   4.591  14.678  0.00  0.00    +0.000 S 
ATOM     12  C   UNL     1       5.443   5.471  16.104  0.00  0.00    +0.000 C 
BRANCH  12  13
ATOM     13  N   UNL     1       6.124   6.660  16.331  0.00  0.00    +0.000 N 
ATOM     14  H   UNL     1       5.549   7.486  16.422  0.00  0.00    +0.000 HD
BRANCH  13  15
ATOM     15  C   UNL     1       7.442   6.758  16.888  0.00  0.00    +0.000 C 
ATOM     16  C   UNL     1       7.774   7.982  17.702  0.00  0.00    +0.000 C 
ATOM     17  C   UNL     1       7.687   6.642  18.367  0.00  0.00    +0.000 C 
ENDBRANCH  13  15
ENDBRANCH  12  13
ENDBRANCH   1  12
TORSDOF 3
ENDMDL
MODEL 2
REMARK VINA RESULT:      -6.9      0.799      2.014
REMARK  Name = 
REMARK  3 active torsions:
REMARK  status: ('A' for Active; 'I' for Inactive)
REMARK    1  A    between atoms: C_2  and  N_3
REMARK    2  A    between atoms: C_2  and  N_7
REMARK    3  A    between atoms: N_3  and  C_4
REMARK                            x       y       z     vdW  Elec       q    Type
REMARK                         _______ _______ _______ _____ _____    ______ ____
ROOT
ATOM      1  N   UNL     1       4.511   4.909  16.856  0.00  0.00    +0.000 N 
ATOM      2  C   UNL     1       4.039   3.502  16.870  0.00  0.00    +0.000 C 
ATOM      3  C   UNL     1       2.560   3.313  17.210  0.00  0.00    +0.000 C 
ATOM      4  C   UNL     1       2.236   4.057  18.469  0.00  0.00    +0.000 A 
ATOM      5  C   UNL     1       1.413   3.520  19.463  0.00  0.00    +0.000 A 
ATOM      6  C   UNL     1       1.142   4.259  20.610  0.00  0.00    +0.000 A 
ATOM      7  C   UNL     1       1.673   5.541  20.759  0.00  0.00    +0.000 A 
ATOM      8  C   UNL     1       2.482   6.087  19.760  0.00  0.00    +0.000 A 
ATOM      9  C   UNL     1       2.781   5.343  18.614  0.00  0.00    +0.000 A 
ATOM     10  C   UNL     1       3.625   5.904  17.495  0.00  0.00    +0.000 C 
ENDROOT
BRANCH   1  12
ATOM     11  S   UNL     1       6.296   4.334  14.856  0.00  0.00    +0.000 S 
ATOM     12  C   UNL     1       5.645   5.270  16.101  0.00  0.00    +0.000 C 
BRANCH  12  13
ATOM     13  N   UNL     1       6.183   6.505  16.439  0.00  0.00    +0.000 N 
ATOM     14  H   UNL     1       5.516   7.241  16.623  0.00  0.00    +0.000 HD
BRANCH  13  15
ATOM     15  C   UNL     1       7.496   6.709  16.980  0.00  0.00    +0.000 C 
ATOM     16  C   UNL     1       7.752   7.980  17.747  0.00  0.00    +0.000 C 
ATOM     17  C   UNL     1       7.757   6.663  18.461  0.00  0.00    +0.000 C 
ENDBRANCH  13  15
ENDBRANCH  12  13
ENDBRANCH   1  12
TORSDOF 3
ENDMDL
MODEL 3
REMARK VINA RESULT:      -6.8      1.963      2.993
REMARK  Name = 
REMARK  3 active torsions:
REMARK  status: ('A' for Active; 'I' for Inactive)
REMARK    1  A    between atoms: C_2  and  N_3
REMARK    2  A    between atoms: C_2  and  N_7
REMARK    3  A    between atoms: N_3  and  C_4
REMARK                            x       y       z     vdW  Elec       q    Type
REMARK                         _______ _______ _______ _____ _____    ______ ____
ROOT
ATOM      1  N   UNL     1       5.158   4.429  17.942  0.00  0.00    +0.000 N 
ATOM      2  C   UNL     1       4.553   3.225  17.322  0.00  0.00    +0.000 C 
ATOM      3  C   UNL     1       3.034   3.277  17.143  0.00  0.00    +0.000 C 
ATOM      4  C   UNL     1       2.390   3.660  18.440  0.00  0.00    +0.000 A 
ATOM      5  C   UNL     1       1.223   3.046  18.905  0.00  0.00    +0.000 A 
ATOM      6  C   UNL     1       0.667   3.447  20.115  0.00  0.00    +0.000 A 
ATOM      7  C   UNL     1       1.258   4.473  20.852  0.00  0.00    +0.000 A 
ATOM      8  C   UNL     1       2.414   5.100  20.383  0.00  0.00    +0.000 A 
ATOM      9  C   UNL     1       2.996   4.688  19.180  0.00  0.00    +0.000 A 
ATOM     10  C   UNL     1       4.228   5.357  18.618  0.00  0.00    +0.000 C 
ENDROOT
BRANCH   1  12
ATOM     11  S   UNL     1       7.458   5.689  18.745  0.00  0.00    +0.000 S 
ATOM     12  C   UNL     1       6.514   4.739  17.715  0.00  0.00    +0.000 C 
BRANCH  12  13
ATOM     13  N   UNL     1       7.046   4.161  16.570  0.00  0.00    +0.000 N 
ATOM     14  H   UNL     1       7.147   3.156  16.590  0.00  0.00    +0.000 HD
BRANCH  13  15
ATOM     15  C   UNL     1       7.027   4.756  15.265  0.00  0.00    +0.000 C 
ATOM     16  C   UNL     1       6.338   4.003  14.157  0.00  0.00    +0.000 C 
ATOM     17  C   UNL     1       5.759   5.291  14.657  0.00  0.00    +0.000 C 
ENDBRANCH  13  15
ENDBRANCH  12  13
ENDBRANCH   1  12
TORSDOF 3
ENDMDL
MODEL 4
REMARK VINA RESULT:      -6.7      1.857      2.621
REMARK  Name = 
REMARK  3 active torsions:
REMARK  status: ('A' for Active; 'I' for Inactive)
REMARK    1  A    between atoms: C_2  and  N_3
REMARK    2  A    between atoms: C_2  and  N_7
REMARK    3  A    between atoms: N_3  and  C_4
REMARK                            x       y       z     vdW  Elec       q    Type
REMARK                         _______ _______ _______ _____ _____    ______ ____
ROOT
ATOM      1  N   UNL     1       5.516   5.848  17.420  0.00  0.00    +0.000 N 
ATOM      2  C   UNL     1       4.310   6.713  17.409  0.00  0.00    +0.000 C 
ATOM      3  C   UNL     1       3.230   6.340  18.426  0.00  0.00    +0.000 C 
ATOM      4  C   UNL     1       2.910   4.881  18.304  0.00  0.00    +0.000 A 
ATOM      5  C   UNL     1       1.601   4.396  18.364  0.00  0.00    +0.000 A 
ATOM      6  C   UNL     1       1.364   3.030  18.250  0.00  0.00    +0.000 A 
ATOM      7  C   UNL     1       2.432   2.144  18.099  0.00  0.00    +0.000 A 
ATOM      8  C   UNL     1       3.743   2.624  18.056  0.00  0.00    +0.000 A 
ATOM      9  C   UNL     1       3.990   3.997  18.144  0.00  0.00    +0.000 A 
ATOM     10  C   UNL     1       5.392   4.560  18.134  0.00  0.00    +0.000 C 
ENDROOT
BRANCH   1  12
ATOM     11  S   UNL     1       7.635   7.569  17.679  0.00  0.00    +0.000 S 
ATOM     12  C   UNL     1       6.747   6.337  16.939  0.00  0.00    +0.000 C 
BRANCH  12  13
ATOM     13  N   UNL     1       7.210   5.692  15.800  0.00  0.00    +0.000 N 
ATOM     14  H   UNL     1       8.098   5.220  15.891  0.00  0.00    +0.000 HD
BRANCH  13  15
ATOM     15  C   UNL     1       6.385   5.253  14.712  0.00  0.00    +0.000 C 
ATOM     16  C   UNL     1       7.050   4.528  13.571  0.00  0.00    +0.000 C 
ATOM     17  C   UNL     1       6.101   3.796  14.471  0.00  0.00    +0.000 C 
ENDBRANCH  13  15
ENDBRANCH  12  13
ENDBRANCH   1  12
TORSDOF 3
ENDMDL
MODEL 5
REMARK VINA RESULT:      -6.7      1.248      1.248
REMARK  Name = 
REMARK  3 active torsions:
REMARK  status: ('A' for Active; 'I' for Inactive)
REMARK    1  A    between atoms: C_2  and  N_3
REMARK    2  A    between atoms: C_2  and  N_7
REMARK    3  A    between atoms: N_3  and  C_4
REMARK                            x       y       z     vdW  Elec       q    Type
REMARK                         _______ _______ _______ _____ _____    ______ ____
ROOT
ATOM      1  N   UNL     1       4.509   5.430  17.688  0.00  0.00    +0.000 N 
ATOM      2  C   UNL     1       3.314   6.299  17.823  0.00  0.00    +0.000 C 
ATOM      3  C   UNL     1       2.766   6.439  19.244  0.00  0.00    +0.000 C 
ATOM      4  C   UNL     1       2.578   5.079  19.845  0.00  0.00    +0.000 A 
ATOM      5  C   UNL     1       1.456   4.749  20.610  0.00  0.00    +0.000 A 
ATOM      6  C   UNL     1       1.337   3.472  21.147  0.00  0.00    +0.000 A 
ATOM      7  C   UNL     1       2.345   2.529  20.942  0.00  0.00    +0.000 A 
ATOM      8  C   UNL     1       3.476   2.861  20.192  0.00  0.00    +0.000 A 
ATOM      9  C   UNL     1       3.593   4.134  19.626  0.00  0.00    +0.000 A 
ATOM     10  C   UNL     1       4.811   4.548  18.834  0.00  0.00    +0.000 C 
ENDROOT
BRANCH   1  12
ATOM     11  S   UNL     1       5.564   4.499  15.334  0.00  0.00    +0.000 S 
ATOM     12  C   UNL     1       5.393   5.600  16.603  0.00  0.00    +0.000 C 
BRANCH  12  13
ATOM     13  N   UNL     1       6.106   6.791  16.633  0.00  0.00    +0.000 N 
ATOM     14  H   UNL     1       5.554   7.635  16.692  0.00  0.00    +0.000 HD
BRANCH  13  15
ATOM     15  C   UNL     1       7.476   6.918  17.039  0.00  0.00    +0.000 C 
ATOM     16  C   UNL     1       7.873   8.155  17.803  0.00  0.00    +0.000 C 
ATOM     17  C   UNL     1       7.886   6.819  18.483  0.00  0.00    +0.000 C 
ENDBRANCH  13  15
ENDBRANCH  12  13
ENDBRANCH   1  12
TORSDOF 3
ENDMDL
MODEL 6
REMARK VINA RESULT:      -6.7      1.810      3.093
REMARK  Name = 
REMARK  3 active torsions:
REMARK  status: ('A' for Active; 'I' for Inactive)
REMARK    1  A    between atoms: C_2  and  N_3
REMARK    2  A    between atoms: C_2  and  N_7
REMARK    3  A    between atoms: N_3  and  C_4
REMARK                            x       y       z     vdW  Elec       q    Type
REMARK                         _______ _______ _______ _____ _____    ______ ____
ROOT
ATOM      1  N   UNL     1       4.764   5.188  17.209  0.00  0.00    +0.000 N 
ATOM      2  C   UNL     1       4.391   3.772  16.971  0.00  0.00    +0.000 C 
ATOM      3  C   UNL     1       2.896   3.465  17.071  0.00  0.00    +0.000 C 
ATOM      4  C   UNL     1       2.358   4.008  18.361  0.00  0.00    +0.000 A 
ATOM      5  C   UNL     1       1.450   3.297  19.150  0.00  0.00    +0.000 A 
ATOM      6  C   UNL     1       0.981   3.854  20.335  0.00  0.00    +0.000 A 
ATOM      7  C   UNL     1       1.399   5.127  20.724  0.00  0.00    +0.000 A 
ATOM      8  C   UNL     1       2.294   5.847  19.930  0.00  0.00    +0.000 A 
ATOM      9  C   UNL     1       2.791   5.286  18.749  0.00  0.00    +0.000 A 
ATOM     10  C   UNL     1       3.736   6.039  17.843  0.00  0.00    +0.000 C 
ENDROOT
BRANCH   1  12
ATOM     11  S   UNL     1       7.217   6.348  17.603  0.00  0.00    +0.000 S 
ATOM     12  C   UNL     1       5.960   5.708  16.674  0.00  0.00    +0.000 C 
BRANCH  12  13
ATOM     13  N   UNL     1       6.051   5.619  15.292  0.00  0.00    +0.000 N 
ATOM     14  H   UNL     1       5.818   6.458  14.780  0.00  0.00    +0.000 HD
BRANCH  13  15
ATOM     15  C   UNL     1       6.848   4.661  14.581  0.00  0.00    +0.000 C 
ATOM     16  C   UNL     1       6.181   3.858  13.494  0.00  0.00    +0.000 C 
ATOM     17  C   UNL     1       7.232   4.865  13.141  0.00  0.00    +0.000 C 
ENDBRANCH  13  15
ENDBRANCH  12  13
ENDBRANCH   1  12
TORSDOF 3
ENDMDL
MODEL 7
REMARK VINA RESULT:      -6.5      1.927      2.499
REMARK  Name = 
REMARK  3 active torsions:
REMARK  status: ('A' for Active; 'I' for Inactive)
REMARK    1  A    between atoms: C_2  and  N_3
REMARK    2  A    between atoms: C_2  and  N_7
REMARK    3  A    between atoms: N_3  and  C_4
REMARK                            x       y       z     vdW  Elec       q    Type
REMARK                         _______ _______ _______ _____ _____    ______ ____
ROOT
ATOM      1  N   UNL     1       4.723   6.103  17.979  0.00  0.00    +0.000 N 
ATOM      2  C   UNL     1       3.440   6.849  18.001  0.00  0.00    +0.000 C 
ATOM      3  C   UNL     1       2.662   6.770  19.316  0.00  0.00    +0.000 C 
ATOM      4  C   UNL     1       2.518   5.337  19.728  0.00  0.00    +0.000 A 
ATOM      5  C   UNL     1       1.328   4.826  20.253  0.00  0.00    +0.000 A 
ATOM      6  C   UNL     1       1.254   3.487  20.624  0.00  0.00    +0.000 A 
ATOM      7  C   UNL     1       2.372   2.662  20.493  0.00  0.00    +0.000 A 
ATOM      8  C   UNL     1       3.568   3.173  19.985  0.00  0.00    +0.000 A 
ATOM      9  C   UNL     1       3.645   4.511  19.586  0.00  0.00    +0.000 A 
ATOM     10  C   UNL     1       4.925   5.115  19.059  0.00  0.00    +0.000 C 
ENDROOT
BRANCH   1  12
ATOM     11  S   UNL     1       7.257   7.060  17.558  0.00  0.00    +0.000 S 
ATOM     12  C   UNL     1       5.746   6.475  17.084  0.00  0.00    +0.000 C 
BRANCH  12  13
ATOM     13  N   UNL     1       5.427   6.285  15.746  0.00  0.00    +0.000 N 
ATOM     14  H   UNL     1       5.593   7.075  15.137  0.00  0.00    +0.000 HD
BRANCH  13  15
ATOM     15  C   UNL     1       5.337   5.010  15.095  0.00  0.00    +0.000 C 
ATOM     16  C   UNL     1       6.524   4.543  14.293  0.00  0.00    +0.000 C 
ATOM     17  C   UNL     1       6.146   3.828  15.555  0.00  0.00    +0.000 C 
ENDBRANCH  13  15
ENDBRANCH  12  13
ENDBRANCH   1  12
TORSDOF 3
ENDMDL
MODEL 8
REMARK VINA RESULT:      -6.5      1.164      1.337
REMARK  Name = 
REMARK  3 active torsions:
REMARK  status: ('A' for Active; 'I' for Inactive)
REMARK    1  A    between atoms: C_2  and  N_3
REMARK    2  A    between atoms: C_2  and  N_7
REMARK    3  A    between atoms: N_3  and  C_4
REMARK                            x       y       z     vdW  Elec       q    Type
REMARK                         _______ _______ _______ _____ _____    ______ ____
ROOT
ATOM      1  N   UNL     1       4.732   4.609  17.604  0.00  0.00    +0.000 N 
ATOM      2  C   UNL     1       5.341   4.394  18.940  0.00  0.00    +0.000 C 
ATOM      3  C   UNL     1       4.813   3.182  19.710  0.00  0.00    +0.000 C 
ATOM      4  C   UNL     1       3.315   3.223  19.744  0.00  0.00    +0.000 A 
ATOM      5  C   UNL     1       2.585   2.904  20.892  0.00  0.00    +0.000 A 
ATOM      6  C   UNL     1       1.195   2.954  20.862  0.00  0.00    +0.000 A 
ATOM      7  C   UNL     1       0.532   3.301  19.685  0.00  0.00    +0.000 A 
ATOM      8  C   UNL     1       1.258   3.604  18.531  0.00  0.00    +0.000 A 
ATOM      9  C   UNL     1       2.656   3.581  18.556  0.00  0.00    +0.000 A 
ATOM     10  C   UNL     1       3.482   3.871  17.327  0.00  0.00    +0.000 C 
ENDROOT
BRANCH   1  12
ATOM     11  S   UNL     1       5.589   4.823  15.008  0.00  0.00    +0.000 S 
ATOM     12  C   UNL     1       5.430   5.327  16.612  0.00  0.00    +0.000 C 
BRANCH  12  13
ATOM     13  N   UNL     1       5.963   6.531  17.051  0.00  0.00    +0.000 N 
ATOM     14  H   UNL     1       5.355   7.100  17.622  0.00  0.00    +0.000 HD
BRANCH  13  15
ATOM     15  C   UNL     1       7.364   6.817  17.164  0.00  0.00    +0.000 C 
ATOM     16  C   UNL     1       7.768   8.191  17.635  0.00  0.00    +0.000 C 
ATOM     17  C   UNL     1       8.031   6.996  18.501  0.00  0.00    +0.000 C 
ENDBRANCH  13  15
ENDBRANCH  12  13
ENDBRANCH   1  12
TORSDOF 3
ENDMDL
MODEL 9
REMARK VINA RESULT:      -6.5      1.060      1.905
REMARK  Name = 
REMARK  3 active torsions:
REMARK  status: ('A' for Active; 'I' for Inactive)
REMARK    1  A    between atoms: C_2  and  N_3
REMARK    2  A    between atoms: C_2  and  N_7
REMARK    3  A    between atoms: N_3  and  C_4
REMARK                            x       y       z     vdW  Elec       q    Type
REMARK                         _______ _______ _______ _____ _____    ______ ____
ROOT
ATOM      1  N   UNL     1       4.170   4.569  17.391  0.00  0.00    +0.000 N 
ATOM      2  C   UNL     1       3.184   3.620  16.817  0.00  0.00    +0.000 C 
ATOM      3  C   UNL     1       1.776   3.705  17.408  0.00  0.00    +0.000 C 
ATOM      4  C   UNL     1       1.855   3.640  18.902  0.00  0.00    +0.000 A 
ATOM      5  C   UNL     1       0.955   2.893  19.667  0.00  0.00    +0.000 A 
ATOM      6  C   UNL     1       1.074   2.874  21.053  0.00  0.00    +0.000 A 
ATOM      7  C   UNL     1       2.075   3.617  21.679  0.00  0.00    +0.000 A 
ATOM      8  C   UNL     1       2.966   4.378  20.920  0.00  0.00    +0.000 A 
ATOM      9  C   UNL     1       2.871   4.384  19.525  0.00  0.00    +0.000 A 
ATOM     10  C   UNL     1       3.791   5.216  18.664  0.00  0.00    +0.000 C 
ENDROOT
BRANCH   1  12
ATOM     11  S   UNL     1       5.937   4.072  15.354  0.00  0.00    +0.000 S 
ATOM     12  C   UNL     1       5.302   4.956  16.646  0.00  0.00    +0.000 C 
BRANCH  12  13
ATOM     13  N   UNL     1       5.853   6.169  17.036  0.00  0.00    +0.000 N 
ATOM     14  H   UNL     1       5.238   6.788  17.546  0.00  0.00    +0.000 HD
BRANCH  13  15
ATOM     15  C   UNL     1       7.256   6.423  17.191  0.00  0.00    +0.000 C 
ATOM     16  C   UNL     1       7.679   7.800  17.633  0.00  0.00    +0.000 C 
ATOM     17  C   UNL     1       7.878   6.627  18.545  0.00  0.00    +0.000 C 
ENDBRANCH  13  15
ENDBRANCH  12  13
ENDBRANCH   1  12
TORSDOF 3
ENDMDL
