MODEL 1
REMARK VINA RESULT:      -8.2      0.000      0.000
REMARK  Name = 
REMARK  9 active torsions:
REMARK  status: ('A' for Active; 'I' for Inactive)
REMARK    1  A    between atoms: C_1  and  C_2
REMARK    2  A    between atoms: C_2  and  N_3
REMARK    3  A    between atoms: N_3  and  C_4
REMARK    4  A    between atoms: C_4  and  C_5
REMARK    5  A    between atoms: N_7  and  C_8
REMARK    6  A    between atoms: C_18  and  C_20
REMARK    7  A    between atoms: C_23  and  C_24
REMARK    8  A    between atoms: C_24  and  S_25
REMARK    9  A    between atoms: S_25  and  C_26
REMARK                            x       y       z     vdW  Elec       q    Type
REMARK                         _______ _______ _______ _____ _____    ______ ____
ROOT
ATOM      1  N   UNL     1       2.115   3.922  19.975  0.00  0.00    +0.000 N 
ATOM      2  C   UNL     1       2.774   3.104  19.043  0.00  0.00    +0.000 C 
ATOM      3  O   UNL     1       2.322   2.001  18.721  0.00  0.00    +0.000 OA
ENDROOT
BRANCH   2   4
ATOM      4  C   UNL     1       3.996   3.550  18.305  0.00  0.00    +0.000 A 
ATOM      5  C   UNL     1       5.182   3.956  18.914  0.00  0.00    +0.000 A 
ATOM      6  C   UNL     1       6.274   4.362  18.142  0.00  0.00    +0.000 A 
ATOM      7  C   UNL     1       6.234   4.294  16.743  0.00  0.00    +0.000 A 
ATOM      8  C   UNL     1       5.060   3.847  16.127  0.00  0.00    +0.000 A 
ATOM      9  C   UNL     1       3.956   3.480  16.903  0.00  0.00    +0.000 A 
BRANCH   7  10
ATOM     10  C   UNL     1       7.449   4.672  15.941  0.00  0.00    +0.000 C 
BRANCH  10  11
ATOM     11  S   UNL     1       6.985   5.245  14.304  0.00  0.00    +0.000 S 
ATOM     12  C   UNL     1       6.404   3.791  13.460  0.00  0.00    +0.000 C 
ATOM     13  O   UNL     1       5.835   6.115  14.473  0.00  0.00    +0.000 OA
ATOM     14  O   UNL     1       8.160   5.731  13.604  0.00  0.00    +0.000 OA
ENDBRANCH  10  11
ENDBRANCH   7  10
ENDBRANCH   2   4
BRANCH   1  16
ATOM     15  C   UNL     1       1.300   2.614  21.956  0.00  0.00    +0.000 C 
ATOM     16  C   UNL     1       0.956   3.324  20.652  0.00  0.00    +0.000 C 
ENDBRANCH   1  16
BRANCH   1  17
ATOM     17  C   UNL     1       2.669   5.146  20.587  0.00  0.00    +0.000 C 
BRANCH  17  18
ATOM     18  C   UNL     1       2.069   6.494  20.149  0.00  0.00    +0.000 C 
ATOM     19  O   UNL     1       2.231   6.893  18.997  0.00  0.00    +0.000 OA
ATOM     20  N   UNL     1       1.527   7.248  21.177  0.00  0.00    +0.000 N 
ATOM     21  H   UNL     1       1.757   6.947  22.117  0.00  0.00    +0.000 HD
BRANCH  20  22
ATOM     22  C   UNL     1       1.028   8.557  21.010  0.00  0.00    +0.000 A 
ATOM     23  C   UNL     1       1.113   9.252  19.799  0.00  0.00    +0.000 A 
ATOM     24  C   UNL     1       0.629  10.563  19.700  0.00  0.00    +0.000 A 
ATOM     25  C   UNL     1       0.096  11.196  20.819  0.00  0.00    +0.000 A 
ATOM     26  C   UNL     1      -0.010  10.497  22.024  0.00  0.00    +0.000 A 
ATOM     27  C   UNL     1       0.430   9.174  22.111  0.00  0.00    +0.000 A 
ATOM     28  O   UNL     1      -0.500  11.054  23.177  0.00  0.00    +0.000 OA
ATOM     29  C   UNL     1      -1.183  12.286  22.925  0.00  0.00    +0.000 C 
ATOM     30  C   UNL     1      -0.416  13.154  21.944  0.00  0.00    +0.000 C 
ATOM     31  O   UNL     1      -0.298  12.501  20.671  0.00  0.00    +0.000 OA
ENDBRANCH  20  22
ENDBRANCH  17  18
ENDBRANCH   1  17
TORSDOF 7
ENDMDL
MODEL 2
REMARK VINA RESULT:      -8.2      4.274      9.576
REMARK  Name = 
REMARK  9 active torsions:
REMARK  status: ('A' for Active; 'I' for Inactive)
REMARK    1  A    between atoms: C_1  and  C_2
REMARK    2  A    between atoms: C_2  and  N_3
REMARK    3  A    between atoms: N_3  and  C_4
REMARK    4  A    between atoms: C_4  and  C_5
REMARK    5  A    between atoms: N_7  and  C_8
REMARK    6  A    between atoms: C_18  and  C_20
REMARK    7  A    between atoms: C_23  and  C_24
REMARK    8  A    between atoms: C_24  and  S_25
REMARK    9  A    between atoms: S_25  and  C_26
REMARK                            x       y       z     vdW  Elec       q    Type
REMARK                         _______ _______ _______ _____ _____    ______ ____
ROOT
ATOM      1  N   UNL     1       0.281  10.770  18.845  0.00  0.00    +0.000 N 
ATOM      2  C   UNL     1       0.281  12.138  19.164  0.00  0.00    +0.000 C 
ATOM      3  O   UNL     1      -0.753  12.719  19.509  0.00  0.00    +0.000 OA
ENDROOT
BRANCH   2   4
ATOM      4  C   UNL     1       1.535  12.952  19.213  0.00  0.00    +0.000 A 
ATOM      5  C   UNL     1       2.168  13.495  18.097  0.00  0.00    +0.000 A 
ATOM      6  C   UNL     1       3.342  14.240  18.238  0.00  0.00    +0.000 A 
ATOM      7  C   UNL     1       3.865  14.530  19.506  0.00  0.00    +0.000 A 
ATOM      8  C   UNL     1       3.209  14.023  20.633  0.00  0.00    +0.000 A 
ATOM      9  C   UNL     1       2.057  13.243  20.484  0.00  0.00    +0.000 A 
BRANCH   7  10
ATOM     10  C   UNL     1       5.090  15.393  19.630  0.00  0.00    +0.000 C 
BRANCH  10  11
ATOM     11  S   UNL     1       4.691  17.119  19.342  0.00  0.00    +0.000 S 
ATOM     12  C   UNL     1       3.677  17.590  20.724  0.00  0.00    +0.000 C 
ATOM     13  O   UNL     1       5.932  17.864  19.462  0.00  0.00    +0.000 OA
ATOM     14  O   UNL     1       3.892  17.242  18.136  0.00  0.00    +0.000 OA
ENDBRANCH  10  11
ENDBRANCH   7  10
ENDBRANCH   2   4
BRANCH   1  16
ATOM     15  C   UNL     1      -1.625  10.030  17.390  0.00  0.00    +0.000 C 
ATOM     16  C   UNL     1      -1.036  10.120  18.792  0.00  0.00    +0.000 C 
ENDBRANCH   1  16
BRANCH   1  17
ATOM     17  C   UNL     1       1.398  10.035  18.220  0.00  0.00    +0.000 C 
BRANCH  17  18
ATOM     18  C   UNL     1       1.744   8.648  18.793  0.00  0.00    +0.000 C 
ATOM     19  O   UNL     1       1.615   8.432  19.997  0.00  0.00    +0.000 OA
ATOM     20  N   UNL     1       2.356   7.788  17.897  0.00  0.00    +0.000 N 
ATOM     21  H   UNL     1       2.698   8.209  17.041  0.00  0.00    +0.000 HD
BRANCH  20  22
ATOM     22  C   UNL     1       2.853   6.514  18.247  0.00  0.00    +0.000 A 
ATOM     23  C   UNL     1       4.187   6.295  18.612  0.00  0.00    +0.000 A 
ATOM     24  C   UNL     1       4.633   5.003  18.919  0.00  0.00    +0.000 A 
ATOM     25  C   UNL     1       3.761   3.923  18.822  0.00  0.00    +0.000 A 
ATOM     26  C   UNL     1       2.423   4.142  18.479  0.00  0.00    +0.000 A 
ATOM     27  C   UNL     1       1.966   5.436  18.220  0.00  0.00    +0.000 A 
ATOM     28  O   UNL     1       1.506   3.132  18.342  0.00  0.00    +0.000 OA
ATOM     29  C   UNL     1       1.980   1.903  18.902  0.00  0.00    +0.000 C 
ATOM     30  C   UNL     1       3.431   1.649  18.536  0.00  0.00    +0.000 C 
ATOM     31  O   UNL     1       4.277   2.678  19.071  0.00  0.00    +0.000 OA
ENDBRANCH  20  22
ENDBRANCH  17  18
ENDBRANCH   1  17
TORSDOF 7
ENDMDL
MODEL 3
REMARK VINA RESULT:      -8.1      4.276      9.681
REMARK  Name = 
REMARK  9 active torsions:
REMARK  status: ('A' for Active; 'I' for Inactive)
REMARK    1  A    between atoms: C_1  and  C_2
REMARK    2  A    between atoms: C_2  and  N_3
REMARK    3  A    between atoms: N_3  and  C_4
REMARK    4  A    between atoms: C_4  and  C_5
REMARK    5  A    between atoms: N_7  and  C_8
REMARK    6  A    between atoms: C_18  and  C_20
REMARK    7  A    between atoms: C_23  and  C_24
REMARK    8  A    between atoms: C_24  and  S_25
REMARK    9  A    between atoms: S_25  and  C_26
REMARK                            x       y       z     vdW  Elec       q    Type
REMARK                         _______ _______ _______ _____ _____    ______ ____
ROOT
ATOM      1  N   UNL     1      -0.105  10.882  19.170  0.00  0.00    +0.000 N 
ATOM      2  C   UNL     1       0.094  12.183  18.679  0.00  0.00    +0.000 C 
ATOM      3  O   UNL     1      -0.801  12.790  18.084  0.00  0.00    +0.000 OA
ENDROOT
BRANCH   2   4
ATOM      4  C   UNL     1       1.350  12.954  18.934  0.00  0.00    +0.000 A 
ATOM      5  C   UNL     1       2.351  13.167  17.988  0.00  0.00    +0.000 A 
ATOM      6  C   UNL     1       3.496  13.899  18.318  0.00  0.00    +0.000 A 
ATOM      7  C   UNL     1       3.628  14.505  19.574  0.00  0.00    +0.000 A 
ATOM      8  C   UNL     1       2.605  14.331  20.513  0.00  0.00    +0.000 A 
ATOM      9  C   UNL     1       1.480  13.563  20.192  0.00  0.00    +0.000 A 
BRANCH   7  10
ATOM     10  C   UNL     1       4.839  15.344  19.876  0.00  0.00    +0.000 C 
BRANCH  10  11
ATOM     11  S   UNL     1       4.494  17.086  19.610  0.00  0.00    +0.000 S 
ATOM     12  C   UNL     1       4.111  17.727  21.224  0.00  0.00    +0.000 C 
ATOM     13  O   UNL     1       5.743  17.705  19.201  0.00  0.00    +0.000 OA
ATOM     14  O   UNL     1       3.313  17.230  18.778  0.00  0.00    +0.000 OA
ENDBRANCH  10  11
ENDBRANCH   7  10
ENDBRANCH   2   4
BRANCH   1  16
ATOM     15  C   UNL     1      -1.528  10.004  17.298  0.00  0.00    +0.000 C 
ATOM     16  C   UNL     1      -1.372  10.238  18.796  0.00  0.00    +0.000 C 
ENDBRANCH   1  16
BRANCH   1  17
ATOM     17  C   UNL     1       0.949   9.993  19.697  0.00  0.00    +0.000 C 
BRANCH  17  18
ATOM     18  C   UNL     1       1.673   9.078  18.693  0.00  0.00    +0.000 C 
ATOM     19  O   UNL     1       1.657   9.348  17.493  0.00  0.00    +0.000 OA
ATOM     20  N   UNL     1       2.150   7.893  19.229  0.00  0.00    +0.000 N 
ATOM     21  H   UNL     1       1.805   7.653  20.152  0.00  0.00    +0.000 HD
BRANCH  20  22
ATOM     22  C   UNL     1       2.743   6.867  18.463  0.00  0.00    +0.000 A 
ATOM     23  C   UNL     1       2.263   5.553  18.454  0.00  0.00    +0.000 A 
ATOM     24  C   UNL     1       2.911   4.568  17.698  0.00  0.00    +0.000 A 
ATOM     25  C   UNL     1       4.063   4.882  16.983  0.00  0.00    +0.000 A 
ATOM     26  C   UNL     1       4.532   6.199  16.973  0.00  0.00    +0.000 A 
ATOM     27  C   UNL     1       3.859   7.192  17.688  0.00  0.00    +0.000 A 
ATOM     28  O   UNL     1       5.670   6.587  16.314  0.00  0.00    +0.000 OA
ATOM     29  C   UNL     1       6.117   5.590  15.390  0.00  0.00    +0.000 C 
ATOM     30  C   UNL     1       6.042   4.200  15.996  0.00  0.00    +0.000 C 
ATOM     31  O   UNL     1       4.686   3.858  16.319  0.00  0.00    +0.000 OA
ENDBRANCH  20  22
ENDBRANCH  17  18
ENDBRANCH   1  17
TORSDOF 7
ENDMDL
MODEL 4
REMARK VINA RESULT:      -8.0      4.080      6.338
REMARK  Name = 
REMARK  9 active torsions:
REMARK  status: ('A' for Active; 'I' for Inactive)
REMARK    1  A    between atoms: C_1  and  C_2
REMARK    2  A    between atoms: C_2  and  N_3
REMARK    3  A    between atoms: N_3  and  C_4
REMARK    4  A    between atoms: C_4  and  C_5
REMARK    5  A    between atoms: N_7  and  C_8
REMARK    6  A    between atoms: C_18  and  C_20
REMARK    7  A    between atoms: C_23  and  C_24
REMARK    8  A    between atoms: C_24  and  S_25
REMARK    9  A    between atoms: S_25  and  C_26
REMARK                            x       y       z     vdW  Elec       q    Type
REMARK                         _______ _______ _______ _____ _____    ______ ____
ROOT
ATOM      1  N   UNL     1       0.562  10.547  20.655  0.00  0.00    +0.000 N 
ATOM      2  C   UNL     1       1.110   9.361  21.171  0.00  0.00    +0.000 C 
ATOM      3  O   UNL     1       1.156   9.148  22.386  0.00  0.00    +0.000 OA
ENDROOT
BRANCH   2   4
ATOM      4  C   UNL     1       1.570   8.241  20.293  0.00  0.00    +0.000 A 
ATOM      5  C   UNL     1       2.060   8.403  18.999  0.00  0.00    +0.000 A 
ATOM      6  C   UNL     1       2.465   7.295  18.249  0.00  0.00    +0.000 A 
ATOM      7  C   UNL     1       2.465   6.009  18.804  0.00  0.00    +0.000 A 
ATOM      8  C   UNL     1       2.014   5.846  20.118  0.00  0.00    +0.000 A 
ATOM      9  C   UNL     1       1.572   6.953  20.852  0.00  0.00    +0.000 A 
BRANCH   7  10
ATOM     10  C   UNL     1       2.971   4.845  17.996  0.00  0.00    +0.000 C 
BRANCH  10  11
ATOM     11  S   UNL     1       4.628   4.382  18.507  0.00  0.00    +0.000 S 
ATOM     12  C   UNL     1       4.405   2.951  19.539  0.00  0.00    +0.000 C 
ATOM     13  O   UNL     1       5.326   3.931  17.316  0.00  0.00    +0.000 OA
ATOM     14  O   UNL     1       5.203   5.437  19.322  0.00  0.00    +0.000 OA
ENDBRANCH  10  11
ENDBRANCH   7  10
ENDBRANCH   2   4
BRANCH   1  16
ATOM     15  C   UNL     1      -1.205  11.414  22.212  0.00  0.00    +0.000 C 
ATOM     16  C   UNL     1       0.200  11.573  21.644  0.00  0.00    +0.000 C 
ENDBRANCH   1  16
BRANCH   1  17
ATOM     17  C   UNL     1       0.652  10.995  19.252  0.00  0.00    +0.000 C 
BRANCH  17  18
ATOM     18  C   UNL     1      -0.613  11.603  18.618  0.00  0.00    +0.000 C 
ATOM     19  O   UNL     1      -0.614  12.780  18.258  0.00  0.00    +0.000 OA
ATOM     20  N   UNL     1      -1.734  10.792  18.671  0.00  0.00    +0.000 N 
ATOM     21  H   UNL     1      -1.672   9.990  19.287  0.00  0.00    +0.000 HD
BRANCH  20  22
ATOM     22  C   UNL     1      -3.018  11.200  18.250  0.00  0.00    +0.000 A 
ATOM     23  C   UNL     1      -3.477  11.023  16.940  0.00  0.00    +0.000 A 
ATOM     24  C   UNL     1      -4.749  11.476  16.568  0.00  0.00    +0.000 A 
ATOM     25  C   UNL     1      -5.548  12.143  17.492  0.00  0.00    +0.000 A 
ATOM     26  C   UNL     1      -5.101  12.302  18.807  0.00  0.00    +0.000 A 
ATOM     27  C   UNL     1      -3.853  11.808  19.190  0.00  0.00    +0.000 A 
ATOM     28  O   UNL     1      -5.816  12.965  19.770  0.00  0.00    +0.000 OA
ATOM     29  C   UNL     1      -7.177  13.173  19.376  0.00  0.00    +0.000 C 
ATOM     30  C   UNL     1      -7.272  13.626  17.930  0.00  0.00    +0.000 C 
ATOM     31  O   UNL     1      -6.754  12.620  17.047  0.00  0.00    +0.000 OA
ENDBRANCH  20  22
ENDBRANCH  17  18
ENDBRANCH   1  17
TORSDOF 7
ENDMDL
MODEL 5
REMARK VINA RESULT:      -8.0      3.728      5.055
REMARK  Name = 
REMARK  9 active torsions:
REMARK  status: ('A' for Active; 'I' for Inactive)
REMARK    1  A    between atoms: C_1  and  C_2
REMARK    2  A    between atoms: C_2  and  N_3
REMARK    3  A    between atoms: N_3  and  C_4
REMARK    4  A    between atoms: C_4  and  C_5
REMARK    5  A    between atoms: N_7  and  C_8
REMARK    6  A    between atoms: C_18  and  C_20
REMARK    7  A    between atoms: C_23  and  C_24
REMARK    8  A    between atoms: C_24  and  S_25
REMARK    9  A    between atoms: S_25  and  C_26
REMARK                            x       y       z     vdW  Elec       q    Type
REMARK                         _______ _______ _______ _____ _____    ______ ____
ROOT
ATOM      1  N   UNL     1       0.939   8.717  19.935  0.00  0.00    +0.000 N 
ATOM      2  C   UNL     1       1.670   7.529  20.095  0.00  0.00    +0.000 C 
ATOM      3  O   UNL     1       1.517   6.806  21.085  0.00  0.00    +0.000 OA
ENDROOT
BRANCH   2   4
ATOM      4  C   UNL     1       2.593   7.006  19.041  0.00  0.00    +0.000 A 
ATOM      5  C   UNL     1       3.240   7.798  18.095  0.00  0.00    +0.000 A 
ATOM      6  C   UNL     1       4.084   7.220  17.142  0.00  0.00    +0.000 A 
ATOM      7  C   UNL     1       4.365   5.848  17.164  0.00  0.00    +0.000 A 
ATOM      8  C   UNL     1       3.751   5.054  18.138  0.00  0.00    +0.000 A 
ATOM      9  C   UNL     1       2.875   5.630  19.065  0.00  0.00    +0.000 A 
BRANCH   7  10
ATOM     10  C   UNL     1       5.331   5.266  16.169  0.00  0.00    +0.000 C 
BRANCH  10  11
ATOM     11  S   UNL     1       7.028   5.543  16.685  0.00  0.00    +0.000 S 
ATOM     12  C   UNL     1       7.033   5.214  18.432  0.00  0.00    +0.000 C 
ATOM     13  O   UNL     1       7.832   4.506  16.063  0.00  0.00    +0.000 OA
ATOM     14  O   UNL     1       7.377   6.939  16.490  0.00  0.00    +0.000 OA
ENDBRANCH  10  11
ENDBRANCH   7  10
ENDBRANCH   2   4
BRANCH   1  16
ATOM     15  C   UNL     1       0.830  10.025  22.075  0.00  0.00    +0.000 C 
ATOM     16  C   UNL     1       0.110   9.123  21.079  0.00  0.00    +0.000 C 
ENDBRANCH   1  16
BRANCH   1  17
ATOM     17  C   UNL     1       1.194   9.752  18.914  0.00  0.00    +0.000 C 
BRANCH  17  18
ATOM     18  C   UNL     1       0.000  10.611  18.459  0.00  0.00    +0.000 C 
ATOM     19  O   UNL     1      -0.004  11.822  18.680  0.00  0.00    +0.000 OA
ATOM     20  N   UNL     1      -1.082   9.892  17.980  0.00  0.00    +0.000 N 
ATOM     21  H   UNL     1      -1.068   8.896  18.163  0.00  0.00    +0.000 HD
BRANCH  20  22
ATOM     22  C   UNL     1      -2.314  10.477  17.618  0.00  0.00    +0.000 A 
ATOM     23  C   UNL     1      -2.750  10.565  16.291  0.00  0.00    +0.000 A 
ATOM     24  C   UNL     1      -3.969  11.185  15.987  0.00  0.00    +0.000 A 
ATOM     25  C   UNL     1      -4.734  11.755  17.000  0.00  0.00    +0.000 A 
ATOM     26  C   UNL     1      -4.311  11.650  18.328  0.00  0.00    +0.000 A 
ATOM     27  C   UNL     1      -3.120  10.990  18.637  0.00  0.00    +0.000 A 
ATOM     28  O   UNL     1      -4.993  12.201  19.382  0.00  0.00    +0.000 OA
ATOM     29  C   UNL     1      -6.320  12.592  19.011  0.00  0.00    +0.000 C 
ATOM     30  C   UNL     1      -6.336  13.289  17.663  0.00  0.00    +0.000 C 
ATOM     31  O   UNL     1      -5.882  12.405  16.628  0.00  0.00    +0.000 OA
ENDBRANCH  20  22
ENDBRANCH  17  18
ENDBRANCH   1  17
TORSDOF 7
ENDMDL
MODEL 6
REMARK VINA RESULT:      -7.9      4.250      9.414
REMARK  Name = 
REMARK  9 active torsions:
REMARK  status: ('A' for Active; 'I' for Inactive)
REMARK    1  A    between atoms: C_1  and  C_2
REMARK    2  A    between atoms: C_2  and  N_3
REMARK    3  A    between atoms: N_3  and  C_4
REMARK    4  A    between atoms: C_4  and  C_5
REMARK    5  A    between atoms: N_7  and  C_8
REMARK    6  A    between atoms: C_18  and  C_20
REMARK    7  A    between atoms: C_23  and  C_24
REMARK    8  A    between atoms: C_24  and  S_25
REMARK    9  A    between atoms: S_25  and  C_26
REMARK                            x       y       z     vdW  Elec       q    Type
REMARK                         _______ _______ _______ _____ _____    ______ ____
ROOT
ATOM      1  N   UNL     1      -0.097  10.672  18.703  0.00  0.00    +0.000 N 
ATOM      2  C   UNL     1      -0.126  11.997  19.169  0.00  0.00    +0.000 C 
ATOM      3  O   UNL     1      -1.177  12.525  19.544  0.00  0.00    +0.000 OA
ENDROOT
BRANCH   2   4
ATOM      4  C   UNL     1       1.114  12.814  19.345  0.00  0.00    +0.000 A 
ATOM      5  C   UNL     1       1.807  12.949  20.546  0.00  0.00    +0.000 A 
ATOM      6  C   UNL     1       2.958  13.739  20.617  0.00  0.00    +0.000 A 
ATOM      7  C   UNL     1       3.490  14.345  19.471  0.00  0.00    +0.000 A 
ATOM      8  C   UNL     1       2.821  14.178  18.254  0.00  0.00    +0.000 A 
ATOM      9  C   UNL     1       1.647  13.419  18.195  0.00  0.00    +0.000 A 
BRANCH   7  10
ATOM     10  C   UNL     1       4.768  15.132  19.566  0.00  0.00    +0.000 C 
BRANCH  10  11
ATOM     11  S   UNL     1       4.446  16.818  20.091  0.00  0.00    +0.000 S 
ATOM     12  C   UNL     1       6.010  17.651  19.937  0.00  0.00    +0.000 C 
ATOM     13  O   UNL     1       3.561  17.406  19.101  0.00  0.00    +0.000 OA
ATOM     14  O   UNL     1       4.068  16.831  21.493  0.00  0.00    +0.000 OA
ENDBRANCH  10  11
ENDBRANCH   7  10
ENDBRANCH   2   4
BRANCH   1  16
ATOM     15  C   UNL     1      -1.908   9.994  17.102  0.00  0.00    +0.000 C 
ATOM     16  C   UNL     1      -1.403  10.017  18.540  0.00  0.00    +0.000 C 
ENDBRANCH   1  16
BRANCH   1  17
ATOM     17  C   UNL     1       1.048  10.022  18.036  0.00  0.00    +0.000 C 
BRANCH  17  18
ATOM     18  C   UNL     1       1.661   8.787  18.722  0.00  0.00    +0.000 C 
ATOM     19  O   UNL     1       1.660   8.702  19.949  0.00  0.00    +0.000 OA
ATOM     20  N   UNL     1       2.341   7.931  17.872  0.00  0.00    +0.000 N 
ATOM     21  H   UNL     1       2.544   8.292  16.947  0.00  0.00    +0.000 HD
BRANCH  20  22
ATOM     22  C   UNL     1       3.068   6.804  18.311  0.00  0.00    +0.000 A 
ATOM     23  C   UNL     1       4.426   6.620  18.026  0.00  0.00    +0.000 A 
ATOM     24  C   UNL     1       5.090   5.465  18.460  0.00  0.00    +0.000 A 
ATOM     25  C   UNL     1       4.391   4.474  19.143  0.00  0.00    +0.000 A 
ATOM     26  C   UNL     1       3.040   4.664  19.447  0.00  0.00    +0.000 A 
ATOM     27  C   UNL     1       2.389   5.836  19.056  0.00  0.00    +0.000 A 
ATOM     28  O   UNL     1       2.275   3.729  20.095  0.00  0.00    +0.000 OA
ATOM     29  C   UNL     1       3.078   2.713  20.703  0.00  0.00    +0.000 C 
ATOM     30  C   UNL     1       4.190   2.256  19.776  0.00  0.00    +0.000 C 
ATOM     31  O   UNL     1       5.083   3.340  19.481  0.00  0.00    +0.000 OA
ENDBRANCH  20  22
ENDBRANCH  17  18
ENDBRANCH   1  17
TORSDOF 7
ENDMDL
MODEL 7
REMARK VINA RESULT:      -7.8      3.563      6.045
REMARK  Name = 
REMARK  9 active torsions:
REMARK  status: ('A' for Active; 'I' for Inactive)
REMARK    1  A    between atoms: C_1  and  C_2
REMARK    2  A    between atoms: C_2  and  N_3
REMARK    3  A    between atoms: N_3  and  C_4
REMARK    4  A    between atoms: C_4  and  C_5
REMARK    5  A    between atoms: N_7  and  C_8
REMARK    6  A    between atoms: C_18  and  C_20
REMARK    7  A    between atoms: C_23  and  C_24
REMARK    8  A    between atoms: C_24  and  S_25
REMARK    9  A    between atoms: S_25  and  C_26
REMARK                            x       y       z     vdW  Elec       q    Type
REMARK                         _______ _______ _______ _____ _____    ______ ____
ROOT
ATOM      1  N   UNL     1       0.692  10.112  19.460  0.00  0.00    +0.000 N 
ATOM      2  C   UNL     1       1.533   9.379  18.607  0.00  0.00    +0.000 C 
ATOM      3  O   UNL     1       1.946   9.856  17.545  0.00  0.00    +0.000 OA
ENDROOT
BRANCH   2   4
ATOM      4  C   UNL     1       2.069   8.031  18.970  0.00  0.00    +0.000 A 
ATOM      5  C   UNL     1       1.742   7.339  20.135  0.00  0.00    +0.000 A 
ATOM      6  C   UNL     1       2.296   6.083  20.394  0.00  0.00    +0.000 A 
ATOM      7  C   UNL     1       3.125   5.452  19.457  0.00  0.00    +0.000 A 
ATOM      8  C   UNL     1       3.422   6.124  18.267  0.00  0.00    +0.000 A 
ATOM      9  C   UNL     1       2.898   7.399  18.029  0.00  0.00    +0.000 A 
BRANCH   7  10
ATOM     10  C   UNL     1       3.650   4.070  19.733  0.00  0.00    +0.000 C 
BRANCH  10  11
ATOM     11  S   UNL     1       2.383   2.832  19.442  0.00  0.00    +0.000 S 
ATOM     12  C   UNL     1       1.318   3.549  18.211  0.00  0.00    +0.000 C 
ATOM     13  O   UNL     1       3.038   1.698  18.816  0.00  0.00    +0.000 OA
ATOM     14  O   UNL     1       1.602   2.636  20.651  0.00  0.00    +0.000 OA
ENDBRANCH  10  11
ENDBRANCH   7  10
ENDBRANCH   2   4
BRANCH   1  16
ATOM     15  C   UNL     1      -1.105  11.307  18.178  0.00  0.00    +0.000 C 
ATOM     16  C   UNL     1       0.211  11.400  18.942  0.00  0.00    +0.000 C 
ENDBRANCH   1  16
BRANCH   1  17
ATOM     17  C   UNL     1      -0.026   9.570  20.631  0.00  0.00    +0.000 C 
BRANCH  17  18
ATOM     18  C   UNL     1      -0.282  10.524  21.811  0.00  0.00    +0.000 C 
ATOM     19  O   UNL     1       0.282  10.334  22.888  0.00  0.00    +0.000 OA
ATOM     20  N   UNL     1      -1.295  11.445  21.603  0.00  0.00    +0.000 N 
ATOM     21  H   UNL     1      -1.893  11.273  20.802  0.00  0.00    +0.000 HD
BRANCH  20  22
ATOM     22  C   UNL     1      -1.764  12.334  22.593  0.00  0.00    +0.000 A 
ATOM     23  C   UNL     1      -3.027  12.215  23.183  0.00  0.00    +0.000 A 
ATOM     24  C   UNL     1      -3.452  13.146  24.139  0.00  0.00    +0.000 A 
ATOM     25  C   UNL     1      -2.636  14.221  24.477  0.00  0.00    +0.000 A 
ATOM     26  C   UNL     1      -1.365  14.331  23.904  0.00  0.00    +0.000 A 
ATOM     27  C   UNL     1      -0.922  13.377  22.987  0.00  0.00    +0.000 A 
ATOM     28  O   UNL     1      -0.509  15.370  24.166  0.00  0.00    +0.000 OA
ATOM     29  C   UNL     1      -0.919  16.123  25.312  0.00  0.00    +0.000 C 
ATOM     30  C   UNL     1      -2.416  16.371  25.306  0.00  0.00    +0.000 C 
ATOM     31  O   UNL     1      -3.139  15.132  25.368  0.00  0.00    +0.000 OA
ENDBRANCH  20  22
ENDBRANCH  17  18
ENDBRANCH   1  17
TORSDOF 7
ENDMDL
MODEL 8
REMARK VINA RESULT:      -7.8      4.104      6.501
REMARK  Name = 
REMARK  9 active torsions:
REMARK  status: ('A' for Active; 'I' for Inactive)
REMARK    1  A    between atoms: C_1  and  C_2
REMARK    2  A    between atoms: C_2  and  N_3
REMARK    3  A    between atoms: N_3  and  C_4
REMARK    4  A    between atoms: C_4  and  C_5
REMARK    5  A    between atoms: N_7  and  C_8
REMARK    6  A    between atoms: C_18  and  C_20
REMARK    7  A    between atoms: C_23  and  C_24
REMARK    8  A    between atoms: C_24  and  S_25
REMARK    9  A    between atoms: S_25  and  C_26
REMARK                            x       y       z     vdW  Elec       q    Type
REMARK                         _______ _______ _______ _____ _____    ______ ____
ROOT
ATOM      1  N   UNL     1       0.533  10.306  20.590  0.00  0.00    +0.000 N 
ATOM      2  C   UNL     1       1.138   9.207  21.223  0.00  0.00    +0.000 C 
ATOM      3  O   UNL     1       1.215   9.134  22.453  0.00  0.00    +0.000 OA
ENDROOT
BRANCH   2   4
ATOM      4  C   UNL     1       1.629   8.015  20.465  0.00  0.00    +0.000 A 
ATOM      5  C   UNL     1       2.218   8.068  19.203  0.00  0.00    +0.000 A 
ATOM      6  C   UNL     1       2.644   6.898  18.568  0.00  0.00    +0.000 A 
ATOM      7  C   UNL     1       2.565   5.657  19.213  0.00  0.00    +0.000 A 
ATOM      8  C   UNL     1       2.014   5.603  20.497  0.00  0.00    +0.000 A 
ATOM      9  C   UNL     1       1.552   6.771  21.113  0.00  0.00    +0.000 A 
BRANCH   7  10
ATOM     10  C   UNL     1       3.095   4.425  18.531  0.00  0.00    +0.000 C 
BRANCH  10  11
ATOM     11  S   UNL     1       1.753   3.410  17.906  0.00  0.00    +0.000 S 
ATOM     12  C   UNL     1       0.897   2.842  19.357  0.00  0.00    +0.000 C 
ATOM     13  O   UNL     1       0.843   4.300  17.207  0.00  0.00    +0.000 OA
ATOM     14  O   UNL     1       2.295   2.250  17.221  0.00  0.00    +0.000 OA
ENDBRANCH  10  11
ENDBRANCH   7  10
ENDBRANCH   2   4
BRANCH   1  16
ATOM     15  C   UNL     1      -1.228  11.257  22.105  0.00  0.00    +0.000 C 
ATOM     16  C   UNL     1       0.146  11.421  21.465  0.00  0.00    +0.000 C 
ENDBRANCH   1  16
BRANCH   1  17
ATOM     17  C   UNL     1       0.579  10.596  19.143  0.00  0.00    +0.000 C 
BRANCH  17  18
ATOM     18  C   UNL     1      -0.642  11.297  18.521  0.00  0.00    +0.000 C 
ATOM     19  O   UNL     1      -0.572  12.482  18.196  0.00  0.00    +0.000 OA
ATOM     20  N   UNL     1      -1.810  10.552  18.542  0.00  0.00    +0.000 N 
ATOM     21  H   UNL     1      -1.801   9.730  19.133  0.00  0.00    +0.000 HD
BRANCH  20  22
ATOM     22  C   UNL     1      -3.064  11.048  18.124  0.00  0.00    +0.000 A 
ATOM     23  C   UNL     1      -3.541  10.898  16.818  0.00  0.00    +0.000 A 
ATOM     24  C   UNL     1      -4.780  11.438  16.450  0.00  0.00    +0.000 A 
ATOM     25  C   UNL     1      -5.525  12.165  17.374  0.00  0.00    +0.000 A 
ATOM     26  C   UNL     1      -5.061  12.298  18.686  0.00  0.00    +0.000 A 
ATOM     27  C   UNL     1      -3.848  11.719  19.065  0.00  0.00    +0.000 A 
ATOM     28  O   UNL     1      -5.722  13.015  19.650  0.00  0.00    +0.000 OA
ATOM     29  C   UNL     1      -7.066  13.317  19.261  0.00  0.00    +0.000 C 
ATOM     30  C   UNL     1      -7.137  13.768  17.814  0.00  0.00    +0.000 C 
ATOM     31  O   UNL     1      -6.697  12.723  16.933  0.00  0.00    +0.000 OA
ENDBRANCH  20  22
ENDBRANCH  17  18
ENDBRANCH   1  17
TORSDOF 7
ENDMDL
MODEL 9
REMARK VINA RESULT:      -7.8      3.406      5.914
REMARK  Name = 
REMARK  9 active torsions:
REMARK  status: ('A' for Active; 'I' for Inactive)
REMARK    1  A    between atoms: C_1  and  C_2
REMARK    2  A    between atoms: C_2  and  N_3
REMARK    3  A    between atoms: N_3  and  C_4
REMARK    4  A    between atoms: C_4  and  C_5
REMARK    5  A    between atoms: N_7  and  C_8
REMARK    6  A    between atoms: C_18  and  C_20
REMARK    7  A    between atoms: C_23  and  C_24
REMARK    8  A    between atoms: C_24  and  S_25
REMARK    9  A    between atoms: S_25  and  C_26
REMARK                            x       y       z     vdW  Elec       q    Type
REMARK                         _______ _______ _______ _____ _____    ______ ____
ROOT
ATOM      1  N   UNL     1       0.849  10.173  19.631  0.00  0.00    +0.000 N 
ATOM      2  C   UNL     1       1.653   9.362  18.812  0.00  0.00    +0.000 C 
ATOM      3  O   UNL     1       2.262   9.827  17.844  0.00  0.00    +0.000 OA
ENDROOT
BRANCH   2   4
ATOM      4  C   UNL     1       1.910   7.920  19.115  0.00  0.00    +0.000 A 
ATOM      5  C   UNL     1       1.778   7.343  20.376  0.00  0.00    +0.000 A 
ATOM      6  C   UNL     1       2.044   5.984  20.567  0.00  0.00    +0.000 A 
ATOM      7  C   UNL     1       2.368   5.153  19.486  0.00  0.00    +0.000 A 
ATOM      8  C   UNL     1       2.461   5.720  18.210  0.00  0.00    +0.000 A 
ATOM      9  C   UNL     1       2.233   7.088  18.031  0.00  0.00    +0.000 A 
BRANCH   7  10
ATOM     10  C   UNL     1       2.581   3.681  19.711  0.00  0.00    +0.000 C 
BRANCH  10  11
ATOM     11  S   UNL     1       4.236   3.190  19.220  0.00  0.00    +0.000 S 
ATOM     12  C   UNL     1       4.631   1.806  20.264  0.00  0.00    +0.000 C 
ATOM     13  O   UNL     1       4.138   2.675  17.865  0.00  0.00    +0.000 OA
ATOM     14  O   UNL     1       5.173   4.258  19.518  0.00  0.00    +0.000 OA
ENDBRANCH  10  11
ENDBRANCH   7  10
ENDBRANCH   2   4
BRANCH   1  16
ATOM     15  C   UNL     1      -0.609  11.763  18.348  0.00  0.00    +0.000 C 
ATOM     16  C   UNL     1       0.655  11.557  19.175  0.00  0.00    +0.000 C 
ENDBRANCH   1  16
BRANCH   1  17
ATOM     17  C   UNL     1      -0.082   9.689  20.669  0.00  0.00    +0.000 C 
BRANCH  17  18
ATOM     18  C   UNL     1      -0.365  10.623  21.860  0.00  0.00    +0.000 C 
ATOM     19  O   UNL     1       0.153  10.398  22.953  0.00  0.00    +0.000 OA
ATOM     20  N   UNL     1      -1.351  11.569  21.633  0.00  0.00    +0.000 N 
ATOM     21  H   UNL     1      -1.920  11.427  20.807  0.00  0.00    +0.000 HD
BRANCH  20  22
ATOM     22  C   UNL     1      -1.839  12.446  22.625  0.00  0.00    +0.000 A 
ATOM     23  C   UNL     1      -3.125  12.337  23.166  0.00  0.00    +0.000 A 
ATOM     24  C   UNL     1      -3.569  13.256  24.125  0.00  0.00    +0.000 A 
ATOM     25  C   UNL     1      -2.747  14.309  24.516  0.00  0.00    +0.000 A 
ATOM     26  C   UNL     1      -1.454  14.407  23.993  0.00  0.00    +0.000 A 
ATOM     27  C   UNL     1      -0.994  13.464  23.072  0.00  0.00    +0.000 A 
ATOM     28  O   UNL     1      -0.590  15.424  24.308  0.00  0.00    +0.000 OA
ATOM     29  C   UNL     1      -1.029  16.160  25.455  0.00  0.00    +0.000 C 
ATOM     30  C   UNL     1      -2.520  16.436  25.399  0.00  0.00    +0.000 C 
ATOM     31  O   UNL     1      -3.266  15.210  25.408  0.00  0.00    +0.000 OA
ENDBRANCH  20  22
ENDBRANCH  17  18
ENDBRANCH   1  17
TORSDOF 7
ENDMDL
