MODEL 1
REMARK VINA RESULT:      -9.2      0.000      0.000
REMARK  Name = 
REMARK  5 active torsions:
REMARK  status: ('A' for Active; 'I' for Inactive)
REMARK    1  A    between atoms: C_12  and  C_13
REMARK    2  A    between atoms: C_13  and  N_14
REMARK    3  A    between atoms: N_14  and  C_15
REMARK    4  A    between atoms: C_15  and  C_16
REMARK    5  A    between atoms: C_16  and  C_17
REMARK                            x       y       z     vdW  Elec       q    Type
REMARK                         _______ _______ _______ _____ _____    ______ ____
ROOT
ATOM      1  N   UNL     1       8.439  10.074  17.774  0.00  0.00    +0.000 NA
ATOM      2  H   UNL     1       9.092   9.925  17.002  0.00  0.00    +0.000 HD
ENDROOT
BRANCH   1   3
ATOM      3  C   UNL     1       9.199  10.124  19.028  0.00  0.00    +0.000 C 
BRANCH   3  15
ATOM      4  O   UNL     1       5.199  16.453  18.452  0.00  0.00    +0.000 OA
ATOM      5  C   UNL     1       6.120  15.743  18.847  0.00  0.00    +0.000 C 
ATOM      6  C   UNL     1       7.111  14.920  18.021  0.00  0.00    +0.000 C 
ATOM      7  C   UNL     1       7.950  14.282  19.091  0.00  0.00    +0.000 A 
ATOM      8  C   UNL     1       7.523  14.722  20.339  0.00  0.00    +0.000 A 
ATOM      9  C   UNL     1       8.099  14.323  21.525  0.00  0.00    +0.000 A 
ATOM     10  C   UNL     1       9.133  13.392  21.443  0.00  0.00    +0.000 A 
ATOM     11  C   UNL     1       9.531  12.883  20.193  0.00  0.00    +0.000 A 
ATOM     12  C   UNL     1       8.966  13.356  18.998  0.00  0.00    +0.000 A 
ATOM     13  O   UNL     1       9.314  12.898  17.760  0.00  0.00    +0.000 OA
ATOM     14  C   UNL     1      10.466  12.046  17.812  0.00  0.00    +0.000 C 
ATOM     15  C   UNL     1      10.419  11.087  19.002  0.00  0.00    +0.000 C 
ATOM     16  O   UNL     1      10.450  11.859  20.223  0.00  0.00    +0.000 OA
ATOM     17  N   UNL     1       6.448  15.573  20.186  0.00  0.00    +0.000 N 
ATOM     18  H   UNL     1       5.948  16.022  20.939  0.00  0.00    +0.000 HD
ENDBRANCH   3  15
ENDBRANCH   1   3
BRANCH   1  19
ATOM     19  C   UNL     1       7.452   8.987  17.747  0.00  0.00    +0.000 C 
BRANCH  19  20
ATOM     20  C   UNL     1       7.957   7.525  17.747  0.00  0.00    +0.000 C 
BRANCH  20  21
ATOM     21  C   UNL     1       6.933   6.386  17.519  0.00  0.00    +0.000 C 
ATOM     22  C   UNL     1       5.524   6.794  17.028  0.00  0.00    +0.000 C 
ATOM     23  C   UNL     1       4.692   5.507  16.669  0.00  0.00    +0.000 C 
ATOM     24  C   UNL     1       4.618   4.608  17.883  0.00  0.00    +0.000 A 
ATOM     25  C   UNL     1       5.411   4.969  18.956  0.00  0.00    +0.000 A 
ATOM     26  N   UNL     1       4.466   5.318  19.911  0.00  0.00    +0.000 N 
ATOM     27  C   UNL     1       3.239   4.768  19.562  0.00  0.00    +0.000 A 
ATOM     28  C   UNL     1       1.945   4.888  20.083  0.00  0.00    +0.000 A 
ATOM     29  C   UNL     1       0.987   3.967  19.649  0.00  0.00    +0.000 A 
ATOM     30  C   UNL     1       1.340   2.954  18.769  0.00  0.00    +0.000 A 
ATOM     31  F   UNL     1       0.464   1.972  18.517  0.00  0.00    +0.000 F 
ATOM     32  C   UNL     1       2.570   2.964  18.109  0.00  0.00    +0.000 A 
ATOM     33  C   UNL     1       3.499   3.960  18.457  0.00  0.00    +0.000 A 
ATOM     34  C   UNL     1       6.808   5.496  18.811  0.00  0.00    +0.000 C 
ATOM     35  H   UNL     1       4.616   5.944  20.689  0.00  0.00    +0.000 HD
ENDBRANCH  20  21
ENDBRANCH  19  20
ENDBRANCH   1  19
TORSDOF 5
ENDMDL
MODEL 2
REMARK VINA RESULT:      -9.2      6.844     10.269
REMARK  Name = 
REMARK  5 active torsions:
REMARK  status: ('A' for Active; 'I' for Inactive)
REMARK    1  A    between atoms: C_12  and  C_13
REMARK    2  A    between atoms: C_13  and  N_14
REMARK    3  A    between atoms: N_14  and  C_15
REMARK    4  A    between atoms: C_15  and  C_16
REMARK    5  A    between atoms: C_16  and  C_17
REMARK                            x       y       z     vdW  Elec       q    Type
REMARK                         _______ _______ _______ _____ _____    ______ ____
ROOT
ATOM      1  N   UNL     1       2.705   6.074  20.200  0.00  0.00    +0.000 NA
ATOM      2  H   UNL     1       3.440   6.702  19.867  0.00  0.00    +0.000 HD
ENDROOT
BRANCH   1   3
ATOM      3  C   UNL     1       2.365   5.137  19.123  0.00  0.00    +0.000 C 
BRANCH   3  15
ATOM      4  O   UNL     1       7.274   5.323  13.443  0.00  0.00    +0.000 OA
ATOM      5  C   UNL     1       6.874   5.036  14.569  0.00  0.00    +0.000 C 
ATOM      6  C   UNL     1       5.591   4.303  14.967  0.00  0.00    +0.000 C 
ATOM      7  C   UNL     1       5.693   4.293  16.465  0.00  0.00    +0.000 A 
ATOM      8  C   UNL     1       6.888   4.891  16.853  0.00  0.00    +0.000 A 
ATOM      9  C   UNL     1       7.279   5.029  18.166  0.00  0.00    +0.000 A 
ATOM     10  C   UNL     1       6.390   4.578  19.141  0.00  0.00    +0.000 A 
ATOM     11  C   UNL     1       5.147   4.034  18.769  0.00  0.00    +0.000 A 
ATOM     12  C   UNL     1       4.803   3.850  17.420  0.00  0.00    +0.000 A 
ATOM     13  O   UNL     1       3.613   3.330  17.004  0.00  0.00    +0.000 OA
ATOM     14  C   UNL     1       2.854   2.795  18.097  0.00  0.00    +0.000 C 
ATOM     15  C   UNL     1       2.910   3.696  19.331  0.00  0.00    +0.000 C 
ATOM     16  O   UNL     1       4.276   3.760  19.798  0.00  0.00    +0.000 OA
ATOM     17  N   UNL     1       7.570   5.327  15.735  0.00  0.00    +0.000 N 
ATOM     18  H   UNL     1       8.459   5.802  15.744  0.00  0.00    +0.000 HD
ENDBRANCH   3  15
ENDBRANCH   1   3
BRANCH   1  19
ATOM     19  C   UNL     1       1.564   6.898  20.621  0.00  0.00    +0.000 C 
BRANCH  19  20
ATOM     20  C   UNL     1       1.585   8.413  20.308  0.00  0.00    +0.000 C 
BRANCH  20  21
ATOM     21  C   UNL     1       0.986   9.394  21.345  0.00  0.00    +0.000 C 
ATOM     22  C   UNL     1      -0.364   8.998  21.989  0.00  0.00    +0.000 C 
ATOM     23  C   UNL     1      -0.717  10.006  23.145  0.00  0.00    +0.000 C 
ATOM     24  C   UNL     1      -0.761  11.410  22.585  0.00  0.00    +0.000 A 
ATOM     25  C   UNL     1      -0.316  11.560  21.285  0.00  0.00    +0.000 A 
ATOM     26  N   UNL     1      -1.482  11.910  20.618  0.00  0.00    +0.000 N 
ATOM     27  C   UNL     1      -2.417  12.364  21.541  0.00  0.00    +0.000 A 
ATOM     28  C   UNL     1      -3.766  12.728  21.447  0.00  0.00    +0.000 A 
ATOM     29  C   UNL     1      -4.327  13.408  22.532  0.00  0.00    +0.000 A 
ATOM     30  C   UNL     1      -3.545  13.738  23.630  0.00  0.00    +0.000 A 
ATOM     31  F   UNL     1      -4.046  14.554  24.567  0.00  0.00    +0.000 F 
ATOM     32  C   UNL     1      -2.267  13.202  23.796  0.00  0.00    +0.000 A 
ATOM     33  C   UNL     1      -1.738  12.419  22.756  0.00  0.00    +0.000 A 
ATOM     34  C   UNL     1       0.877  10.839  20.731  0.00  0.00    +0.000 C 
ATOM     35  H   UNL     1      -1.663  11.775  19.633  0.00  0.00    +0.000 HD
ENDBRANCH  20  21
ENDBRANCH  19  20
ENDBRANCH   1  19
TORSDOF 5
ENDMDL
MODEL 3
REMARK VINA RESULT:      -9.2      7.143     10.089
REMARK  Name = 
REMARK  5 active torsions:
REMARK  status: ('A' for Active; 'I' for Inactive)
REMARK    1  A    between atoms: C_12  and  C_13
REMARK    2  A    between atoms: C_13  and  N_14
REMARK    3  A    between atoms: N_14  and  C_15
REMARK    4  A    between atoms: C_15  and  C_16
REMARK    5  A    between atoms: C_16  and  C_17
REMARK                            x       y       z     vdW  Elec       q    Type
REMARK                         _______ _______ _______ _____ _____    ______ ____
ROOT
ATOM      1  N   UNL     1       1.886   7.466  18.003  0.00  0.00    +0.000 NA
ATOM      2  H   UNL     1       1.017   7.090  18.386  0.00  0.00    +0.000 HD
ENDROOT
BRANCH   1   3
ATOM      3  C   UNL     1       2.983   7.146  18.925  0.00  0.00    +0.000 C 
BRANCH   3  15
ATOM      4  O   UNL     1       7.097   4.510  13.223  0.00  0.00    +0.000 OA
ATOM      5  C   UNL     1       6.728   4.596  14.391  0.00  0.00    +0.000 C 
ATOM      6  C   UNL     1       5.312   4.463  14.956  0.00  0.00    +0.000 C 
ATOM      7  C   UNL     1       5.542   4.688  16.423  0.00  0.00    +0.000 A 
ATOM      8  C   UNL     1       6.901   4.872  16.656  0.00  0.00    +0.000 A 
ATOM      9  C   UNL     1       7.436   5.094  17.906  0.00  0.00    +0.000 A 
ATOM     10  C   UNL     1       6.538   5.181  18.970  0.00  0.00    +0.000 A 
ATOM     11  C   UNL     1       5.155   5.066  18.742  0.00  0.00    +0.000 A 
ATOM     12  C   UNL     1       4.646   4.778  17.466  0.00  0.00    +0.000 A 
ATOM     13  O   UNL     1       3.315   4.658  17.189  0.00  0.00    +0.000 OA
ATOM     14  C   UNL     1       2.522   4.641  18.383  0.00  0.00    +0.000 C 
ATOM     15  C   UNL     1       3.004   5.669  19.407  0.00  0.00    +0.000 C 
ATOM     16  O   UNL     1       4.343   5.317  19.824  0.00  0.00    +0.000 OA
ATOM     17  N   UNL     1       7.586   4.822  15.459  0.00  0.00    +0.000 N 
ATOM     18  H   UNL     1       8.583   4.936  15.354  0.00  0.00    +0.000 HD
ENDBRANCH   3  15
ENDBRANCH   1   3
BRANCH   1  19
ATOM     19  C   UNL     1       1.706   8.911  17.810  0.00  0.00    +0.000 C 
BRANCH  19  20
ATOM     20  C   UNL     1       0.921   9.711  18.876  0.00  0.00    +0.000 C 
BRANCH  20  21
ATOM     21  C   UNL     1      -0.252  10.611  18.414  0.00  0.00    +0.000 C 
ATOM     22  C   UNL     1      -1.140  11.230  19.518  0.00  0.00    +0.000 C 
ATOM     23  C   UNL     1      -2.146  12.258  18.878  0.00  0.00    +0.000 C 
ATOM     24  C   UNL     1      -2.976  11.552  17.829  0.00  0.00    +0.000 A 
ATOM     25  C   UNL     1      -2.586  10.266  17.509  0.00  0.00    +0.000 A 
ATOM     26  N   UNL     1      -3.651   9.513  17.985  0.00  0.00    +0.000 N 
ATOM     27  C   UNL     1      -4.756  10.339  18.149  0.00  0.00    +0.000 A 
ATOM     28  C   UNL     1      -6.031  10.147  18.696  0.00  0.00    +0.000 A 
ATOM     29  C   UNL     1      -6.995  11.127  18.445  0.00  0.00    +0.000 A 
ATOM     30  C   UNL     1      -6.689  12.219  17.645  0.00  0.00    +0.000 A 
ATOM     31  F   UNL     1      -7.673  13.042  17.258  0.00  0.00    +0.000 F 
ATOM     32  C   UNL     1      -5.373  12.499  17.274  0.00  0.00    +0.000 A 
ATOM     33  C   UNL     1      -4.376  11.572  17.624  0.00  0.00    +0.000 A 
ATOM     34  C   UNL     1      -1.152   9.845  17.375  0.00  0.00    +0.000 C 
ATOM     35  H   UNL     1      -3.614   8.541  18.255  0.00  0.00    +0.000 HD
ENDBRANCH  20  21
ENDBRANCH  19  20
ENDBRANCH   1  19
TORSDOF 5
ENDMDL
MODEL 4
REMARK VINA RESULT:      -9.1      1.220      1.243
REMARK  Name = 
REMARK  5 active torsions:
REMARK  status: ('A' for Active; 'I' for Inactive)
REMARK    1  A    between atoms: C_12  and  C_13
REMARK    2  A    between atoms: C_13  and  N_14
REMARK    3  A    between atoms: N_14  and  C_15
REMARK    4  A    between atoms: C_15  and  C_16
REMARK    5  A    between atoms: C_16  and  C_17
REMARK                            x       y       z     vdW  Elec       q    Type
REMARK                         _______ _______ _______ _____ _____    ______ ____
ROOT
ATOM      1  N   UNL     1       8.551   9.845  18.109  0.00  0.00    +0.000 NA
ATOM      2  H   UNL     1       9.216   9.799  17.334  0.00  0.00    +0.000 HD
ENDROOT
BRANCH   1   3
ATOM      3  C   UNL     1       9.233  10.407  19.280  0.00  0.00    +0.000 C 
BRANCH   3  15
ATOM      4  O   UNL     1       6.593  17.392  18.482  0.00  0.00    +0.000 OA
ATOM      5  C   UNL     1       7.398  16.532  18.831  0.00  0.00    +0.000 C 
ATOM      6  C   UNL     1       8.051  15.437  17.985  0.00  0.00    +0.000 C 
ATOM      7  C   UNL     1       8.900  14.727  19.000  0.00  0.00    +0.000 A 
ATOM      8  C   UNL     1       8.779  15.363  20.232  0.00  0.00    +0.000 A 
ATOM      9  C   UNL     1       9.443  14.954  21.368  0.00  0.00    +0.000 A 
ATOM     10  C   UNL     1      10.234  13.811  21.260  0.00  0.00    +0.000 A 
ATOM     11  C   UNL     1      10.312  13.116  20.040  0.00  0.00    +0.000 A 
ATOM     12  C   UNL     1       9.674  13.593  18.884  0.00  0.00    +0.000 A 
ATOM     13  O   UNL     1       9.716  12.959  17.676  0.00  0.00    +0.000 OA
ATOM     14  C   UNL     1      10.659  11.879  17.675  0.00  0.00    +0.000 C 
ATOM     15  C   UNL     1      10.605  11.067  18.969  0.00  0.00    +0.000 C 
ATOM     16  O   UNL     1      10.991  11.920  20.070  0.00  0.00    +0.000 OA
ATOM     17  N   UNL     1       7.893  16.415  20.123  0.00  0.00    +0.000 N 
ATOM     18  H   UNL     1       7.625  17.030  20.876  0.00  0.00    +0.000 HD
ENDBRANCH   3  15
ENDBRANCH   1   3
BRANCH   1  19
ATOM     19  C   UNL     1       8.034   8.491  18.343  0.00  0.00    +0.000 C 
BRANCH  19  20
ATOM     20  C   UNL     1       7.920   7.522  17.143  0.00  0.00    +0.000 C 
BRANCH  20  21
ATOM     21  C   UNL     1       6.590   6.757  16.931  0.00  0.00    +0.000 C 
ATOM     22  C   UNL     1       5.425   7.092  17.890  0.00  0.00    +0.000 C 
ATOM     23  C   UNL     1       4.112   6.370  17.407  0.00  0.00    +0.000 C 
ATOM     24  C   UNL     1       4.362   4.880  17.337  0.00  0.00    +0.000 A 
ATOM     25  C   UNL     1       5.671   4.475  17.510  0.00  0.00    +0.000 A 
ATOM     26  N   UNL     1       5.606   3.792  18.717  0.00  0.00    +0.000 N 
ATOM     27  C   UNL     1       4.285   3.450  18.977  0.00  0.00    +0.000 A 
ATOM     28  C   UNL     1       3.637   2.874  20.077  0.00  0.00    +0.000 A 
ATOM     29  C   UNL     1       2.330   2.414  19.887  0.00  0.00    +0.000 A 
ATOM     30  C   UNL     1       1.735   2.498  18.636  0.00  0.00    +0.000 A 
ATOM     31  F   UNL     1       0.564   1.881  18.427  0.00  0.00    +0.000 F 
ATOM     32  C   UNL     1       2.311   3.247  17.609  0.00  0.00    +0.000 A 
ATOM     33  C   UNL     1       3.579   3.811  17.833  0.00  0.00    +0.000 A 
ATOM     34  C   UNL     1       6.847   5.204  16.930  0.00  0.00    +0.000 C 
ATOM     35  H   UNL     1       6.376   3.642  19.353  0.00  0.00    +0.000 HD
ENDBRANCH  20  21
ENDBRANCH  19  20
ENDBRANCH   1  19
TORSDOF 5
ENDMDL
MODEL 5
REMARK VINA RESULT:      -9.1      6.837      9.993
REMARK  Name = 
REMARK  5 active torsions:
REMARK  status: ('A' for Active; 'I' for Inactive)
REMARK    1  A    between atoms: C_12  and  C_13
REMARK    2  A    between atoms: C_13  and  N_14
REMARK    3  A    between atoms: N_14  and  C_15
REMARK    4  A    between atoms: C_15  and  C_16
REMARK    5  A    between atoms: C_16  and  C_17
REMARK                            x       y       z     vdW  Elec       q    Type
REMARK                         _______ _______ _______ _____ _____    ______ ____
ROOT
ATOM      1  N   UNL     1       2.208   7.217  18.006  0.00  0.00    +0.000 NA
ATOM      2  H   UNL     1       1.239   6.919  18.132  0.00  0.00    +0.000 HD
ENDROOT
BRANCH   1   3
ATOM      3  C   UNL     1       2.962   6.891  19.222  0.00  0.00    +0.000 C 
BRANCH   3  15
ATOM      4  O   UNL     1       7.169   4.811  13.360  0.00  0.00    +0.000 OA
ATOM      5  C   UNL     1       6.785   4.789  14.527  0.00  0.00    +0.000 C 
ATOM      6  C   UNL     1       5.364   4.594  15.060  0.00  0.00    +0.000 C 
ATOM      7  C   UNL     1       5.575   4.688  16.543  0.00  0.00    +0.000 A 
ATOM      8  C   UNL     1       6.929   4.862  16.809  0.00  0.00    +0.000 A 
ATOM      9  C   UNL     1       7.447   4.976  18.081  0.00  0.00    +0.000 A 
ATOM     10  C   UNL     1       6.536   4.960  19.137  0.00  0.00    +0.000 A 
ATOM     11  C   UNL     1       5.157   4.854  18.882  0.00  0.00    +0.000 A 
ATOM     12  C   UNL     1       4.666   4.677  17.579  0.00  0.00    +0.000 A 
ATOM     13  O   UNL     1       3.339   4.571  17.275  0.00  0.00    +0.000 OA
ATOM     14  C   UNL     1       2.532   4.441  18.453  0.00  0.00    +0.000 C 
ATOM     15  C   UNL     1       2.993   5.377  19.572  0.00  0.00    +0.000 C 
ATOM     16  O   UNL     1       4.329   5.000  19.971  0.00  0.00    +0.000 OA
ATOM     17  N   UNL     1       7.629   4.925  15.622  0.00  0.00    +0.000 N 
ATOM     18  H   UNL     1       8.625   5.057  15.539  0.00  0.00    +0.000 HD
ENDBRANCH   3  15
ENDBRANCH   1   3
BRANCH   1  19
ATOM     19  C   UNL     1       2.203   8.655  17.706  0.00  0.00    +0.000 C 
BRANCH  19  20
ATOM     20  C   UNL     1       0.898   9.455  17.929  0.00  0.00    +0.000 C 
BRANCH  20  21
ATOM     21  C   UNL     1       0.755  10.299  19.219  0.00  0.00    +0.000 C 
ATOM     22  C   UNL     1      -0.010   9.655  20.399  0.00  0.00    +0.000 C 
ATOM     23  C   UNL     1       0.113  10.569  21.675  0.00  0.00    +0.000 C 
ATOM     24  C   UNL     1      -0.421  11.947  21.353  0.00  0.00    +0.000 A 
ATOM     25  C   UNL     1      -0.717  12.188  20.025  0.00  0.00    +0.000 A 
ATOM     26  N   UNL     1      -2.099  12.324  20.055  0.00  0.00    +0.000 N 
ATOM     27  C   UNL     1      -2.502  12.590  21.359  0.00  0.00    +0.000 A 
ATOM     28  C   UNL     1      -3.754  12.700  21.977  0.00  0.00    +0.000 A 
ATOM     29  C   UNL     1      -3.793  13.254  23.259  0.00  0.00    +0.000 A 
ATOM     30  C   UNL     1      -2.628  13.712  23.858  0.00  0.00    +0.000 A 
ATOM     31  F   UNL     1      -2.711  14.412  24.998  0.00  0.00    +0.000 F 
ATOM     32  C   UNL     1      -1.374  13.419  23.321  0.00  0.00    +0.000 A 
ATOM     33  C   UNL     1      -1.324  12.756  22.082  0.00  0.00    +0.000 A 
ATOM     34  C   UNL     1       0.132  11.705  18.886  0.00  0.00    +0.000 C 
ATOM     35  H   UNL     1      -2.725  12.169  19.279  0.00  0.00    +0.000 HD
ENDBRANCH  20  21
ENDBRANCH  19  20
ENDBRANCH   1  19
TORSDOF 5
ENDMDL
MODEL 6
REMARK VINA RESULT:      -9.0      5.098     11.232
REMARK  Name = 
REMARK  5 active torsions:
REMARK  status: ('A' for Active; 'I' for Inactive)
REMARK    1  A    between atoms: C_12  and  C_13
REMARK    2  A    between atoms: C_13  and  N_14
REMARK    3  A    between atoms: N_14  and  C_15
REMARK    4  A    between atoms: C_15  and  C_16
REMARK    5  A    between atoms: C_16  and  C_17
REMARK                            x       y       z     vdW  Elec       q    Type
REMARK                         _______ _______ _______ _____ _____    ______ ____
ROOT
ATOM      1  N   UNL     1       6.903   8.183  17.192  0.00  0.00    +0.000 NA
ATOM      2  H   UNL     1       6.398   9.007  17.526  0.00  0.00    +0.000 HD
ENDROOT
BRANCH   1   3
ATOM      3  C   UNL     1       6.125   6.986  17.531  0.00  0.00    +0.000 C 
BRANCH   3  15
ATOM      4  O   UNL     1       2.174   2.385  21.959  0.00  0.00    +0.000 OA
ATOM      5  C   UNL     1       2.699   2.753  20.911  0.00  0.00    +0.000 C 
ATOM      6  C   UNL     1       4.155   3.156  20.664  0.00  0.00    +0.000 C 
ATOM      7  C   UNL     1       4.134   3.510  19.205  0.00  0.00    +0.000 A 
ATOM      8  C   UNL     1       2.859   3.290  18.693  0.00  0.00    +0.000 A 
ATOM      9  C   UNL     1       2.519   3.514  17.377  0.00  0.00    +0.000 A 
ATOM     10  C   UNL     1       3.513   4.033  16.547  0.00  0.00    +0.000 A 
ATOM     11  C   UNL     1       4.787   4.327  17.065  0.00  0.00    +0.000 A 
ATOM     12  C   UNL     1       5.121   4.029  18.396  0.00  0.00    +0.000 A 
ATOM     13  O   UNL     1       6.340   4.293  18.950  0.00  0.00    +0.000 OA
ATOM     14  C   UNL     1       7.296   4.701  17.962  0.00  0.00    +0.000 C 
ATOM     15  C   UNL     1       6.691   5.664  16.940  0.00  0.00    +0.000 C 
ATOM     16  O   UNL     1       5.650   4.976  16.213  0.00  0.00    +0.000 OA
ATOM     17  N   UNL     1       2.026   2.852  19.701  0.00  0.00    +0.000 N 
ATOM     18  H   UNL     1       1.047   2.631  19.593  0.00  0.00    +0.000 HD
ENDBRANCH   3  15
ENDBRANCH   1   3
BRANCH   1  19
ATOM     19  C   UNL     1       8.237   8.191  17.807  0.00  0.00    +0.000 C 
BRANCH  19  20
ATOM     20  C   UNL     1       8.629   9.381  18.715  0.00  0.00    +0.000 C 
BRANCH  20  21
ATOM     21  C   UNL     1       9.364  10.587  18.080  0.00  0.00    +0.000 C 
ATOM     22  C   UNL     1      10.507  11.226  18.903  0.00  0.00    +0.000 C 
ATOM     23  C   UNL     1      11.257  12.299  18.028  0.00  0.00    +0.000 C 
ATOM     24  C   UNL     1      10.264  13.338  17.558  0.00  0.00    +0.000 A 
ATOM     25  C   UNL     1       8.933  13.062  17.804  0.00  0.00    +0.000 A 
ATOM     26  N   UNL     1       8.599  14.043  18.728  0.00  0.00    +0.000 N 
ATOM     27  C   UNL     1       9.537  15.066  18.666  0.00  0.00    +0.000 A 
ATOM     28  C   UNL     1       9.758  16.220  19.429  0.00  0.00    +0.000 A 
ATOM     29  C   UNL     1      10.632  17.178  18.911  0.00  0.00    +0.000 A 
ATOM     30  C   UNL     1      11.214  16.992  17.665  0.00  0.00    +0.000 A 
ATOM     31  F   UNL     1      11.892  18.002  17.102  0.00  0.00    +0.000 F 
ATOM     32  C   UNL     1      11.144  15.762  17.010  0.00  0.00    +0.000 A 
ATOM     33  C   UNL     1      10.356  14.750  17.585  0.00  0.00    +0.000 A 
ATOM     34  C   UNL     1       8.330  11.696  17.658  0.00  0.00    +0.000 C 
ATOM     35  H   UNL     1       7.849  13.989  19.402  0.00  0.00    +0.000 HD
ENDBRANCH  20  21
ENDBRANCH  19  20
ENDBRANCH   1  19
TORSDOF 5
ENDMDL
MODEL 7
REMARK VINA RESULT:      -8.9      6.142      8.144
REMARK  Name = 
REMARK  5 active torsions:
REMARK  status: ('A' for Active; 'I' for Inactive)
REMARK    1  A    between atoms: C_12  and  C_13
REMARK    2  A    between atoms: C_13  and  N_14
REMARK    3  A    between atoms: N_14  and  C_15
REMARK    4  A    between atoms: C_15  and  C_16
REMARK    5  A    between atoms: C_16  and  C_17
REMARK                            x       y       z     vdW  Elec       q    Type
REMARK                         _______ _______ _______ _____ _____    ______ ____
ROOT
ATOM      1  N   UNL     1       1.766   7.593  21.059  0.00  0.00    +0.000 NA
ATOM      2  H   UNL     1       1.761   7.730  22.072  0.00  0.00    +0.000 HD
ENDROOT
BRANCH   1   3
ATOM      3  C   UNL     1       0.866   8.578  20.448  0.00  0.00    +0.000 C 
BRANCH   3  15
ATOM      4  O   UNL     1      -5.426  11.207  17.303  0.00  0.00    +0.000 OA
ATOM      5  C   UNL     1      -4.290  11.280  17.766  0.00  0.00    +0.000 C 
ATOM      6  C   UNL     1      -3.047  10.477  17.374  0.00  0.00    +0.000 C 
ATOM      7  C   UNL     1      -2.015  11.028  18.315  0.00  0.00    +0.000 A 
ATOM      8  C   UNL     1      -2.583  12.032  19.091  0.00  0.00    +0.000 A 
ATOM      9  C   UNL     1      -1.889  12.741  20.047  0.00  0.00    +0.000 A 
ATOM     10  C   UNL     1      -0.559  12.378  20.259  0.00  0.00    +0.000 A 
ATOM     11  C   UNL     1       0.012  11.319  19.532  0.00  0.00    +0.000 A 
ATOM     12  C   UNL     1      -0.703  10.657  18.521  0.00  0.00    +0.000 A 
ATOM     13  O   UNL     1      -0.199   9.624  17.786  0.00  0.00    +0.000 OA
ATOM     14  C   UNL     1       1.204   9.442  18.015  0.00  0.00    +0.000 C 
ATOM     15  C   UNL     1       1.568   9.584  19.494  0.00  0.00    +0.000 C 
ATOM     16  O   UNL     1       1.276  10.935  19.917  0.00  0.00    +0.000 OA
ATOM     17  N   UNL     1      -3.917  12.169  18.765  0.00  0.00    +0.000 N 
ATOM     18  H   UNL     1      -4.557  12.822  19.191  0.00  0.00    +0.000 HD
ENDBRANCH   3  15
ENDBRANCH   1   3
BRANCH   1  19
ATOM     19  C   UNL     1       1.365   6.207  20.787  0.00  0.00    +0.000 C 
BRANCH  19  20
ATOM     20  C   UNL     1       2.460   5.171  20.439  0.00  0.00    +0.000 C 
BRANCH  20  21
ATOM     21  C   UNL     1       3.590   5.585  19.465  0.00  0.00    +0.000 C 
ATOM     22  C   UNL     1       3.163   6.093  18.068  0.00  0.00    +0.000 C 
ATOM     23  C   UNL     1       4.419   6.645  17.296  0.00  0.00    +0.000 C 
ATOM     24  C   UNL     1       5.459   5.552  17.194  0.00  0.00    +0.000 A 
ATOM     25  C   UNL     1       5.210   4.406  17.924  0.00  0.00    +0.000 A 
ATOM     26  N   UNL     1       5.003   3.464  16.924  0.00  0.00    +0.000 N 
ATOM     27  C   UNL     1       5.540   3.938  15.734  0.00  0.00    +0.000 A 
ATOM     28  C   UNL     1       5.518   3.473  14.413  0.00  0.00    +0.000 A 
ATOM     29  C   UNL     1       6.405   4.061  13.507  0.00  0.00    +0.000 A 
ATOM     30  C   UNL     1       7.294   5.037  13.934  0.00  0.00    +0.000 A 
ATOM     31  F   UNL     1       8.262   5.448  13.102  0.00  0.00    +0.000 F 
ATOM     32  C   UNL     1       7.172   5.628  15.192  0.00  0.00    +0.000 A 
ATOM     33  C   UNL     1       6.202   5.117  16.071  0.00  0.00    +0.000 A 
ATOM     34  C   UNL     1       4.632   4.415  19.308  0.00  0.00    +0.000 C 
ATOM     35  H   UNL     1       4.472   2.610  17.017  0.00  0.00    +0.000 HD
ENDBRANCH  20  21
ENDBRANCH  19  20
ENDBRANCH   1  19
TORSDOF 5
ENDMDL
MODEL 8
REMARK VINA RESULT:      -8.8      5.907     10.215
REMARK  Name = 
REMARK  5 active torsions:
REMARK  status: ('A' for Active; 'I' for Inactive)
REMARK    1  A    between atoms: C_12  and  C_13
REMARK    2  A    between atoms: C_13  and  N_14
REMARK    3  A    between atoms: N_14  and  C_15
REMARK    4  A    between atoms: C_15  and  C_16
REMARK    5  A    between atoms: C_16  and  C_17
REMARK                            x       y       z     vdW  Elec       q    Type
REMARK                         _______ _______ _______ _____ _____    ______ ____
ROOT
ATOM      1  N   UNL     1       2.209   6.218  20.267  0.00  0.00    +0.000 NA
ATOM      2  H   UNL     1       3.024   6.145  20.880  0.00  0.00    +0.000 HD
ENDROOT
BRANCH   1   3
ATOM      3  C   UNL     1       2.479   5.467  19.036  0.00  0.00    +0.000 C 
BRANCH   3  15
ATOM      4  O   UNL     1       7.237   5.230  13.231  0.00  0.00    +0.000 OA
ATOM      5  C   UNL     1       6.852   4.994  14.374  0.00  0.00    +0.000 C 
ATOM      6  C   UNL     1       5.540   4.347  14.823  0.00  0.00    +0.000 C 
ATOM      7  C   UNL     1       5.681   4.367  16.317  0.00  0.00    +0.000 A 
ATOM      8  C   UNL     1       6.918   4.904  16.659  0.00  0.00    +0.000 A 
ATOM      9  C   UNL     1       7.352   5.051  17.958  0.00  0.00    +0.000 A 
ATOM     10  C   UNL     1       6.464   4.677  18.966  0.00  0.00    +0.000 A 
ATOM     11  C   UNL     1       5.183   4.197  18.640  0.00  0.00    +0.000 A 
ATOM     12  C   UNL     1       4.794   4.000  17.305  0.00  0.00    +0.000 A 
ATOM     13  O   UNL     1       3.564   3.539  16.933  0.00  0.00    +0.000 OA
ATOM     14  C   UNL     1       2.806   3.076  18.058  0.00  0.00    +0.000 C 
ATOM     15  C   UNL     1       2.946   4.003  19.266  0.00  0.00    +0.000 C 
ATOM     16  O   UNL     1       4.326   3.999  19.698  0.00  0.00    +0.000 OA
ATOM     17  N   UNL     1       7.594   5.273  15.514  0.00  0.00    +0.000 N 
ATOM     18  H   UNL     1       8.509   5.696  15.488  0.00  0.00    +0.000 HD
ENDBRANCH   3  15
ENDBRANCH   1   3
BRANCH   1  19
ATOM     19  C   UNL     1       1.953   7.644  20.022  0.00  0.00    +0.000 C 
BRANCH  19  20
ATOM     20  C   UNL     1       1.018   8.408  20.989  0.00  0.00    +0.000 C 
BRANCH  20  21
ATOM     21  C   UNL     1       0.345   9.712  20.496  0.00  0.00    +0.000 C 
ATOM     22  C   UNL     1       0.732  10.212  19.085  0.00  0.00    +0.000 C 
ATOM     23  C   UNL     1      -0.186  11.426  18.681  0.00  0.00    +0.000 C 
ATOM     24  C   UNL     1      -0.046  12.521  19.715  0.00  0.00    +0.000 A 
ATOM     25  C   UNL     1       0.666  12.193  20.854  0.00  0.00    +0.000 A 
ATOM     26  N   UNL     1       1.790  12.999  20.735  0.00  0.00    +0.000 N 
ATOM     27  C   UNL     1       1.522  14.027  19.839  0.00  0.00    +0.000 A 
ATOM     28  C   UNL     1       2.307  15.035  19.266  0.00  0.00    +0.000 A 
ATOM     29  C   UNL     1       1.643  16.077  18.614  0.00  0.00    +0.000 A 
ATOM     30  C   UNL     1       0.256  16.112  18.586  0.00  0.00    +0.000 A 
ATOM     31  F   UNL     1      -0.361  17.210  18.128  0.00  0.00    +0.000 F 
ATOM     32  C   UNL     1      -0.504  15.011  18.982  0.00  0.00    +0.000 A 
ATOM     33  C   UNL     1       0.169  13.908  19.536  0.00  0.00    +0.000 A 
ATOM     34  C   UNL     1       0.556  10.866  21.545  0.00  0.00    +0.000 C 
ATOM     35  H   UNL     1       2.690  12.823  21.158  0.00  0.00    +0.000 HD
ENDBRANCH  20  21
ENDBRANCH  19  20
ENDBRANCH   1  19
TORSDOF 5
ENDMDL
MODEL 9
REMARK VINA RESULT:      -8.8      5.006     10.624
REMARK  Name = 
REMARK  5 active torsions:
REMARK  status: ('A' for Active; 'I' for Inactive)
REMARK    1  A    between atoms: C_12  and  C_13
REMARK    2  A    between atoms: C_13  and  N_14
REMARK    3  A    between atoms: N_14  and  C_15
REMARK    4  A    between atoms: C_15  and  C_16
REMARK    5  A    between atoms: C_16  and  C_17
REMARK                            x       y       z     vdW  Elec       q    Type
REMARK                         _______ _______ _______ _____ _____    ______ ____
ROOT
ATOM      1  N   UNL     1       7.671   6.482  16.921  0.00  0.00    +0.000 NA
ATOM      2  H   UNL     1       7.483   6.815  15.973  0.00  0.00    +0.000 HD
ENDROOT
BRANCH   1   3
ATOM      3  C   UNL     1       6.814   5.322  17.190  0.00  0.00    +0.000 C 
BRANCH   3  15
ATOM      4  O   UNL     1       1.835   2.985  22.303  0.00  0.00    +0.000 OA
ATOM      5  C   UNL     1       2.216   3.602  21.311  0.00  0.00    +0.000 C 
ATOM      6  C   UNL     1       2.949   3.066  20.079  0.00  0.00    +0.000 C 
ATOM      7  C   UNL     1       3.135   4.313  19.264  0.00  0.00    +0.000 A 
ATOM      8  C   UNL     1       2.547   5.389  19.921  0.00  0.00    +0.000 A 
ATOM      9  C   UNL     1       2.541   6.674  19.424  0.00  0.00    +0.000 A 
ATOM     10  C   UNL     1       3.208   6.888  18.219  0.00  0.00    +0.000 A 
ATOM     11  C   UNL     1       3.868   5.825  17.575  0.00  0.00    +0.000 A 
ATOM     12  C   UNL     1       3.803   4.515  18.075  0.00  0.00    +0.000 A 
ATOM     13  O   UNL     1       4.424   3.448  17.493  0.00  0.00    +0.000 OA
ATOM     14  C   UNL     1       4.959   3.782  16.205  0.00  0.00    +0.000 C 
ATOM     15  C   UNL     1       5.627   5.158  16.200  0.00  0.00    +0.000 C 
ATOM     16  O   UNL     1       4.625   6.161  16.477  0.00  0.00    +0.000 OA
ATOM     17  N   UNL     1       2.016   4.963  21.121  0.00  0.00    +0.000 N 
ATOM     18  H   UNL     1       1.543   5.551  21.790  0.00  0.00    +0.000 HD
ENDBRANCH   3  15
ENDBRANCH   1   3
BRANCH   1  19
ATOM     19  C   UNL     1       7.433   7.596  17.847  0.00  0.00    +0.000 C 
BRANCH  19  20
ATOM     20  C   UNL     1       8.650   8.371  18.406  0.00  0.00    +0.000 C 
BRANCH  20  21
ATOM     21  C   UNL     1       8.524   9.900  18.614  0.00  0.00    +0.000 C 
ATOM     22  C   UNL     1       9.180  10.811  17.551  0.00  0.00    +0.000 C 
ATOM     23  C   UNL     1       8.788  12.312  17.820  0.00  0.00    +0.000 C 
ATOM     24  C   UNL     1       9.216  12.694  19.219  0.00  0.00    +0.000 A 
ATOM     25  C   UNL     1       9.667  11.662  20.020  0.00  0.00    +0.000 A 
ATOM     26  N   UNL     1      11.009  11.981  20.177  0.00  0.00    +0.000 N 
ATOM     27  C   UNL     1      11.198  13.323  19.868  0.00  0.00    +0.000 A 
ATOM     28  C   UNL     1      12.333  14.133  19.743  0.00  0.00    +0.000 A 
ATOM     29  C   UNL     1      12.137  15.515  19.691  0.00  0.00    +0.000 A 
ATOM     30  C   UNL     1      10.859  16.044  19.805  0.00  0.00    +0.000 A 
ATOM     31  F   UNL     1      10.710  17.368  19.948  0.00  0.00    +0.000 F 
ATOM     32  C   UNL     1       9.728  15.229  19.730  0.00  0.00    +0.000 A 
ATOM     33  C   UNL     1       9.920  13.838  19.665  0.00  0.00    +0.000 A 
ATOM     34  C   UNL     1       9.038  10.300  20.047  0.00  0.00    +0.000 C 
ATOM     35  H   UNL     1      11.749  11.330  20.393  0.00  0.00    +0.000 HD
ENDBRANCH  20  21
ENDBRANCH  19  20
ENDBRANCH   1  19
TORSDOF 5
ENDMDL
