MODEL 1
REMARK VINA RESULT:      -6.6      0.000      0.000
REMARK  Name = 
REMARK  9 active torsions:
REMARK  status: ('A' for Active; 'I' for Inactive)
REMARK    1  A    between atoms: C_1  and  C_2
REMARK    2  A    between atoms: C_5  and  O_6
REMARK    3  A    between atoms: O_6  and  C_7
REMARK    4  A    between atoms: C_7  and  C_8
REMARK    5  A    between atoms: N_10  and  C_11
REMARK    6  A    between atoms: N_10  and  C_14
REMARK    7  A    between atoms: C_11  and  C_12
REMARK    8  A    between atoms: C_12  and  O_13
REMARK    9  A    between atoms: C_14  and  C_15
REMARK                            x       y       z     vdW  Elec       q    Type
REMARK                         _______ _______ _______ _____ _____    ______ ____
ROOT
ATOM      1  C   UNL     1       6.063   5.643  18.054  0.00  0.00    +0.000 C 
ATOM      2  O   UNL     1       6.658   4.799  18.731  0.00  0.00    +0.000 OA
ATOM      3  N   UNL     1       4.704   5.902  18.264  0.00  0.00    +0.000 N 
ENDROOT
BRANCH   1   4
ATOM      4  C   UNL     1       6.800   6.470  16.974  0.00  0.00    +0.000 C 
BRANCH   4   5
ATOM      5  O   UNL     1       7.590   5.753  16.034  0.00  0.00    +0.000 OA
BRANCH   5  10
ATOM      6  C   UNL     1       5.141   3.017  11.705  0.00  0.00    +0.000 C 
ATOM      7  C   UNL     1       5.784   3.702  12.875  0.00  0.00    +0.000 A 
ATOM      8  C   UNL     1       6.995   4.386  12.726  0.00  0.00    +0.000 A 
ATOM      9  C   UNL     1       7.569   5.046  13.818  0.00  0.00    +0.000 A 
ATOM     10  C   UNL     1       6.940   5.041  15.064  0.00  0.00    +0.000 A 
ATOM     11  C   UNL     1       5.752   4.330  15.226  0.00  0.00    +0.000 A 
ATOM     12  C   UNL     1       5.178   3.669  14.134  0.00  0.00    +0.000 A 
ENDBRANCH   5  10
ENDBRANCH   4   5
ENDBRANCH   1   4
BRANCH   3  13
ATOM     13  C   UNL     1       3.878   6.765  17.399  0.00  0.00    +0.000 C 
BRANCH  13  14
ATOM     14  C   UNL     1       2.861   7.630  18.155  0.00  0.00    +0.000 C 
BRANCH  14  15
ATOM     15  O   UNL     1       2.391   8.694  17.334  0.00  0.00    +0.000 OA
ATOM     16  H   UNL     1       3.013   9.435  17.443  0.00  0.00    +0.000 HD
ENDBRANCH  14  15
ENDBRANCH  13  14
ENDBRANCH   3  13
BRANCH   3  17
ATOM     17  C   UNL     1       4.049   5.186  19.362  0.00  0.00    +0.000 C 
BRANCH  17  18
ATOM     18  C   UNL     1       3.131   4.090  18.901  0.00  0.00    +0.000 A 
ATOM     19  C   UNL     1       3.447   2.984  18.132  0.00  0.00    +0.000 A 
ATOM     20  C   UNL     1       2.374   2.049  18.050  0.00  0.00    +0.000 A 
ATOM     21  C   UNL     1       1.261   2.484  18.732  0.00  0.00    +0.000 A 
ATOM     22  S   UNL     1       1.508   4.016  19.452  0.00  0.00    +0.000 S 
ENDBRANCH  17  18
ENDBRANCH   3  17
TORSDOF 8
ENDMDL
MODEL 2
REMARK VINA RESULT:      -6.6      1.485      2.715
REMARK  Name = 
REMARK  9 active torsions:
REMARK  status: ('A' for Active; 'I' for Inactive)
REMARK    1  A    between atoms: C_1  and  C_2
REMARK    2  A    between atoms: C_5  and  O_6
REMARK    3  A    between atoms: O_6  and  C_7
REMARK    4  A    between atoms: C_7  and  C_8
REMARK    5  A    between atoms: N_10  and  C_11
REMARK    6  A    between atoms: N_10  and  C_14
REMARK    7  A    between atoms: C_11  and  C_12
REMARK    8  A    between atoms: C_12  and  O_13
REMARK    9  A    between atoms: C_14  and  C_15
REMARK                            x       y       z     vdW  Elec       q    Type
REMARK                         _______ _______ _______ _____ _____    ______ ____
ROOT
ATOM      1  C   UNL     1       5.625   6.124  16.996  0.00  0.00    +0.000 C 
ATOM      2  O   UNL     1       4.930   6.837  16.267  0.00  0.00    +0.000 OA
ATOM      3  N   UNL     1       5.249   5.871  18.320  0.00  0.00    +0.000 N 
ENDROOT
BRANCH   1   4
ATOM      4  C   UNL     1       6.917   5.455  16.470  0.00  0.00    +0.000 C 
BRANCH   4   5
ATOM      5  O   UNL     1       7.338   5.802  15.156  0.00  0.00    +0.000 OA
BRANCH   5  10
ATOM      6  C   UNL     1       5.487   2.208  11.171  0.00  0.00    +0.000 C 
ATOM      7  C   UNL     1       5.977   3.192  12.193  0.00  0.00    +0.000 A 
ATOM      8  C   UNL     1       5.327   3.329  13.424  0.00  0.00    +0.000 A 
ATOM      9  C   UNL     1       5.812   4.227  14.380  0.00  0.00    +0.000 A 
ATOM     10  C   UNL     1       6.953   4.991  14.126  0.00  0.00    +0.000 A 
ATOM     11  C   UNL     1       7.582   4.884  12.887  0.00  0.00    +0.000 A 
ATOM     12  C   UNL     1       7.097   3.986  11.930  0.00  0.00    +0.000 A 
ENDBRANCH   5  10
ENDBRANCH   4   5
ENDBRANCH   1   4
BRANCH   3  13
ATOM     13  C   UNL     1       6.095   5.174  19.307  0.00  0.00    +0.000 C 
BRANCH  13  14
ATOM     14  C   UNL     1       7.441   5.857  19.580  0.00  0.00    +0.000 C 
BRANCH  14  15
ATOM     15  O   UNL     1       8.099   5.256  20.691  0.00  0.00    +0.000 OA
ATOM     16  H   UNL     1       7.998   4.293  20.596  0.00  0.00    +0.000 HD
ENDBRANCH  14  15
ENDBRANCH  13  14
ENDBRANCH   3  13
BRANCH   3  17
ATOM     17  C   UNL     1       3.968   6.425  18.769  0.00  0.00    +0.000 C 
BRANCH  17  18
ATOM     18  C   UNL     1       2.863   5.410  18.831  0.00  0.00    +0.000 A 
ATOM     19  C   UNL     1       2.322   4.679  17.789  0.00  0.00    +0.000 A 
ATOM     20  C   UNL     1       1.424   3.666  18.237  0.00  0.00    +0.000 A 
ATOM     21  C   UNL     1       1.283   3.675  19.606  0.00  0.00    +0.000 A 
ATOM     22  S   UNL     1       2.217   4.909  20.339  0.00  0.00    +0.000 S 
ENDBRANCH  17  18
ENDBRANCH   3  17
TORSDOF 8
ENDMDL
MODEL 3
REMARK VINA RESULT:      -6.5      0.984      1.166
REMARK  Name = 
REMARK  9 active torsions:
REMARK  status: ('A' for Active; 'I' for Inactive)
REMARK    1  A    between atoms: C_1  and  C_2
REMARK    2  A    between atoms: C_5  and  O_6
REMARK    3  A    between atoms: O_6  and  C_7
REMARK    4  A    between atoms: C_7  and  C_8
REMARK    5  A    between atoms: N_10  and  C_11
REMARK    6  A    between atoms: N_10  and  C_14
REMARK    7  A    between atoms: C_11  and  C_12
REMARK    8  A    between atoms: C_12  and  O_13
REMARK    9  A    between atoms: C_14  and  C_15
REMARK                            x       y       z     vdW  Elec       q    Type
REMARK                         _______ _______ _______ _____ _____    ______ ____
ROOT
ATOM      1  C   UNL     1       6.207   5.086  17.871  0.00  0.00    +0.000 C 
ATOM      2  O   UNL     1       7.120   4.399  18.338  0.00  0.00    +0.000 OA
ATOM      3  N   UNL     1       4.889   4.924  18.315  0.00  0.00    +0.000 N 
ENDROOT
BRANCH   1   4
ATOM      4  C   UNL     1       6.484   6.173  16.807  0.00  0.00    +0.000 C 
BRANCH   4   5
ATOM      5  O   UNL     1       7.309   5.809  15.707  0.00  0.00    +0.000 OA
BRANCH   5  10
ATOM      6  C   UNL     1       5.331   2.725  11.371  0.00  0.00    +0.000 C 
ATOM      7  C   UNL     1       5.845   3.504  12.545  0.00  0.00    +0.000 A 
ATOM      8  C   UNL     1       7.088   4.145  12.490  0.00  0.00    +0.000 A 
ATOM      9  C   UNL     1       7.542   4.894  13.580  0.00  0.00    +0.000 A 
ATOM     10  C   UNL     1       6.762   5.022  14.731  0.00  0.00    +0.000 A 
ATOM     11  C   UNL     1       5.540   4.355  14.804  0.00  0.00    +0.000 A 
ATOM     12  C   UNL     1       5.085   3.605  13.714  0.00  0.00    +0.000 A 
ENDBRANCH   5  10
ENDBRANCH   4   5
ENDBRANCH   1   4
BRANCH   3  13
ATOM     13  C   UNL     1       3.718   5.578  17.701  0.00  0.00    +0.000 C 
BRANCH  13  14
ATOM     14  C   UNL     1       3.218   6.817  18.454  0.00  0.00    +0.000 C 
BRANCH  14  15
ATOM     15  O   UNL     1       3.040   7.914  17.564  0.00  0.00    +0.000 OA
ATOM     16  H   UNL     1       2.135   8.246  17.699  0.00  0.00    +0.000 HD
ENDBRANCH  14  15
ENDBRANCH  13  14
ENDBRANCH   3  13
BRANCH   3  17
ATOM     17  C   UNL     1       4.662   3.965  19.400  0.00  0.00    +0.000 C 
BRANCH  17  18
ATOM     18  C   UNL     1       3.279   3.380  19.404  0.00  0.00    +0.000 A 
ATOM     19  C   UNL     1       2.210   3.732  20.209  0.00  0.00    +0.000 A 
ATOM     20  C   UNL     1       0.993   3.107  19.809  0.00  0.00    +0.000 A 
ATOM     21  C   UNL     1       1.175   2.273  18.730  0.00  0.00    +0.000 A 
ATOM     22  S   UNL     1       2.807   2.235  18.217  0.00  0.00    +0.000 S 
ENDBRANCH  17  18
ENDBRANCH   3  17
TORSDOF 8
ENDMDL
MODEL 4
REMARK VINA RESULT:      -6.5      2.552      4.706
REMARK  Name = 
REMARK  9 active torsions:
REMARK  status: ('A' for Active; 'I' for Inactive)
REMARK    1  A    between atoms: C_1  and  C_2
REMARK    2  A    between atoms: C_5  and  O_6
REMARK    3  A    between atoms: O_6  and  C_7
REMARK    4  A    between atoms: C_7  and  C_8
REMARK    5  A    between atoms: N_10  and  C_11
REMARK    6  A    between atoms: N_10  and  C_14
REMARK    7  A    between atoms: C_11  and  C_12
REMARK    8  A    between atoms: C_12  and  O_13
REMARK    9  A    between atoms: C_14  and  C_15
REMARK                            x       y       z     vdW  Elec       q    Type
REMARK                         _______ _______ _______ _____ _____    ______ ____
ROOT
ATOM      1  C   UNL     1       3.905   4.655  17.120  0.00  0.00    +0.000 C 
ATOM      2  O   UNL     1       3.565   5.818  17.352  0.00  0.00    +0.000 OA
ATOM      3  N   UNL     1       3.069   3.583  17.455  0.00  0.00    +0.000 N 
ENDROOT
BRANCH   1   4
ATOM      4  C   UNL     1       5.248   4.336  16.423  0.00  0.00    +0.000 C 
BRANCH   4   5
ATOM      5  O   UNL     1       6.401   4.237  17.249  0.00  0.00    +0.000 OA
BRANCH   5  10
ATOM      6  C   UNL     1       8.790   9.209  18.590  0.00  0.00    +0.000 C 
ATOM      7  C   UNL     1       8.140   7.894  18.278  0.00  0.00    +0.000 A 
ATOM      8  C   UNL     1       7.400   7.722  17.102  0.00  0.00    +0.000 A 
ATOM      9  C   UNL     1       6.824   6.482  16.808  0.00  0.00    +0.000 A 
ATOM     10  C   UNL     1       6.986   5.398  17.673  0.00  0.00    +0.000 A 
ATOM     11  C   UNL     1       7.691   5.575  18.863  0.00  0.00    +0.000 A 
ATOM     12  C   UNL     1       8.266   6.815  19.158  0.00  0.00    +0.000 A 
ENDBRANCH   5  10
ENDBRANCH   4   5
ENDBRANCH   1   4
BRANCH   3  13
ATOM     13  C   UNL     1       3.462   2.164  17.369  0.00  0.00    +0.000 C 
BRANCH  13  14
ATOM     14  C   UNL     1       3.945   1.560  18.694  0.00  0.00    +0.000 C 
BRANCH  14  15
ATOM     15  O   UNL     1       4.991   2.345  19.257  0.00  0.00    +0.000 OA
ATOM     16  H   UNL     1       5.428   2.808  18.521  0.00  0.00    +0.000 HD
ENDBRANCH  14  15
ENDBRANCH  13  14
ENDBRANCH   3  13
BRANCH   3  17
ATOM     17  C   UNL     1       1.756   3.910  18.017  0.00  0.00    +0.000 C 
BRANCH  17  18
ATOM     18  C   UNL     1       1.669   3.697  19.501  0.00  0.00    +0.000 A 
ATOM     19  C   UNL     1       0.996   2.695  20.178  0.00  0.00    +0.000 A 
ATOM     20  C   UNL     1       1.289   2.683  21.573  0.00  0.00    +0.000 A 
ATOM     21  C   UNL     1       2.151   3.695  21.924  0.00  0.00    +0.000 A 
ATOM     22  S   UNL     1       2.589   4.661  20.581  0.00  0.00    +0.000 S 
ENDBRANCH  17  18
ENDBRANCH   3  17
TORSDOF 8
ENDMDL
MODEL 5
REMARK VINA RESULT:      -6.4      1.383      2.379
REMARK  Name = 
REMARK  9 active torsions:
REMARK  status: ('A' for Active; 'I' for Inactive)
REMARK    1  A    between atoms: C_1  and  C_2
REMARK    2  A    between atoms: C_5  and  O_6
REMARK    3  A    between atoms: O_6  and  C_7
REMARK    4  A    between atoms: C_7  and  C_8
REMARK    5  A    between atoms: N_10  and  C_11
REMARK    6  A    between atoms: N_10  and  C_14
REMARK    7  A    between atoms: C_11  and  C_12
REMARK    8  A    between atoms: C_12  and  O_13
REMARK    9  A    between atoms: C_14  and  C_15
REMARK                            x       y       z     vdW  Elec       q    Type
REMARK                         _______ _______ _______ _____ _____    ______ ____
ROOT
ATOM      1  C   UNL     1       5.593   6.367  17.419  0.00  0.00    +0.000 C 
ATOM      2  O   UNL     1       5.171   7.360  16.820  0.00  0.00    +0.000 OA
ATOM      3  N   UNL     1       4.828   5.754  18.418  0.00  0.00    +0.000 N 
ENDROOT
BRANCH   1   4
ATOM      4  C   UNL     1       6.962   5.740  17.068  0.00  0.00    +0.000 C 
BRANCH   4   5
ATOM      5  O   UNL     1       7.409   5.867  15.724  0.00  0.00    +0.000 OA
BRANCH   5  10
ATOM      6  C   UNL     1       5.338   2.667  11.517  0.00  0.00    +0.000 C 
ATOM      7  C   UNL     1       5.883   3.476  12.657  0.00  0.00    +0.000 A 
ATOM      8  C   UNL     1       7.041   4.246  12.499  0.00  0.00    +0.000 A 
ATOM      9  C   UNL     1       7.522   5.019  13.560  0.00  0.00    +0.000 A 
ATOM     10  C   UNL     1       6.852   5.044  14.785  0.00  0.00    +0.000 A 
ATOM     11  C   UNL     1       5.719   4.251  14.958  0.00  0.00    +0.000 A 
ATOM     12  C   UNL     1       5.238   3.476  13.897  0.00  0.00    +0.000 A 
ENDBRANCH   5  10
ENDBRANCH   4   5
ENDBRANCH   1   4
BRANCH   3  13
ATOM     13  C   UNL     1       5.317   4.674  19.296  0.00  0.00    +0.000 C 
BRANCH  13  14
ATOM     14  C   UNL     1       5.040   3.259  18.770  0.00  0.00    +0.000 C 
BRANCH  14  15
ATOM     15  O   UNL     1       4.950   2.328  19.843  0.00  0.00    +0.000 OA
ATOM     16  H   UNL     1       4.006   2.235  20.061  0.00  0.00    +0.000 HD
ENDBRANCH  14  15
ENDBRANCH  13  14
ENDBRANCH   3  13
BRANCH   3  17
ATOM     17  C   UNL     1       3.489   6.298  18.663  0.00  0.00    +0.000 C 
BRANCH  17  18
ATOM     18  C   UNL     1       2.439   5.242  18.857  0.00  0.00    +0.000 A 
ATOM     19  C   UNL     1       1.885   4.408  17.902  0.00  0.00    +0.000 A 
ATOM     20  C   UNL     1       1.061   3.394  18.471  0.00  0.00    +0.000 A 
ATOM     21  C   UNL     1       0.984   3.503  19.840  0.00  0.00    +0.000 A 
ATOM     22  S   UNL     1       1.889   4.831  20.430  0.00  0.00    +0.000 S 
ENDBRANCH  17  18
ENDBRANCH   3  17
TORSDOF 8
ENDMDL
MODEL 6
REMARK VINA RESULT:      -6.3      2.589      6.353
REMARK  Name = 
REMARK  9 active torsions:
REMARK  status: ('A' for Active; 'I' for Inactive)
REMARK    1  A    between atoms: C_1  and  C_2
REMARK    2  A    between atoms: C_5  and  O_6
REMARK    3  A    between atoms: O_6  and  C_7
REMARK    4  A    between atoms: C_7  and  C_8
REMARK    5  A    between atoms: N_10  and  C_11
REMARK    6  A    between atoms: N_10  and  C_14
REMARK    7  A    between atoms: C_11  and  C_12
REMARK    8  A    between atoms: C_12  and  O_13
REMARK    9  A    between atoms: C_14  and  C_15
REMARK                            x       y       z     vdW  Elec       q    Type
REMARK                         _______ _______ _______ _____ _____    ______ ____
ROOT
ATOM      1  C   UNL     1       5.163   6.542  16.417  0.00  0.00    +0.000 C 
ATOM      2  O   UNL     1       4.960   7.180  15.380  0.00  0.00    +0.000 OA
ATOM      3  N   UNL     1       6.268   5.691  16.530  0.00  0.00    +0.000 N 
ENDROOT
BRANCH   1   4
ATOM      4  C   UNL     1       4.229   6.685  17.642  0.00  0.00    +0.000 C 
BRANCH   4   5
ATOM      5  O   UNL     1       2.898   6.202  17.502  0.00  0.00    +0.000 OA
BRANCH   5  10
ATOM      6  C   UNL     1       1.265   2.677  21.641  0.00  0.00    +0.000 C 
ATOM      7  C   UNL     1       1.655   3.605  20.529  0.00  0.00    +0.000 A 
ATOM      8  C   UNL     1       2.261   4.836  20.803  0.00  0.00    +0.000 A 
ATOM      9  C   UNL     1       2.648   5.679  19.755  0.00  0.00    +0.000 A 
ATOM     10  C   UNL     1       2.444   5.303  18.426  0.00  0.00    +0.000 A 
ATOM     11  C   UNL     1       1.807   4.094  18.150  0.00  0.00    +0.000 A 
ATOM     12  C   UNL     1       1.419   3.251  19.197  0.00  0.00    +0.000 A 
ENDBRANCH   5  10
ENDBRANCH   4   5
ENDBRANCH   1   4
BRANCH   3  13
ATOM     13  C   UNL     1       6.496   4.770  17.660  0.00  0.00    +0.000 C 
BRANCH  13  14
ATOM     14  C   UNL     1       7.617   5.205  18.614  0.00  0.00    +0.000 C 
BRANCH  14  15
ATOM     15  O   UNL     1       7.155   5.235  19.960  0.00  0.00    +0.000 OA
ATOM     16  H   UNL     1       7.352   6.121  20.310  0.00  0.00    +0.000 HD
ENDBRANCH  14  15
ENDBRANCH  13  14
ENDBRANCH   3  13
BRANCH   3  17
ATOM     17  C   UNL     1       7.199   5.650  15.400  0.00  0.00    +0.000 C 
BRANCH  17  18
ATOM     18  C   UNL     1       6.768   4.725  14.299  0.00  0.00    +0.000 A 
ATOM     19  C   UNL     1       5.639   3.926  14.253  0.00  0.00    +0.000 A 
ATOM     20  C   UNL     1       5.442   3.327  12.975  0.00  0.00    +0.000 A 
ATOM     21  C   UNL     1       6.443   3.662  12.092  0.00  0.00    +0.000 A 
ATOM     22  S   UNL     1       7.618   4.678  12.810  0.00  0.00    +0.000 S 
ENDBRANCH  17  18
ENDBRANCH   3  17
TORSDOF 8
ENDMDL
MODEL 7
REMARK VINA RESULT:      -6.2      3.109      4.821
REMARK  Name = 
REMARK  9 active torsions:
REMARK  status: ('A' for Active; 'I' for Inactive)
REMARK    1  A    between atoms: C_1  and  C_2
REMARK    2  A    between atoms: C_5  and  O_6
REMARK    3  A    between atoms: O_6  and  C_7
REMARK    4  A    between atoms: C_7  and  C_8
REMARK    5  A    between atoms: N_10  and  C_11
REMARK    6  A    between atoms: N_10  and  C_14
REMARK    7  A    between atoms: C_11  and  C_12
REMARK    8  A    between atoms: C_12  and  O_13
REMARK    9  A    between atoms: C_14  and  C_15
REMARK                            x       y       z     vdW  Elec       q    Type
REMARK                         _______ _______ _______ _____ _____    ______ ____
ROOT
ATOM      1  C   UNL     1       3.829   4.108  19.397  0.00  0.00    +0.000 C 
ATOM      2  O   UNL     1       4.580   4.541  20.275  0.00  0.00    +0.000 OA
ATOM      3  N   UNL     1       2.490   4.512  19.335  0.00  0.00    +0.000 N 
ENDROOT
BRANCH   1   4
ATOM      4  C   UNL     1       4.341   3.132  18.312  0.00  0.00    +0.000 C 
BRANCH   4   5
ATOM      5  O   UNL     1       4.830   3.703  17.104  0.00  0.00    +0.000 OA
BRANCH   5  10
ATOM      6  C   UNL     1       8.063   8.322  17.761  0.00  0.00    +0.000 C 
ATOM      7  C   UNL     1       7.203   7.112  17.543  0.00  0.00    +0.000 A 
ATOM      8  C   UNL     1       7.627   5.847  17.967  0.00  0.00    +0.000 A 
ATOM      9  C   UNL     1       6.803   4.732  17.785  0.00  0.00    +0.000 A 
ATOM     10  C   UNL     1       5.546   4.864  17.190  0.00  0.00    +0.000 A 
ATOM     11  C   UNL     1       5.136   6.116  16.734  0.00  0.00    +0.000 A 
ATOM     12  C   UNL     1       5.961   7.232  16.914  0.00  0.00    +0.000 A 
ENDBRANCH   5  10
ENDBRANCH   4   5
ENDBRANCH   1   4
BRANCH   3  13
ATOM     13  C   UNL     1       1.484   3.924  18.430  0.00  0.00    +0.000 C 
BRANCH  13  14
ATOM     14  C   UNL     1       0.727   2.727  19.020  0.00  0.00    +0.000 C 
BRANCH  14  15
ATOM     15  O   UNL     1       1.328   1.500  18.620  0.00  0.00    +0.000 OA
ATOM     16  H   UNL     1       1.370   0.932  19.410  0.00  0.00    +0.000 HD
ENDBRANCH  14  15
ENDBRANCH  13  14
ENDBRANCH   3  13
BRANCH   3  17
ATOM     17  C   UNL     1       2.050   5.518  20.305  0.00  0.00    +0.000 C 
BRANCH  17  18
ATOM     18  C   UNL     1       2.011   6.913  19.749  0.00  0.00    +0.000 A 
ATOM     19  C   UNL     1       2.371   7.333  18.481  0.00  0.00    +0.000 A 
ATOM     20  C   UNL     1       2.020   8.692  18.232  0.00  0.00    +0.000 A 
ATOM     21  C   UNL     1       1.431   9.278  19.329  0.00  0.00    +0.000 A 
ATOM     22  S   UNL     1       1.319   8.197  20.651  0.00  0.00    +0.000 S 
ENDBRANCH  17  18
ENDBRANCH   3  17
TORSDOF 8
ENDMDL
MODEL 8
REMARK VINA RESULT:      -6.2      3.119      6.890
REMARK  Name = 
REMARK  9 active torsions:
REMARK  status: ('A' for Active; 'I' for Inactive)
REMARK    1  A    between atoms: C_1  and  C_2
REMARK    2  A    between atoms: C_5  and  O_6
REMARK    3  A    between atoms: O_6  and  C_7
REMARK    4  A    between atoms: C_7  and  C_8
REMARK    5  A    between atoms: N_10  and  C_11
REMARK    6  A    between atoms: N_10  and  C_14
REMARK    7  A    between atoms: C_11  and  C_12
REMARK    8  A    between atoms: C_12  and  O_13
REMARK    9  A    between atoms: C_14  and  C_15
REMARK                            x       y       z     vdW  Elec       q    Type
REMARK                         _______ _______ _______ _____ _____    ______ ____
ROOT
ATOM      1  C   UNL     1       1.968   4.085  18.601  0.00  0.00    +0.000 C 
ATOM      2  O   UNL     1       1.164   4.153  17.667  0.00  0.00    +0.000 OA
ATOM      3  N   UNL     1       3.286   3.667  18.383  0.00  0.00    +0.000 N 
ENDROOT
BRANCH   1   4
ATOM      4  C   UNL     1       1.565   4.490  20.038  0.00  0.00    +0.000 C 
BRANCH   4   5
ATOM      5  O   UNL     1       2.240   5.604  20.612  0.00  0.00    +0.000 OA
BRANCH   5  10
ATOM      6  C   UNL     1       0.865  10.800  18.788  0.00  0.00    +0.000 C 
ATOM      7  C   UNL     1       1.272   9.435  19.257  0.00  0.00    +0.000 A 
ATOM      8  C   UNL     1       0.927   8.985  20.536  0.00  0.00    +0.000 A 
ATOM      9  C   UNL     1       1.285   7.698  20.951  0.00  0.00    +0.000 A 
ATOM     10  C   UNL     1       1.982   6.843  20.095  0.00  0.00    +0.000 A 
ATOM     11  C   UNL     1       2.360   7.300  18.833  0.00  0.00    +0.000 A 
ATOM     12  C   UNL     1       2.002   8.587  18.418  0.00  0.00    +0.000 A 
ENDBRANCH   5  10
ENDBRANCH   4   5
ENDBRANCH   1   4
BRANCH   3  13
ATOM     13  C   UNL     1       4.262   3.397  19.456  0.00  0.00    +0.000 C 
BRANCH  13  14
ATOM     14  C   UNL     1       4.284   1.940  19.938  0.00  0.00    +0.000 C 
BRANCH  14  15
ATOM     15  O   UNL     1       5.113   1.799  21.086  0.00  0.00    +0.000 OA
ATOM     16  H   UNL     1       5.620   0.975  20.974  0.00  0.00    +0.000 HD
ENDBRANCH  14  15
ENDBRANCH  13  14
ENDBRANCH   3  13
BRANCH   3  17
ATOM     17  C   UNL     1       3.679   3.390  16.999  0.00  0.00    +0.000 C 
BRANCH  17  18
ATOM     18  C   UNL     1       4.708   4.344  16.464  0.00  0.00    +0.000 A 
ATOM     19  C   UNL     1       4.785   5.711  16.662  0.00  0.00    +0.000 A 
ATOM     20  C   UNL     1       6.001   6.269  16.171  0.00  0.00    +0.000 A 
ATOM     21  C   UNL     1       6.803   5.318  15.586  0.00  0.00    +0.000 A 
ATOM     22  S   UNL     1       6.083   3.765  15.616  0.00  0.00    +0.000 S 
ENDBRANCH  17  18
ENDBRANCH   3  17
TORSDOF 8
ENDMDL
MODEL 9
REMARK VINA RESULT:      -6.2      2.788      6.784
REMARK  Name = 
REMARK  9 active torsions:
REMARK  status: ('A' for Active; 'I' for Inactive)
REMARK    1  A    between atoms: C_1  and  C_2
REMARK    2  A    between atoms: C_5  and  O_6
REMARK    3  A    between atoms: O_6  and  C_7
REMARK    4  A    between atoms: C_7  and  C_8
REMARK    5  A    between atoms: N_10  and  C_11
REMARK    6  A    between atoms: N_10  and  C_14
REMARK    7  A    between atoms: C_11  and  C_12
REMARK    8  A    between atoms: C_12  and  O_13
REMARK    9  A    between atoms: C_14  and  C_15
REMARK                            x       y       z     vdW  Elec       q    Type
REMARK                         _______ _______ _______ _____ _____    ______ ____
ROOT
ATOM      1  C   UNL     1       2.157   4.306  18.434  0.00  0.00    +0.000 C 
ATOM      2  O   UNL     1       1.360   4.300  17.492  0.00  0.00    +0.000 OA
ATOM      3  N   UNL     1       3.447   3.783  18.286  0.00  0.00    +0.000 N 
ENDROOT
BRANCH   1   4
ATOM      4  C   UNL     1       1.778   4.921  19.802  0.00  0.00    +0.000 C 
BRANCH   4   5
ATOM      5  O   UNL     1       2.523   6.054  20.232  0.00  0.00    +0.000 OA
BRANCH   5  10
ATOM      6  C   UNL     1       0.746  11.207  18.648  0.00  0.00    +0.000 C 
ATOM      7  C   UNL     1       1.173   9.836  19.082  0.00  0.00    +0.000 A 
ATOM      8  C   UNL     1       1.866   8.992  18.207  0.00  0.00    +0.000 A 
ATOM      9  C   UNL     1       2.286   7.728  18.634  0.00  0.00    +0.000 A 
ATOM     10  C   UNL     1       2.029   7.294  19.936  0.00  0.00    +0.000 A 
ATOM     11  C   UNL     1       1.306   8.117  20.799  0.00  0.00    +0.000 A 
ATOM     12  C   UNL     1       0.886   9.381  20.372  0.00  0.00    +0.000 A 
ENDBRANCH   5  10
ENDBRANCH   4   5
ENDBRANCH   1   4
BRANCH   3  13
ATOM     13  C   UNL     1       4.403   3.597  19.394  0.00  0.00    +0.000 C 
BRANCH  13  14
ATOM     14  C   UNL     1       4.187   2.313  20.206  0.00  0.00    +0.000 C 
BRANCH  14  15
ATOM     15  O   UNL     1       5.254   1.394  19.995  0.00  0.00    +0.000 OA
ATOM     16  H   UNL     1       5.915   1.560  20.689  0.00  0.00    +0.000 HD
ENDBRANCH  14  15
ENDBRANCH  13  14
ENDBRANCH   3  13
BRANCH   3  17
ATOM     17  C   UNL     1       3.824   3.302  16.954  0.00  0.00    +0.000 C 
BRANCH  17  18
ATOM     18  C   UNL     1       4.958   4.069  16.337  0.00  0.00    +0.000 A 
ATOM     19  C   UNL     1       5.958   3.589  15.510  0.00  0.00    +0.000 A 
ATOM     20  C   UNL     1       6.755   4.631  14.951  0.00  0.00    +0.000 A 
ATOM     21  C   UNL     1       6.359   5.872  15.392  0.00  0.00    +0.000 A 
ATOM     22  S   UNL     1       5.045   5.776  16.485  0.00  0.00    +0.000 S 
ENDBRANCH  17  18
ENDBRANCH   3  17
TORSDOF 8
ENDMDL
