MODEL 1
REMARK VINA RESULT:      -8.6      0.000      0.000
REMARK  Name = 
REMARK  6 active torsions:
REMARK  status: ('A' for Active; 'I' for Inactive)
REMARK    1  A    between atoms: C_2  and  O_3
REMARK    2  A    between atoms: C_2  and  C_4
REMARK    3  A    between atoms: C_6  and  N_7
REMARK    4  A    between atoms: N_7  and  S_8
REMARK    5  A    between atoms: S_8  and  C_11
REMARK    6  A    between atoms: C_23  and  O_24
REMARK                            x       y       z     vdW  Elec       q    Type
REMARK                         _______ _______ _______ _____ _____    ______ ____
ROOT
ATOM      1  N   UNL     1       4.590   3.071  18.813  0.00  0.00    +0.000 N 
ATOM      2  H   UNL     1       5.001   2.193  19.122  0.00  0.00    +0.000 HD
ENDROOT
BRANCH   1   5
ATOM      3  C   UNL     1       6.575   4.934  16.287  0.00  0.00    +0.000 A 
ATOM      4  C   UNL     1       5.747   3.962  16.868  0.00  0.00    +0.000 A 
ATOM      5  C   UNL     1       5.404   4.060  18.213  0.00  0.00    +0.000 A 
ATOM      6  C   UNL     1       5.920   5.097  18.995  0.00  0.00    +0.000 A 
ATOM      7  C   UNL     1       6.746   6.071  18.421  0.00  0.00    +0.000 A 
ATOM      8  C   UNL     1       7.051   5.997  17.064  0.00  0.00    +0.000 A 
BRANCH   3  10
ATOM      9  O   UNL     1       7.753   5.491  14.304  0.00  0.00    +0.000 OA
ATOM     10  C   UNL     1       6.960   4.752  14.866  0.00  0.00    +0.000 C 
BRANCH  10  11
ATOM     11  O   UNL     1       6.406   3.672  14.276  0.00  0.00    +0.000 OA
ATOM     12  H   UNL     1       5.735   3.921  13.604  0.00  0.00    +0.000 HD
ENDBRANCH  10  11
ENDBRANCH   3  10
BRANCH   8  13
ATOM     13  O   UNL     1       7.814   6.974  16.481  0.00  0.00    +0.000 OA
ATOM     14  H   UNL     1       8.431   6.562  15.846  0.00  0.00    +0.000 HD
ENDBRANCH   8  13
ENDBRANCH   1   5
BRANCH   1  15
ATOM     15  S   UNL     1       2.921   3.070  18.630  0.00  0.00    +0.000 S 
ATOM     16  O   UNL     1       2.681   2.913  17.213  0.00  0.00    +0.000 OA
ATOM     17  O   UNL     1       2.345   2.152  19.591  0.00  0.00    +0.000 OA
BRANCH  15  18
ATOM     18  C   UNL     1       2.419   4.721  19.078  0.00  0.00    +0.000 A 
ATOM     19  C   UNL     1       2.044   4.985  20.397  0.00  0.00    +0.000 A 
ATOM     20  C   UNL     1       1.710   6.287  20.776  0.00  0.00    +0.000 A 
ATOM     21  C   UNL     1       1.761   7.345  19.850  0.00  0.00    +0.000 A 
ATOM     22  C   UNL     1       1.431   8.655  20.224  0.00  0.00    +0.000 A 
ATOM     23  C   UNL     1       1.496   9.698  19.302  0.00  0.00    +0.000 A 
ATOM     24  C   UNL     1       1.897   9.444  17.995  0.00  0.00    +0.000 A 
ATOM     25  C   UNL     1       2.229   8.144  17.605  0.00  0.00    +0.000 A 
ATOM     26  C   UNL     1       2.166   7.078  18.518  0.00  0.00    +0.000 A 
ATOM     27  C   UNL     1       2.498   5.761  18.144  0.00  0.00    +0.000 A 
ENDBRANCH  15  18
ENDBRANCH   1  15
TORSDOF 6
ENDMDL
MODEL 2
REMARK VINA RESULT:      -8.6      1.079      2.136
REMARK  Name = 
REMARK  6 active torsions:
REMARK  status: ('A' for Active; 'I' for Inactive)
REMARK    1  A    between atoms: C_2  and  O_3
REMARK    2  A    between atoms: C_2  and  C_4
REMARK    3  A    between atoms: C_6  and  N_7
REMARK    4  A    between atoms: N_7  and  S_8
REMARK    5  A    between atoms: S_8  and  C_11
REMARK    6  A    between atoms: C_23  and  O_24
REMARK                            x       y       z     vdW  Elec       q    Type
REMARK                         _______ _______ _______ _____ _____    ______ ____
ROOT
ATOM      1  N   UNL     1       4.211   2.753  18.494  0.00  0.00    +0.000 N 
ATOM      2  H   UNL     1       4.556   1.832  18.756  0.00  0.00    +0.000 HD
ENDROOT
BRANCH   1   5
ATOM      3  C   UNL     1       6.842   5.346  18.110  0.00  0.00    +0.000 A 
ATOM      4  C   UNL     1       5.994   4.395  18.697  0.00  0.00    +0.000 A 
ATOM      5  C   UNL     1       5.086   3.697  17.907  0.00  0.00    +0.000 A 
ATOM      6  C   UNL     1       4.986   3.975  16.541  0.00  0.00    +0.000 A 
ATOM      7  C   UNL     1       5.829   4.923  15.949  0.00  0.00    +0.000 A 
ATOM      8  C   UNL     1       6.769   5.588  16.733  0.00  0.00    +0.000 A 
BRANCH   3  10
ATOM      9  O   UNL     1       8.232   7.181  18.686  0.00  0.00    +0.000 OA
ATOM     10  C   UNL     1       7.749   6.106  19.005  0.00  0.00    +0.000 C 
BRANCH  10  11
ATOM     11  O   UNL     1       7.942   5.535  20.213  0.00  0.00    +0.000 OA
ATOM     12  H   UNL     1       8.412   4.676  20.145  0.00  0.00    +0.000 HD
ENDBRANCH  10  11
ENDBRANCH   3  10
BRANCH   8  13
ATOM     13  O   UNL     1       7.635   6.478  16.155  0.00  0.00    +0.000 OA
ATOM     14  H   UNL     1       7.285   6.744  15.284  0.00  0.00    +0.000 HD
ENDBRANCH   8  13
ENDBRANCH   1   5
BRANCH   1  15
ATOM     15  S   UNL     1       2.543   2.896  18.362  0.00  0.00    +0.000 S 
ATOM     16  O   UNL     1       2.256   2.868  16.945  0.00  0.00    +0.000 OA
ATOM     17  O   UNL     1       1.920   1.952  19.268  0.00  0.00    +0.000 OA
BRANCH  15  18
ATOM     18  C   UNL     1       2.185   4.540  18.949  0.00  0.00    +0.000 A 
ATOM     19  C   UNL     1       1.940   4.740  20.309  0.00  0.00    +0.000 A 
ATOM     20  C   UNL     1       1.721   6.032  20.792  0.00  0.00    +0.000 A 
ATOM     21  C   UNL     1       1.760   7.143  19.930  0.00  0.00    +0.000 A 
ATOM     22  C   UNL     1       1.546   8.443  20.409  0.00  0.00    +0.000 A 
ATOM     23  C   UNL     1       1.597   9.538  19.547  0.00  0.00    +0.000 A 
ATOM     24  C   UNL     1       1.870   9.345  18.197  0.00  0.00    +0.000 A 
ATOM     25  C   UNL     1       2.086   8.056  17.703  0.00  0.00    +0.000 A 
ATOM     26  C   UNL     1       2.033   6.939  18.554  0.00  0.00    +0.000 A 
ATOM     27  C   UNL     1       2.250   5.631  18.075  0.00  0.00    +0.000 A 
ENDBRANCH  15  18
ENDBRANCH   1  15
TORSDOF 6
ENDMDL
MODEL 3
REMARK VINA RESULT:      -8.3      0.679      1.541
REMARK  Name = 
REMARK  6 active torsions:
REMARK  status: ('A' for Active; 'I' for Inactive)
REMARK    1  A    between atoms: C_2  and  O_3
REMARK    2  A    between atoms: C_2  and  C_4
REMARK    3  A    between atoms: C_6  and  N_7
REMARK    4  A    between atoms: N_7  and  S_8
REMARK    5  A    between atoms: S_8  and  C_11
REMARK    6  A    between atoms: C_23  and  O_24
REMARK                            x       y       z     vdW  Elec       q    Type
REMARK                         _______ _______ _______ _____ _____    ______ ____
ROOT
ATOM      1  N   UNL     1       4.964   3.254  19.296  0.00  0.00    +0.000 N 
ATOM      2  H   UNL     1       5.397   2.377  19.580  0.00  0.00    +0.000 HD
ENDROOT
BRANCH   1   5
ATOM      3  C   UNL     1       6.700   4.988  16.508  0.00  0.00    +0.000 A 
ATOM      4  C   UNL     1       5.934   4.045  17.211  0.00  0.00    +0.000 A 
ATOM      5  C   UNL     1       5.713   4.212  18.574  0.00  0.00    +0.000 A 
ATOM      6  C   UNL     1       6.291   5.289  19.252  0.00  0.00    +0.000 A 
ATOM      7  C   UNL     1       7.055   6.233  18.557  0.00  0.00    +0.000 A 
ATOM      8  C   UNL     1       7.237   6.090  17.183  0.00  0.00    +0.000 A 
BRANCH   3  10
ATOM      9  O   UNL     1       7.678   5.451  14.397  0.00  0.00    +0.000 OA
ATOM     10  C   UNL     1       6.956   4.732  15.069  0.00  0.00    +0.000 C 
BRANCH  10  11
ATOM     11  O   UNL     1       6.371   3.613  14.592  0.00  0.00    +0.000 OA
ATOM     12  H   UNL     1       7.022   2.999  14.189  0.00  0.00    +0.000 HD
ENDBRANCH  10  11
ENDBRANCH   3  10
BRANCH   8  13
ATOM     13  O   UNL     1       7.938   7.036  16.483  0.00  0.00    +0.000 OA
ATOM     14  H   UNL     1       8.556   6.591  15.873  0.00  0.00    +0.000 HD
ENDBRANCH   8  13
ENDBRANCH   1   5
BRANCH   1  15
ATOM     15  S   UNL     1       3.285   3.276  19.313  0.00  0.00    +0.000 S 
ATOM     16  O   UNL     1       2.871   2.594  18.107  0.00  0.00    +0.000 OA
ATOM     17  O   UNL     1       2.824   2.837  20.614  0.00  0.00    +0.000 OA
BRANCH  15  18
ATOM     18  C   UNL     1       2.857   4.996  19.129  0.00  0.00    +0.000 A 
ATOM     19  C   UNL     1       2.975   5.598  17.874  0.00  0.00    +0.000 A 
ATOM     20  C   UNL     1       2.583   6.927  17.702  0.00  0.00    +0.000 A 
ATOM     21  C   UNL     1       2.052   7.669  18.772  0.00  0.00    +0.000 A 
ATOM     22  C   UNL     1       1.652   9.002  18.606  0.00  0.00    +0.000 A 
ATOM     23  C   UNL     1       1.118   9.725  19.671  0.00  0.00    +0.000 A 
ATOM     24  C   UNL     1       0.971   9.120  20.914  0.00  0.00    +0.000 A 
ATOM     25  C   UNL     1       1.365   7.792  21.098  0.00  0.00    +0.000 A 
ATOM     26  C   UNL     1       1.910   7.048  20.039  0.00  0.00    +0.000 A 
ATOM     27  C   UNL     1       2.312   5.707  20.204  0.00  0.00    +0.000 A 
ENDBRANCH  15  18
ENDBRANCH   1  15
TORSDOF 6
ENDMDL
MODEL 4
REMARK VINA RESULT:      -8.3      1.140      2.617
REMARK  Name = 
REMARK  6 active torsions:
REMARK  status: ('A' for Active; 'I' for Inactive)
REMARK    1  A    between atoms: C_2  and  O_3
REMARK    2  A    between atoms: C_2  and  C_4
REMARK    3  A    between atoms: C_6  and  N_7
REMARK    4  A    between atoms: N_7  and  S_8
REMARK    5  A    between atoms: S_8  and  C_11
REMARK    6  A    between atoms: C_23  and  O_24
REMARK                            x       y       z     vdW  Elec       q    Type
REMARK                         _______ _______ _______ _____ _____    ______ ____
ROOT
ATOM      1  N   UNL     1       4.506   3.840  19.523  0.00  0.00    +0.000 N 
ATOM      2  H   UNL     1       4.909   3.170  20.174  0.00  0.00    +0.000 HD
ENDROOT
BRANCH   1   5
ATOM      3  C   UNL     1       6.897   5.941  17.611  0.00  0.00    +0.000 A 
ATOM      4  C   UNL     1       6.145   5.425  18.676  0.00  0.00    +0.000 A 
ATOM      5  C   UNL     1       5.287   4.351  18.460  0.00  0.00    +0.000 A 
ATOM      6  C   UNL     1       5.139   3.819  17.176  0.00  0.00    +0.000 A 
ATOM      7  C   UNL     1       5.887   4.329  16.109  0.00  0.00    +0.000 A 
ATOM      8  C   UNL     1       6.781   5.374  16.337  0.00  0.00    +0.000 A 
BRANCH   3  10
ATOM      9  O   UNL     1       7.776   8.094  17.140  0.00  0.00    +0.000 OA
ATOM     10  C   UNL     1       7.752   7.124  17.880  0.00  0.00    +0.000 C 
BRANCH  10  11
ATOM     11  O   UNL     1       8.446   7.056  19.036  0.00  0.00    +0.000 OA
ATOM     12  H   UNL     1       8.332   7.862  19.584  0.00  0.00    +0.000 HD
ENDBRANCH  10  11
ENDBRANCH   3  10
BRANCH   8  13
ATOM     13  O   UNL     1       7.557   5.845  15.311  0.00  0.00    +0.000 OA
ATOM     14  H   UNL     1       8.352   5.285  15.228  0.00  0.00    +0.000 HD
ENDBRANCH   8  13
ENDBRANCH   1   5
BRANCH   1  15
ATOM     15  S   UNL     1       2.829   3.919  19.503  0.00  0.00    +0.000 S 
ATOM     16  O   UNL     1       2.420   3.289  18.266  0.00  0.00    +0.000 OA
ATOM     17  O   UNL     1       2.323   3.455  20.779  0.00  0.00    +0.000 OA
BRANCH  15  18
ATOM     18  C   UNL     1       2.462   5.657  19.365  0.00  0.00    +0.000 A 
ATOM     19  C   UNL     1       2.601   6.287  18.127  0.00  0.00    +0.000 A 
ATOM     20  C   UNL     1       2.257   7.634  17.990  0.00  0.00    +0.000 A 
ATOM     21  C   UNL     1       1.753   8.365  19.080  0.00  0.00    +0.000 A 
ATOM     22  C   UNL     1       1.401   9.716  18.950  0.00  0.00    +0.000 A 
ATOM     23  C   UNL     1       0.893  10.429  20.034  0.00  0.00    +0.000 A 
ATOM     24  C   UNL     1       0.726   9.797  21.262  0.00  0.00    +0.000 A 
ATOM     25  C   UNL     1       1.072   8.451  21.410  0.00  0.00    +0.000 A 
ATOM     26  C   UNL     1       1.590   7.717  20.330  0.00  0.00    +0.000 A 
ATOM     27  C   UNL     1       1.943   6.359  20.460  0.00  0.00    +0.000 A 
ENDBRANCH  15  18
ENDBRANCH   1  15
TORSDOF 6
ENDMDL
MODEL 5
REMARK VINA RESULT:      -8.1      1.009      2.107
REMARK  Name = 
REMARK  6 active torsions:
REMARK  status: ('A' for Active; 'I' for Inactive)
REMARK    1  A    between atoms: C_2  and  O_3
REMARK    2  A    between atoms: C_2  and  C_4
REMARK    3  A    between atoms: C_6  and  N_7
REMARK    4  A    between atoms: N_7  and  S_8
REMARK    5  A    between atoms: S_8  and  C_11
REMARK    6  A    between atoms: C_23  and  O_24
REMARK                            x       y       z     vdW  Elec       q    Type
REMARK                         _______ _______ _______ _____ _____    ______ ____
ROOT
ATOM      1  N   UNL     1       4.496   3.903  19.376  0.00  0.00    +0.000 N 
ATOM      2  H   UNL     1       4.892   3.327  20.116  0.00  0.00    +0.000 HD
ENDROOT
BRANCH   1   5
ATOM      3  C   UNL     1       6.921   6.017  17.522  0.00  0.00    +0.000 A 
ATOM      4  C   UNL     1       6.120   5.519  18.560  0.00  0.00    +0.000 A 
ATOM      5  C   UNL     1       5.326   4.397  18.344  0.00  0.00    +0.000 A 
ATOM      6  C   UNL     1       5.290   3.796  17.082  0.00  0.00    +0.000 A 
ATOM      7  C   UNL     1       6.088   4.288  16.042  0.00  0.00    +0.000 A 
ATOM      8  C   UNL     1       6.917   5.383  16.275  0.00  0.00    +0.000 A 
BRANCH   3  10
ATOM      9  O   UNL     1       7.628   8.237  17.073  0.00  0.00    +0.000 OA
ATOM     10  C   UNL     1       7.704   7.250  17.787  0.00  0.00    +0.000 C 
BRANCH  10  11
ATOM     11  O   UNL     1       8.452   7.202  18.909  0.00  0.00    +0.000 OA
ATOM     12  H   UNL     1       9.009   6.395  18.948  0.00  0.00    +0.000 HD
ENDBRANCH  10  11
ENDBRANCH   3  10
BRANCH   8  13
ATOM     13  O   UNL     1       7.742   5.839  15.280  0.00  0.00    +0.000 OA
ATOM     14  H   UNL     1       7.319   6.599  14.837  0.00  0.00    +0.000 HD
ENDBRANCH   8  13
ENDBRANCH   1   5
BRANCH   1  15
ATOM     15  S   UNL     1       2.827   3.825  19.207  0.00  0.00    +0.000 S 
ATOM     16  O   UNL     1       2.588   3.484  17.822  0.00  0.00    +0.000 OA
ATOM     17  O   UNL     1       2.285   3.015  20.279  0.00  0.00    +0.000 OA
BRANCH  15  18
ATOM     18  C   UNL     1       2.272   5.501  19.450  0.00  0.00    +0.000 A 
ATOM     19  C   UNL     1       1.745   5.873  20.688  0.00  0.00    +0.000 A 
ATOM     20  C   UNL     1       1.366   7.198  20.913  0.00  0.00    +0.000 A 
ATOM     21  C   UNL     1       1.522   8.173  19.912  0.00  0.00    +0.000 A 
ATOM     22  C   UNL     1       1.148   9.506  20.131  0.00  0.00    +0.000 A 
ATOM     23  C   UNL     1       1.317  10.468  19.135  0.00  0.00    +0.000 A 
ATOM     24  C   UNL     1       1.868  10.107  17.911  0.00  0.00    +0.000 A 
ATOM     25  C   UNL     1       2.247   8.783  17.676  0.00  0.00    +0.000 A 
ATOM     26  C   UNL     1       2.080   7.799  18.664  0.00  0.00    +0.000 A 
ATOM     27  C   UNL     1       2.457   6.458  18.445  0.00  0.00    +0.000 A 
ENDBRANCH  15  18
ENDBRANCH   1  15
TORSDOF 6
ENDMDL
MODEL 6
REMARK VINA RESULT:      -8.0      2.930      6.976
REMARK  Name = 
REMARK  6 active torsions:
REMARK  status: ('A' for Active; 'I' for Inactive)
REMARK    1  A    between atoms: C_2  and  O_3
REMARK    2  A    between atoms: C_2  and  C_4
REMARK    3  A    between atoms: C_6  and  N_7
REMARK    4  A    between atoms: N_7  and  S_8
REMARK    5  A    between atoms: S_8  and  C_11
REMARK    6  A    between atoms: C_23  and  O_24
REMARK                            x       y       z     vdW  Elec       q    Type
REMARK                         _______ _______ _______ _____ _____    ______ ____
ROOT
ATOM      1  N   UNL     1       4.450   5.956  18.580  0.00  0.00    +0.000 N 
ATOM      2  H   UNL     1       4.298   6.898  18.225  0.00  0.00    +0.000 HD
ENDROOT
BRANCH   1   5
ATOM      3  C   UNL     1       2.164   3.533  20.220  0.00  0.00    +0.000 A 
ATOM      4  C   UNL     1       3.247   4.398  20.009  0.00  0.00    +0.000 A 
ATOM      5  C   UNL     1       3.349   5.100  18.812  0.00  0.00    +0.000 A 
ATOM      6  C   UNL     1       2.400   4.907  17.803  0.00  0.00    +0.000 A 
ATOM      7  C   UNL     1       1.317   4.045  18.008  0.00  0.00    +0.000 A 
ATOM      8  C   UNL     1       1.191   3.379  19.225  0.00  0.00    +0.000 A 
BRANCH   3  10
ATOM      9  O   UNL     1       3.137   2.268  21.976  0.00  0.00    +0.000 OA
ATOM     10  C   UNL     1       2.133   2.763  21.489  0.00  0.00    +0.000 C 
BRANCH  10  11
ATOM     11  O   UNL     1       0.921   2.714  22.079  0.00  0.00    +0.000 OA
ATOM     12  H   UNL     1       0.397   3.529  21.917  0.00  0.00    +0.000 HD
ENDBRANCH  10  11
ENDBRANCH   3  10
BRANCH   8  13
ATOM     13  O   UNL     1       0.107   2.575  19.456  0.00  0.00    +0.000 OA
ATOM     14  H   UNL     1      -0.572   3.084  19.938  0.00  0.00    +0.000 HD
ENDBRANCH   8  13
ENDBRANCH   1   5
BRANCH   1  15
ATOM     15  S   UNL     1       6.012   5.361  18.418  0.00  0.00    +0.000 S 
ATOM     16  O   UNL     1       6.883   6.512  18.511  0.00  0.00    +0.000 OA
ATOM     17  O   UNL     1       6.176   4.228  19.305  0.00  0.00    +0.000 OA
BRANCH  15  18
ATOM     18  C   UNL     1       6.093   4.763  16.741  0.00  0.00    +0.000 A 
ATOM     19  C   UNL     1       5.224   3.748  16.336  0.00  0.00    +0.000 A 
ATOM     20  C   UNL     1       5.233   3.314  15.009  0.00  0.00    +0.000 A 
ATOM     21  C   UNL     1       6.095   3.898  14.063  0.00  0.00    +0.000 A 
ATOM     22  C   UNL     1       6.107   3.472  12.728  0.00  0.00    +0.000 A 
ATOM     23  C   UNL     1       6.958   4.064  11.797  0.00  0.00    +0.000 A 
ATOM     24  C   UNL     1       7.804   5.096  12.190  0.00  0.00    +0.000 A 
ATOM     25  C   UNL     1       7.805   5.534  13.516  0.00  0.00    +0.000 A 
ATOM     26  C   UNL     1       6.959   4.946  14.471  0.00  0.00    +0.000 A 
ATOM     27  C   UNL     1       6.945   5.375  15.814  0.00  0.00    +0.000 A 
ENDBRANCH  15  18
ENDBRANCH   1  15
TORSDOF 6
ENDMDL
MODEL 7
REMARK VINA RESULT:      -7.9      1.450      2.347
REMARK  Name = 
REMARK  6 active torsions:
REMARK  status: ('A' for Active; 'I' for Inactive)
REMARK    1  A    between atoms: C_2  and  O_3
REMARK    2  A    between atoms: C_2  and  C_4
REMARK    3  A    between atoms: C_6  and  N_7
REMARK    4  A    between atoms: N_7  and  S_8
REMARK    5  A    between atoms: S_8  and  C_11
REMARK    6  A    between atoms: C_23  and  O_24
REMARK                            x       y       z     vdW  Elec       q    Type
REMARK                         _______ _______ _______ _____ _____    ______ ____
ROOT
ATOM      1  N   UNL     1       4.364   2.914  17.451  0.00  0.00    +0.000 N 
ATOM      2  H   UNL     1       4.094   2.372  16.632  0.00  0.00    +0.000 HD
ENDROOT
BRANCH   1   5
ATOM      3  C   UNL     1       6.867   5.560  18.176  0.00  0.00    +0.000 A 
ATOM      4  C   UNL     1       6.069   4.415  18.320  0.00  0.00    +0.000 A 
ATOM      5  C   UNL     1       5.190   4.053  17.304  0.00  0.00    +0.000 A 
ATOM      6  C   UNL     1       5.067   4.853  16.165  0.00  0.00    +0.000 A 
ATOM      7  C   UNL     1       5.860   5.996  16.015  0.00  0.00    +0.000 A 
ATOM      8  C   UNL     1       6.774   6.331  17.012  0.00  0.00    +0.000 A 
BRANCH   3  10
ATOM      9  O   UNL     1       7.792   5.283  20.343  0.00  0.00    +0.000 OA
ATOM     10  C   UNL     1       7.744   5.935  19.313  0.00  0.00    +0.000 C 
BRANCH  10  11
ATOM     11  O   UNL     1       8.519   7.016  19.082  0.00  0.00    +0.000 OA
ATOM     12  H   UNL     1       9.372   6.776  18.659  0.00  0.00    +0.000 HD
ENDBRANCH  10  11
ENDBRANCH   3  10
BRANCH   8  13
ATOM     13  O   UNL     1       7.593   7.418  16.852  0.00  0.00    +0.000 OA
ATOM     14  H   UNL     1       7.547   7.719  15.925  0.00  0.00    +0.000 HD
ENDBRANCH   8  13
ENDBRANCH   1   5
BRANCH   1  15
ATOM     15  S   UNL     1       3.430   2.671  18.825  0.00  0.00    +0.000 S 
ATOM     16  O   UNL     1       2.308   1.863  18.401  0.00  0.00    +0.000 OA
ATOM     17  O   UNL     1       4.293   2.241  19.907  0.00  0.00    +0.000 OA
BRANCH  15  18
ATOM     18  C   UNL     1       2.801   4.288  19.232  0.00  0.00    +0.000 A 
ATOM     19  C   UNL     1       2.417   4.559  20.548  0.00  0.00    +0.000 A 
ATOM     20  C   UNL     1       1.982   5.840  20.894  0.00  0.00    +0.000 A 
ATOM     21  C   UNL     1       1.941   6.872  19.940  0.00  0.00    +0.000 A 
ATOM     22  C   UNL     1       1.510   8.161  20.281  0.00  0.00    +0.000 A 
ATOM     23  C   UNL     1       1.482   9.180  19.329  0.00  0.00    +0.000 A 
ATOM     24  C   UNL     1       1.891   8.921  18.026  0.00  0.00    +0.000 A 
ATOM     25  C   UNL     1       2.324   7.642  17.668  0.00  0.00    +0.000 A 
ATOM     26  C   UNL     1       2.354   6.600  18.611  0.00  0.00    +0.000 A 
ATOM     27  C   UNL     1       2.788   5.304  18.270  0.00  0.00    +0.000 A 
ENDBRANCH  15  18
ENDBRANCH   1  15
TORSDOF 6
ENDMDL
MODEL 8
REMARK VINA RESULT:      -7.8      3.550      6.671
REMARK  Name = 
REMARK  6 active torsions:
REMARK  status: ('A' for Active; 'I' for Inactive)
REMARK    1  A    between atoms: C_2  and  O_3
REMARK    2  A    between atoms: C_2  and  C_4
REMARK    3  A    between atoms: C_6  and  N_7
REMARK    4  A    between atoms: N_7  and  S_8
REMARK    5  A    between atoms: S_8  and  C_11
REMARK    6  A    between atoms: C_23  and  O_24
REMARK                            x       y       z     vdW  Elec       q    Type
REMARK                         _______ _______ _______ _____ _____    ______ ____
ROOT
ATOM      1  N   UNL     1       2.314   6.191  21.087  0.00  0.00    +0.000 N 
ATOM      2  H   UNL     1       3.022   6.276  21.814  0.00  0.00    +0.000 HD
ENDROOT
BRANCH   1   5
ATOM      3  C   UNL     1       0.849   9.454  20.087  0.00  0.00    +0.000 A 
ATOM      4  C   UNL     1       1.216   8.351  20.872  0.00  0.00    +0.000 A 
ATOM      5  C   UNL     1       1.959   7.318  20.310  0.00  0.00    +0.000 A 
ATOM      6  C   UNL     1       2.298   7.356  18.954  0.00  0.00    +0.000 A 
ATOM      7  C   UNL     1       1.935   8.453  18.165  0.00  0.00    +0.000 A 
ATOM      8  C   UNL     1       1.231   9.508  18.741  0.00  0.00    +0.000 A 
BRANCH   3  10
ATOM      9  O   UNL     1      -0.988  10.954  20.174  0.00  0.00    +0.000 OA
ATOM     10  C   UNL     1       0.006  10.500  20.718  0.00  0.00    +0.000 C 
BRANCH  10  11
ATOM     11  O   UNL     1       0.400  10.855  21.959  0.00  0.00    +0.000 OA
ATOM     12  H   UNL     1       1.039  11.600  21.945  0.00  0.00    +0.000 HD
ENDBRANCH  10  11
ENDBRANCH   3  10
BRANCH   8  13
ATOM     13  O   UNL     1       0.917  10.611  17.992  0.00  0.00    +0.000 OA
ATOM     14  H   UNL     1      -0.012  10.546  17.701  0.00  0.00    +0.000 HD
ENDBRANCH   8  13
ENDBRANCH   1   5
BRANCH   1  15
ATOM     15  S   UNL     1       1.973   4.627  20.582  0.00  0.00    +0.000 S 
ATOM     16  O   UNL     1       2.403   3.763  21.659  0.00  0.00    +0.000 OA
ATOM     17  O   UNL     1       0.613   4.581  20.086  0.00  0.00    +0.000 OA
BRANCH  15  18
ATOM     18  C   UNL     1       3.070   4.351  19.204  0.00  0.00    +0.000 A 
ATOM     19  C   UNL     1       2.542   3.901  17.992  0.00  0.00    +0.000 A 
ATOM     20  C   UNL     1       3.381   3.741  16.887  0.00  0.00    +0.000 A 
ATOM     21  C   UNL     1       4.752   4.045  16.970  0.00  0.00    +0.000 A 
ATOM     22  C   UNL     1       5.598   3.891  15.863  0.00  0.00    +0.000 A 
ATOM     23  C   UNL     1       6.954   4.205  15.953  0.00  0.00    +0.000 A 
ATOM     24  C   UNL     1       7.477   4.681  17.150  0.00  0.00    +0.000 A 
ATOM     25  C   UNL     1       6.647   4.840  18.263  0.00  0.00    +0.000 A 
ATOM     26  C   UNL     1       5.280   4.525  18.194  0.00  0.00    +0.000 A 
ATOM     27  C   UNL     1       4.427   4.680  19.306  0.00  0.00    +0.000 A 
ENDBRANCH  15  18
ENDBRANCH   1  15
TORSDOF 6
ENDMDL
MODEL 9
REMARK VINA RESULT:      -7.8      1.380      1.842
REMARK  Name = 
REMARK  6 active torsions:
REMARK  status: ('A' for Active; 'I' for Inactive)
REMARK    1  A    between atoms: C_2  and  O_3
REMARK    2  A    between atoms: C_2  and  C_4
REMARK    3  A    between atoms: C_6  and  N_7
REMARK    4  A    between atoms: N_7  and  S_8
REMARK    5  A    between atoms: S_8  and  C_11
REMARK    6  A    between atoms: C_23  and  O_24
REMARK                            x       y       z     vdW  Elec       q    Type
REMARK                         _______ _______ _______ _____ _____    ______ ____
ROOT
ATOM      1  N   UNL     1       3.986   3.620  16.903  0.00  0.00    +0.000 N 
ATOM      2  H   UNL     1       3.071   3.508  16.470  0.00  0.00    +0.000 HD
ENDROOT
BRANCH   1   5
ATOM      3  C   UNL     1       6.348   4.227  14.102  0.00  0.00    +0.000 A 
ATOM      4  C   UNL     1       5.259   3.729  14.833  0.00  0.00    +0.000 A 
ATOM      5  C   UNL     1       5.066   4.136  16.150  0.00  0.00    +0.000 A 
ATOM      6  C   UNL     1       5.981   5.000  16.758  0.00  0.00    +0.000 A 
ATOM      7  C   UNL     1       7.069   5.501  16.034  0.00  0.00    +0.000 A 
ATOM      8  C   UNL     1       7.234   5.129  14.701  0.00  0.00    +0.000 A 
BRANCH   3  10
ATOM      9  O   UNL     1       7.200   4.320  11.890  0.00  0.00    +0.000 OA
ATOM     10  C   UNL     1       6.542   3.717  12.722  0.00  0.00    +0.000 C 
BRANCH  10  11
ATOM     11  O   UNL     1       5.982   2.510  12.493  0.00  0.00    +0.000 OA
ATOM     12  H   UNL     1       6.634   1.779  12.571  0.00  0.00    +0.000 HD
ENDBRANCH  10  11
ENDBRANCH   3  10
BRANCH   8  13
ATOM     13  O   UNL     1       8.265   5.655  13.967  0.00  0.00    +0.000 OA
ATOM     14  H   UNL     1       8.312   6.617  14.125  0.00  0.00    +0.000 HD
ENDBRANCH   8  13
ENDBRANCH   1   5
BRANCH   1  15
ATOM     15  S   UNL     1       4.003   3.614  18.582  0.00  0.00    +0.000 S 
ATOM     16  O   UNL     1       3.200   2.478  18.979  0.00  0.00    +0.000 OA
ATOM     17  O   UNL     1       5.370   3.757  19.037  0.00  0.00    +0.000 OA
BRANCH  15  18
ATOM     18  C   UNL     1       3.111   5.086  19.045  0.00  0.00    +0.000 A 
ATOM     19  C   UNL     1       2.545   5.168  20.319  0.00  0.00    +0.000 A 
ATOM     20  C   UNL     1       1.899   6.340  20.718  0.00  0.00    +0.000 A 
ATOM     21  C   UNL     1       1.823   7.452  19.859  0.00  0.00    +0.000 A 
ATOM     22  C   UNL     1       1.180   8.633  20.254  0.00  0.00    +0.000 A 
ATOM     23  C   UNL     1       1.120   9.733  19.399  0.00  0.00    +0.000 A 
ATOM     24  C   UNL     1       1.709   9.665  18.141  0.00  0.00    +0.000 A 
ATOM     25  C   UNL     1       2.353   8.495  17.732  0.00  0.00    +0.000 A 
ATOM     26  C   UNL     1       2.420   7.374  18.576  0.00  0.00    +0.000 A 
ATOM     27  C   UNL     1       3.068   6.187  18.181  0.00  0.00    +0.000 A 
ENDBRANCH  15  18
ENDBRANCH   1  15
TORSDOF 6
ENDMDL
