MODEL 1
REMARK VINA RESULT:      -8.5      0.000      0.000
REMARK  Name = 
REMARK  5 active torsions:
REMARK  status: ('A' for Active; 'I' for Inactive)
REMARK    1  A    between atoms: C_1  and  N_2
REMARK    2  A    between atoms: N_2  and  C_3
REMARK    3  A    between atoms: N_2  and  C_12
REMARK    4  A    between atoms: N_15  and  S_16
REMARK    5  A    between atoms: S_16  and  C_19
REMARK                            x       y       z     vdW  Elec       q    Type
REMARK                         _______ _______ _______ _____ _____    ______ ____
ROOT
ATOM      1  C   UNL     1       4.333   6.295  18.368  0.00  0.00    +0.000 C 
ATOM      2  C   UNL     1       4.121   6.529  16.872  0.00  0.00    +0.000 C 
ATOM      3  C   UNL     1       4.465   5.195  16.214  0.00  0.00    +0.000 C 
ATOM      4  N   UNL     1       5.607   4.676  17.013  0.00  0.00    +0.000 NA
ATOM      5  C   UNL     1       5.289   5.073  18.433  0.00  0.00    +0.000 C 
ENDROOT
BRANCH   4   6
ATOM      6  S   UNL     1       7.168   5.123  16.462  0.00  0.00    +0.000 S 
ATOM      7  O   UNL     1       7.358   6.539  16.717  0.00  0.00    +0.000 OA
ATOM      8  O   UNL     1       8.113   4.153  16.969  0.00  0.00    +0.000 OA
BRANCH   6   9
ATOM      9  C   UNL     1       7.093   4.891  14.700  0.00  0.00    +0.000 A 
ATOM     10  C   UNL     1       7.930   5.620  13.845  0.00  0.00    +0.000 A 
ATOM     11  C   UNL     1       7.928   5.345  12.472  0.00  0.00    +0.000 A 
ATOM     12  C   UNL     1       7.118   4.328  11.964  0.00  0.00    +0.000 A 
ATOM     13  C   UNL     1       6.321   3.588  12.829  0.00  0.00    +0.000 A 
ATOM     14  F   UNL     1       5.577   2.586  12.343  0.00  0.00    +0.000 F 
ATOM     15  C   UNL     1       6.299   3.857  14.192  0.00  0.00    +0.000 A 
ENDBRANCH   6   9
ENDBRANCH   4   6
BRANCH   1  17
ATOM     16  C   UNL     1       2.419   7.359  19.647  0.00  0.00    +0.000 C 
ATOM     17  N   UNL     1       3.053   6.159  19.093  0.00  0.00    +0.000 N 
BRANCH  17  18
ATOM     18  C   UNL     1       2.645   4.939  19.659  0.00  0.00    +0.000 A 
ATOM     19  N   UNL     1       2.480   4.911  21.019  0.00  0.00    +0.000 NA
ATOM     20  C   UNL     1       2.146   3.779  21.662  0.00  0.00    +0.000 A 
ATOM     21  N   UNL     1       1.948   2.573  21.132  0.00  0.00    +0.000 NA
ATOM     22  C   UNL     1       2.068   2.608  19.801  0.00  0.00    +0.000 A 
ATOM     23  N   UNL     1       1.908   1.500  19.019  0.00  0.00    +0.000 N 
ATOM     24  C   UNL     1       2.028   1.841  17.704  0.00  0.00    +0.000 A 
ATOM     25  C   UNL     1       2.294   3.199  17.653  0.00  0.00    +0.000 A 
ATOM     26  C   UNL     1       2.369   3.705  18.992  0.00  0.00    +0.000 A 
ATOM     27  H   UNL     1       1.716   0.580  19.388  0.00  0.00    +0.000 HD
ENDBRANCH  17  18
ENDBRANCH   1  17
TORSDOF 4
ENDMDL
MODEL 2
REMARK VINA RESULT:      -8.4      0.932      1.328
REMARK  Name = 
REMARK  5 active torsions:
REMARK  status: ('A' for Active; 'I' for Inactive)
REMARK    1  A    between atoms: C_1  and  N_2
REMARK    2  A    between atoms: N_2  and  C_3
REMARK    3  A    between atoms: N_2  and  C_12
REMARK    4  A    between atoms: N_15  and  S_16
REMARK    5  A    between atoms: S_16  and  C_19
REMARK                            x       y       z     vdW  Elec       q    Type
REMARK                         _______ _______ _______ _____ _____    ______ ____
ROOT
ATOM      1  C   UNL     1       4.261   6.259  18.625  0.00  0.00    +0.000 C 
ATOM      2  C   UNL     1       4.057   6.680  17.169  0.00  0.00    +0.000 C 
ATOM      3  C   UNL     1       4.345   5.422  16.354  0.00  0.00    +0.000 C 
ATOM      4  N   UNL     1       5.465   4.764  17.077  0.00  0.00    +0.000 NA
ATOM      5  C   UNL     1       5.165   4.999  18.537  0.00  0.00    +0.000 C 
ENDROOT
BRANCH   4   6
ATOM      6  S   UNL     1       7.042   5.209  16.574  0.00  0.00    +0.000 S 
ATOM      7  O   UNL     1       7.174   6.649  16.696  0.00  0.00    +0.000 OA
ATOM      8  O   UNL     1       7.984   4.328  17.230  0.00  0.00    +0.000 OA
BRANCH   6   9
ATOM      9  C   UNL     1       7.081   4.802  14.843  0.00  0.00    +0.000 A 
ATOM     10  C   UNL     1       6.309   3.749  14.337  0.00  0.00    +0.000 A 
ATOM     11  C   UNL     1       6.275   3.515  12.957  0.00  0.00    +0.000 A 
ATOM     12  C   UNL     1       6.983   4.346  12.089  0.00  0.00    +0.000 A 
ATOM     13  C   UNL     1       7.716   5.411  12.602  0.00  0.00    +0.000 A 
ATOM     14  F   UNL     1       8.359   6.232  11.762  0.00  0.00    +0.000 F 
ATOM     15  C   UNL     1       7.773   5.649  13.969  0.00  0.00    +0.000 A 
ENDBRANCH   6   9
ENDBRANCH   4   6
BRANCH   1  17
ATOM     16  C   UNL     1       2.345   7.261  19.950  0.00  0.00    +0.000 C 
ATOM     17  N   UNL     1       2.978   6.090  19.337  0.00  0.00    +0.000 N 
BRANCH  17  18
ATOM     18  C   UNL     1       2.563   4.843  19.836  0.00  0.00    +0.000 A 
ATOM     19  N   UNL     1       2.394   4.744  21.192  0.00  0.00    +0.000 NA
ATOM     20  C   UNL     1       2.053   3.581  21.774  0.00  0.00    +0.000 A 
ATOM     21  N   UNL     1       1.852   2.406  21.180  0.00  0.00    +0.000 NA
ATOM     22  C   UNL     1       1.977   2.510  19.853  0.00  0.00    +0.000 A 
ATOM     23  N   UNL     1       1.816   1.445  19.013  0.00  0.00    +0.000 N 
ATOM     24  C   UNL     1       1.942   1.856  17.718  0.00  0.00    +0.000 A 
ATOM     25  C   UNL     1       2.213   3.213  17.740  0.00  0.00    +0.000 A 
ATOM     26  C   UNL     1       2.285   3.648  19.104  0.00  0.00    +0.000 A 
ATOM     27  H   UNL     1       1.620   0.509  19.333  0.00  0.00    +0.000 HD
ENDBRANCH  17  18
ENDBRANCH   1  17
TORSDOF 4
ENDMDL
MODEL 3
REMARK VINA RESULT:      -7.9      3.172      7.243
REMARK  Name = 
REMARK  5 active torsions:
REMARK  status: ('A' for Active; 'I' for Inactive)
REMARK    1  A    between atoms: C_1  and  N_2
REMARK    2  A    between atoms: N_2  and  C_3
REMARK    3  A    between atoms: N_2  and  C_12
REMARK    4  A    between atoms: N_15  and  S_16
REMARK    5  A    between atoms: S_16  and  C_19
REMARK                            x       y       z     vdW  Elec       q    Type
REMARK                         _______ _______ _______ _____ _____    ______ ____
ROOT
ATOM      1  C   UNL     1       5.058   5.022  16.518  0.00  0.00    +0.000 C 
ATOM      2  C   UNL     1       4.799   6.496  16.206  0.00  0.00    +0.000 C 
ATOM      3  C   UNL     1       4.919   7.210  17.549  0.00  0.00    +0.000 C 
ATOM      4  N   UNL     1       4.329   6.255  18.526  0.00  0.00    +0.000 NA
ATOM      5  C   UNL     1       4.764   4.896  18.038  0.00  0.00    +0.000 C 
ENDROOT
BRANCH   4   6
ATOM      6  S   UNL     1       2.648   6.426  18.812  0.00  0.00    +0.000 S 
ATOM      7  O   UNL     1       2.454   7.462  19.810  0.00  0.00    +0.000 OA
ATOM      8  O   UNL     1       1.984   6.509  17.529  0.00  0.00    +0.000 OA
BRANCH   6   9
ATOM      9  C   UNL     1       2.167   4.875  19.537  0.00  0.00    +0.000 A 
ATOM     10  C   UNL     1       2.374   4.625  20.899  0.00  0.00    +0.000 A 
ATOM     11  C   UNL     1       1.893   3.440  21.469  0.00  0.00    +0.000 A 
ATOM     12  C   UNL     1       1.183   2.527  20.688  0.00  0.00    +0.000 A 
ATOM     13  C   UNL     1       0.951   2.805  19.345  0.00  0.00    +0.000 A 
ATOM     14  F   UNL     1       0.234   1.947  18.610  0.00  0.00    +0.000 F 
ATOM     15  C   UNL     1       1.435   3.969  18.760  0.00  0.00    +0.000 A 
ENDBRANCH   6   9
ENDBRANCH   4   6
BRANCH   1  17
ATOM     16  C   UNL     1       7.485   4.526  17.062  0.00  0.00    +0.000 C 
ATOM     17  N   UNL     1       6.401   4.592  16.078  0.00  0.00    +0.000 N 
BRANCH  17  18
ATOM     18  C   UNL     1       6.803   4.671  14.734  0.00  0.00    +0.000 A 
ATOM     19  N   UNL     1       7.879   5.473  14.455  0.00  0.00    +0.000 NA
ATOM     20  C   UNL     1       8.308   5.659  13.195  0.00  0.00    +0.000 A 
ATOM     21  N   UNL     1       7.791   5.149  12.079  0.00  0.00    +0.000 NA
ATOM     22  C   UNL     1       6.768   4.334  12.352  0.00  0.00    +0.000 A 
ATOM     23  N   UNL     1       6.067   3.681  11.378  0.00  0.00    +0.000 N 
ATOM     24  C   UNL     1       5.123   2.878  11.948  0.00  0.00    +0.000 A 
ATOM     25  C   UNL     1       5.214   3.044  13.320  0.00  0.00    +0.000 A 
ATOM     26  C   UNL     1       6.235   4.010  13.601  0.00  0.00    +0.000 A 
ATOM     27  H   UNL     1       6.253   3.787  10.392  0.00  0.00    +0.000 HD
ENDBRANCH  17  18
ENDBRANCH   1  17
TORSDOF 4
ENDMDL
MODEL 4
REMARK VINA RESULT:      -7.7      1.629      3.309
REMARK  Name = 
REMARK  5 active torsions:
REMARK  status: ('A' for Active; 'I' for Inactive)
REMARK    1  A    between atoms: C_1  and  N_2
REMARK    2  A    between atoms: N_2  and  C_3
REMARK    3  A    between atoms: N_2  and  C_12
REMARK    4  A    between atoms: N_15  and  S_16
REMARK    5  A    between atoms: S_16  and  C_19
REMARK                            x       y       z     vdW  Elec       q    Type
REMARK                         _______ _______ _______ _____ _____    ______ ____
ROOT
ATOM      1  C   UNL     1       4.008   4.832  18.160  0.00  0.00    +0.000 C 
ATOM      2  C   UNL     1       4.918   5.957  18.653  0.00  0.00    +0.000 C 
ATOM      3  C   UNL     1       5.191   6.810  17.417  0.00  0.00    +0.000 C 
ATOM      4  N   UNL     1       5.297   5.826  16.307  0.00  0.00    +0.000 NA
ATOM      5  C   UNL     1       4.259   4.779  16.628  0.00  0.00    +0.000 C 
ENDROOT
BRANCH   4   6
ATOM      6  S   UNL     1       6.871   5.223  15.993  0.00  0.00    +0.000 S 
ATOM      7  O   UNL     1       7.824   6.298  16.196  0.00  0.00    +0.000 OA
ATOM      8  O   UNL     1       7.016   3.970  16.701  0.00  0.00    +0.000 OA
BRANCH   6   9
ATOM      9  C   UNL     1       6.852   4.831  14.259  0.00  0.00    +0.000 A 
ATOM     10  C   UNL     1       7.741   5.453  13.373  0.00  0.00    +0.000 A 
ATOM     11  C   UNL     1       7.779   5.052  12.032  0.00  0.00    +0.000 A 
ATOM     12  C   UNL     1       6.956   4.017  11.588  0.00  0.00    +0.000 A 
ATOM     13  C   UNL     1       6.105   3.382  12.486  0.00  0.00    +0.000 A 
ATOM     14  F   UNL     1       5.348   2.361  12.066  0.00  0.00    +0.000 F 
ATOM     15  C   UNL     1       6.043   3.777  13.817  0.00  0.00    +0.000 A 
ENDBRANCH   6   9
ENDBRANCH   4   6
BRANCH   1  17
ATOM     16  C   UNL     1       1.544   4.297  17.885  0.00  0.00    +0.000 C 
ATOM     17  N   UNL     1       2.606   5.028  18.582  0.00  0.00    +0.000 N 
BRANCH  17  18
ATOM     18  C   UNL     1       2.195   6.174  19.286  0.00  0.00    +0.000 A 
ATOM     19  N   UNL     1       1.894   6.010  20.613  0.00  0.00    +0.000 NA
ATOM     20  C   UNL     1       1.441   7.030  21.361  0.00  0.00    +0.000 A 
ATOM     21  N   UNL     1       1.204   8.281  20.968  0.00  0.00    +0.000 NA
ATOM     22  C   UNL     1       1.536   8.453  19.685  0.00  0.00    +0.000 A 
ATOM     23  N   UNL     1       1.393   9.649  19.042  0.00  0.00    +0.000 N 
ATOM     24  C   UNL     1       1.864   9.546  17.765  0.00  0.00    +0.000 A 
ATOM     25  C   UNL     1       2.296   8.242  17.589  0.00  0.00    +0.000 A 
ATOM     26  C   UNL     1       2.054   7.508  18.796  0.00  0.00    +0.000 A 
ATOM     27  H   UNL     1       1.006  10.472  19.477  0.00  0.00    +0.000 HD
ENDBRANCH  17  18
ENDBRANCH   1  17
TORSDOF 4
ENDMDL
MODEL 5
REMARK VINA RESULT:      -7.7      0.875      1.759
REMARK  Name = 
REMARK  5 active torsions:
REMARK  status: ('A' for Active; 'I' for Inactive)
REMARK    1  A    between atoms: C_1  and  N_2
REMARK    2  A    between atoms: N_2  and  C_3
REMARK    3  A    between atoms: N_2  and  C_12
REMARK    4  A    between atoms: N_15  and  S_16
REMARK    5  A    between atoms: S_16  and  C_19
REMARK                            x       y       z     vdW  Elec       q    Type
REMARK                         _______ _______ _______ _____ _____    ______ ____
ROOT
ATOM      1  C   UNL     1       4.219   6.367  18.118  0.00  0.00    +0.000 C 
ATOM      2  C   UNL     1       4.069   6.502  16.603  0.00  0.00    +0.000 C 
ATOM      3  C   UNL     1       4.453   5.134  16.047  0.00  0.00    +0.000 C 
ATOM      4  N   UNL     1       5.565   4.680  16.925  0.00  0.00    +0.000 NA
ATOM      5  C   UNL     1       5.183   5.163  18.302  0.00  0.00    +0.000 C 
ENDROOT
BRANCH   4   6
ATOM      6  S   UNL     1       7.143   5.110  16.412  0.00  0.00    +0.000 S 
ATOM      7  O   UNL     1       7.346   6.522  16.679  0.00  0.00    +0.000 OA
ATOM      8  O   UNL     1       8.064   4.124  16.935  0.00  0.00    +0.000 OA
BRANCH   6   9
ATOM      9  C   UNL     1       7.106   4.888  14.648  0.00  0.00    +0.000 A 
ATOM     10  C   UNL     1       7.955   5.628  13.814  0.00  0.00    +0.000 A 
ATOM     11  C   UNL     1       7.982   5.362  12.440  0.00  0.00    +0.000 A 
ATOM     12  C   UNL     1       7.191   4.342  11.909  0.00  0.00    +0.000 A 
ATOM     13  C   UNL     1       6.381   3.590  12.753  0.00  0.00    +0.000 A 
ATOM     14  F   UNL     1       5.656   2.586  12.246  0.00  0.00    +0.000 F 
ATOM     15  C   UNL     1       6.330   3.851  14.117  0.00  0.00    +0.000 A 
ENDBRANCH   6   9
ENDBRANCH   4   6
BRANCH   1  17
ATOM     16  C   UNL     1       2.517   7.308  19.745  0.00  0.00    +0.000 C 
ATOM     17  N   UNL     1       2.911   6.263  18.797  0.00  0.00    +0.000 N 
BRANCH  17  18
ATOM     18  C   UNL     1       2.238   5.036  18.928  0.00  0.00    +0.000 A 
ATOM     19  N   UNL     1       1.637   4.536  17.802  0.00  0.00    +0.000 NA
ATOM     20  C   UNL     1       0.923   3.398  17.834  0.00  0.00    +0.000 A 
ATOM     21  N   UNL     1       0.676   2.625  18.891  0.00  0.00    +0.000 NA
ATOM     22  C   UNL     1       1.295   3.089  19.980  0.00  0.00    +0.000 A 
ATOM     23  N   UNL     1       1.205   2.473  21.196  0.00  0.00    +0.000 N 
ATOM     24  C   UNL     1       1.981   3.130  22.106  0.00  0.00    +0.000 A 
ATOM     25  C   UNL     1       2.561   4.205  21.453  0.00  0.00    +0.000 A 
ATOM     26  C   UNL     1       2.099   4.225  20.096  0.00  0.00    +0.000 A 
ATOM     27  H   UNL     1       0.649   1.648  21.362  0.00  0.00    +0.000 HD
ENDBRANCH  17  18
ENDBRANCH   1  17
TORSDOF 4
ENDMDL
MODEL 6
REMARK VINA RESULT:      -7.6      2.088      2.956
REMARK  Name = 
REMARK  5 active torsions:
REMARK  status: ('A' for Active; 'I' for Inactive)
REMARK    1  A    between atoms: C_1  and  N_2
REMARK    2  A    between atoms: N_2  and  C_3
REMARK    3  A    between atoms: N_2  and  C_12
REMARK    4  A    between atoms: N_15  and  S_16
REMARK    5  A    between atoms: S_16  and  C_19
REMARK                            x       y       z     vdW  Elec       q    Type
REMARK                         _______ _______ _______ _____ _____    ______ ____
ROOT
ATOM      1  C   UNL     1       5.745   5.590  17.461  0.00  0.00    +0.000 C 
ATOM      2  C   UNL     1       4.746   4.722  16.695  0.00  0.00    +0.000 C 
ATOM      3  C   UNL     1       5.601   3.694  15.962  0.00  0.00    +0.000 C 
ATOM      4  N   UNL     1       6.816   4.450  15.555  0.00  0.00    +0.000 NA
ATOM      5  C   UNL     1       7.089   5.380  16.711  0.00  0.00    +0.000 C 
ENDROOT
BRANCH   4   6
ATOM      6  S   UNL     1       6.749   5.198  14.014  0.00  0.00    +0.000 S 
ATOM      7  O   UNL     1       5.728   6.229  14.048  0.00  0.00    +0.000 OA
ATOM      8  O   UNL     1       8.102   5.518  13.616  0.00  0.00    +0.000 OA
BRANCH   6   9
ATOM      9  C   UNL     1       6.186   3.909  12.926  0.00  0.00    +0.000 A 
ATOM     10  C   UNL     1       4.841   3.827  12.546  0.00  0.00    +0.000 A 
ATOM     11  C   UNL     1       4.441   2.868  11.607  0.00  0.00    +0.000 A 
ATOM     12  C   UNL     1       5.386   2.020  11.029  0.00  0.00    +0.000 A 
ATOM     13  C   UNL     1       6.725   2.137  11.387  0.00  0.00    +0.000 A 
ATOM     14  F   UNL     1       7.634   1.350  10.799  0.00  0.00    +0.000 F 
ATOM     15  C   UNL     1       7.136   3.072  12.328  0.00  0.00    +0.000 A 
ENDBRANCH   6   9
ENDBRANCH   4   6
BRANCH   1  17
ATOM     16  C   UNL     1       7.005   5.412  19.655  0.00  0.00    +0.000 C 
ATOM     17  N   UNL     1       5.752   5.282  18.906  0.00  0.00    +0.000 N 
BRANCH  17  18
ATOM     18  C   UNL     1       4.772   4.465  19.497  0.00  0.00    +0.000 A 
ATOM     19  N   UNL     1       5.098   3.148  19.689  0.00  0.00    +0.000 NA
ATOM     20  C   UNL     1       4.213   2.273  20.196  0.00  0.00    +0.000 A 
ATOM     21  N   UNL     1       2.952   2.511  20.555  0.00  0.00    +0.000 NA
ATOM     22  C   UNL     1       2.646   3.804  20.407  0.00  0.00    +0.000 A 
ATOM     23  N   UNL     1       1.413   4.307  20.710  0.00  0.00    +0.000 N 
ATOM     24  C   UNL     1       1.406   5.658  20.517  0.00  0.00    +0.000 A 
ATOM     25  C   UNL     1       2.662   6.015  20.057  0.00  0.00    +0.000 A 
ATOM     26  C   UNL     1       3.463   4.833  19.935  0.00  0.00    +0.000 A 
ATOM     27  H   UNL     1       0.646   3.741  21.039  0.00  0.00    +0.000 HD
ENDBRANCH  17  18
ENDBRANCH   1  17
TORSDOF 4
ENDMDL
MODEL 7
REMARK VINA RESULT:      -7.6      3.425      7.277
REMARK  Name = 
REMARK  5 active torsions:
REMARK  status: ('A' for Active; 'I' for Inactive)
REMARK    1  A    between atoms: C_1  and  N_2
REMARK    2  A    between atoms: N_2  and  C_3
REMARK    3  A    between atoms: N_2  and  C_12
REMARK    4  A    between atoms: N_15  and  S_16
REMARK    5  A    between atoms: S_16  and  C_19
REMARK                            x       y       z     vdW  Elec       q    Type
REMARK                         _______ _______ _______ _____ _____    ______ ____
ROOT
ATOM      1  C   UNL     1       5.012   5.098  16.475  0.00  0.00    +0.000 C 
ATOM      2  C   UNL     1       4.877   6.609  16.286  0.00  0.00    +0.000 C 
ATOM      3  C   UNL     1       4.977   7.191  17.693  0.00  0.00    +0.000 C 
ATOM      4  N   UNL     1       4.267   6.203  18.550  0.00  0.00    +0.000 NA
ATOM      5  C   UNL     1       4.627   4.862  17.961  0.00  0.00    +0.000 C 
ENDROOT
BRANCH   4   6
ATOM      6  S   UNL     1       2.589   6.477  18.771  0.00  0.00    +0.000 S 
ATOM      7  O   UNL     1       2.412   7.343  19.922  0.00  0.00    +0.000 OA
ATOM      8  O   UNL     1       2.025   6.838  17.488  0.00  0.00    +0.000 OA
BRANCH   6   9
ATOM      9  C   UNL     1       1.934   4.877  19.186  0.00  0.00    +0.000 A 
ATOM     10  C   UNL     1       1.519   3.990  18.184  0.00  0.00    +0.000 A 
ATOM     11  C   UNL     1       1.106   2.698  18.529  0.00  0.00    +0.000 A 
ATOM     12  C   UNL     1       1.137   2.286  19.862  0.00  0.00    +0.000 A 
ATOM     13  C   UNL     1       1.586   3.164  20.842  0.00  0.00    +0.000 A 
ATOM     14  F   UNL     1       1.654   2.751  22.114  0.00  0.00    +0.000 F 
ATOM     15  C   UNL     1       1.986   4.455  20.520  0.00  0.00    +0.000 A 
ENDBRANCH   6   9
ENDBRANCH   4   6
BRANCH   1  17
ATOM     16  C   UNL     1       7.398   4.479  17.069  0.00  0.00    +0.000 C 
ATOM     17  N   UNL     1       6.341   4.605  16.061  0.00  0.00    +0.000 N 
BRANCH  17  18
ATOM     18  C   UNL     1       6.778   4.674  14.726  0.00  0.00    +0.000 A 
ATOM     19  N   UNL     1       7.866   5.466  14.471  0.00  0.00    +0.000 NA
ATOM     20  C   UNL     1       8.329   5.643  13.222  0.00  0.00    +0.000 A 
ATOM     21  N   UNL     1       7.835   5.132  12.095  0.00  0.00    +0.000 NA
ATOM     22  C   UNL     1       6.798   4.326  12.346  0.00  0.00    +0.000 A 
ATOM     23  N   UNL     1       6.117   3.675  11.358  0.00  0.00    +0.000 N 
ATOM     24  C   UNL     1       5.152   2.882  11.909  0.00  0.00    +0.000 A 
ATOM     25  C   UNL     1       5.210   3.054  13.281  0.00  0.00    +0.000 A 
ATOM     26  C   UNL     1       6.232   4.013  13.583  0.00  0.00    +0.000 A 
ATOM     27  H   UNL     1       6.328   3.774  10.377  0.00  0.00    +0.000 HD
ENDBRANCH  17  18
ENDBRANCH   1  17
TORSDOF 4
ENDMDL
MODEL 8
REMARK VINA RESULT:      -7.5      1.678      3.521
REMARK  Name = 
REMARK  5 active torsions:
REMARK  status: ('A' for Active; 'I' for Inactive)
REMARK    1  A    between atoms: C_1  and  N_2
REMARK    2  A    between atoms: N_2  and  C_3
REMARK    3  A    between atoms: N_2  and  C_12
REMARK    4  A    between atoms: N_15  and  S_16
REMARK    5  A    between atoms: S_16  and  C_19
REMARK                            x       y       z     vdW  Elec       q    Type
REMARK                         _______ _______ _______ _____ _____    ______ ____
ROOT
ATOM      1  C   UNL     1       4.283   6.111  18.363  0.00  0.00    +0.000 C 
ATOM      2  C   UNL     1       4.051   6.286  16.862  0.00  0.00    +0.000 C 
ATOM      3  C   UNL     1       4.468   4.956  16.242  0.00  0.00    +0.000 C 
ATOM      4  N   UNL     1       5.642   4.527  17.049  0.00  0.00    +0.000 NA
ATOM      5  C   UNL     1       5.308   4.948  18.459  0.00  0.00    +0.000 C 
ENDROOT
BRANCH   4   6
ATOM      6  S   UNL     1       7.171   5.046  16.474  0.00  0.00    +0.000 S 
ATOM      7  O   UNL     1       7.305   6.466  16.740  0.00  0.00    +0.000 OA
ATOM      8  O   UNL     1       8.167   4.112  16.954  0.00  0.00    +0.000 OA
BRANCH   6   9
ATOM      9  C   UNL     1       7.074   4.828  14.712  0.00  0.00    +0.000 A 
ATOM     10  C   UNL     1       7.901   5.562  13.852  0.00  0.00    +0.000 A 
ATOM     11  C   UNL     1       7.881   5.299  12.477  0.00  0.00    +0.000 A 
ATOM     12  C   UNL     1       7.063   4.287  11.971  0.00  0.00    +0.000 A 
ATOM     13  C   UNL     1       6.275   3.541  12.840  0.00  0.00    +0.000 A 
ATOM     14  F   UNL     1       5.525   2.544  12.356  0.00  0.00    +0.000 F 
ATOM     15  C   UNL     1       6.271   3.799  14.205  0.00  0.00    +0.000 A 
ENDBRANCH   6   9
ENDBRANCH   4   6
BRANCH   1  17
ATOM     16  C   UNL     1       2.248   4.693  18.894  0.00  0.00    +0.000 C 
ATOM     17  N   UNL     1       3.017   5.924  19.101  0.00  0.00    +0.000 N 
BRANCH  17  18
ATOM     18  C   UNL     1       2.297   7.010  19.629  0.00  0.00    +0.000 A 
ATOM     19  N   UNL     1       1.795   6.863  20.896  0.00  0.00    +0.000 NA
ATOM     20  C   UNL     1       1.047   7.820  21.470  0.00  0.00    +0.000 A 
ATOM     21  N   UNL     1       0.675   8.985  20.941  0.00  0.00    +0.000 NA
ATOM     22  C   UNL     1       1.198   9.148  19.721  0.00  0.00    +0.000 A 
ATOM     23  N   UNL     1       0.969  10.262  18.966  0.00  0.00    +0.000 N 
ATOM     24  C   UNL     1       1.672  10.181  17.799  0.00  0.00    +0.000 A 
ATOM     25  C   UNL     1       2.345   8.972  17.807  0.00  0.00    +0.000 A 
ATOM     26  C   UNL     1       2.019   8.269  19.013  0.00  0.00    +0.000 A 
ATOM     27  H   UNL     1       0.375  11.023  19.261  0.00  0.00    +0.000 HD
ENDBRANCH  17  18
ENDBRANCH   1  17
TORSDOF 4
ENDMDL
MODEL 9
REMARK VINA RESULT:      -7.5      4.445      7.079
REMARK  Name = 
REMARK  5 active torsions:
REMARK  status: ('A' for Active; 'I' for Inactive)
REMARK    1  A    between atoms: C_1  and  N_2
REMARK    2  A    between atoms: N_2  and  C_3
REMARK    3  A    between atoms: N_2  and  C_12
REMARK    4  A    between atoms: N_15  and  S_16
REMARK    5  A    between atoms: S_16  and  C_19
REMARK                            x       y       z     vdW  Elec       q    Type
REMARK                         _______ _______ _______ _____ _____    ______ ____
ROOT
ATOM      1  C   UNL     1       1.975   8.848  19.884  0.00  0.00    +0.000 C 
ATOM      2  C   UNL     1       2.321   9.131  18.422  0.00  0.00    +0.000 C 
ATOM      3  C   UNL     1       1.781   7.929  17.652  0.00  0.00    +0.000 C 
ATOM      4  N   UNL     1       2.031   6.773  18.553  0.00  0.00    +0.000 NA
ATOM      5  C   UNL     1       1.773   7.309  19.939  0.00  0.00    +0.000 C 
ENDROOT
BRANCH   4   6
ATOM      6  S   UNL     1       3.535   5.977  18.345  0.00  0.00    +0.000 S 
ATOM      7  O   UNL     1       4.086   6.364  17.059  0.00  0.00    +0.000 OA
ATOM      8  O   UNL     1       4.305   6.157  19.557  0.00  0.00    +0.000 OA
BRANCH   6   9
ATOM      9  C   UNL     1       3.111   4.253  18.261  0.00  0.00    +0.000 A 
ATOM     10  C   UNL     1       4.108   3.271  18.211  0.00  0.00    +0.000 A 
ATOM     11  C   UNL     1       3.752   1.917  18.251  0.00  0.00    +0.000 A 
ATOM     12  C   UNL     1       2.411   1.550  18.371  0.00  0.00    +0.000 A 
ATOM     13  C   UNL     1       1.434   2.536  18.458  0.00  0.00    +0.000 A 
ATOM     14  F   UNL     1       0.153   2.180  18.616  0.00  0.00    +0.000 F 
ATOM     15  C   UNL     1       1.768   3.883  18.405  0.00  0.00    +0.000 A 
ENDBRANCH   6   9
ENDBRANCH   4   6
BRANCH   1  17
ATOM     16  C   UNL     1      -0.152   9.067  21.247  0.00  0.00    +0.000 C 
ATOM     17  N   UNL     1       0.841   9.670  20.354  0.00  0.00    +0.000 N 
BRANCH  17  18
ATOM     18  C   UNL     1       0.420  10.820  19.663  0.00  0.00    +0.000 A 
ATOM     19  N   UNL     1       1.016  12.004  20.012  0.00  0.00    +0.000 NA
ATOM     20  C   UNL     1       0.647  13.168  19.451  0.00  0.00    +0.000 A 
ATOM     21  N   UNL     1      -0.305  13.362  18.539  0.00  0.00    +0.000 NA
ATOM     22  C   UNL     1      -0.858  12.204  18.168  0.00  0.00    +0.000 A 
ATOM     23  N   UNL     1      -1.858  12.131  17.241  0.00  0.00    +0.000 N 
ATOM     24  C   UNL     1      -2.186  10.825  17.018  0.00  0.00    +0.000 A 
ATOM     25  C   UNL     1      -1.387  10.052  17.844  0.00  0.00    +0.000 A 
ATOM     26  C   UNL     1      -0.557  10.920  18.626  0.00  0.00    +0.000 A 
ATOM     27  H   UNL     1      -2.264  12.939  16.794  0.00  0.00    +0.000 HD
ENDBRANCH  17  18
ENDBRANCH   1  17
TORSDOF 4
ENDMDL
