MODEL 1
REMARK VINA RESULT:      -7.7      0.000      0.000
REMARK  Name = 
REMARK  7 active torsions:
REMARK  status: ('A' for Active; 'I' for Inactive)
REMARK    1  A    between atoms: C_2  and  C_3
REMARK    2  A    between atoms: C_3  and  N_4
REMARK    3  A    between atoms: N_4  and  C_5
REMARK    4  A    between atoms: N_4  and  C_18
REMARK    5  A    between atoms: C_5  and  C_6
REMARK    6  A    between atoms: C_11  and  C_12
REMARK    7  A    between atoms: C_14  and  O_15
REMARK                            x       y       z     vdW  Elec       q    Type
REMARK                         _______ _______ _______ _____ _____    ______ ____
ROOT
ATOM      1  C   UNL     1       3.930   4.929  16.957  0.00  0.00    +0.000 A 
ATOM      2  C   UNL     1       3.672   3.561  16.782  0.00  0.00    +0.000 A 
ATOM      3  C   UNL     1       2.917   2.838  17.721  0.00  0.00    +0.000 A 
ATOM      4  C   UNL     1       2.434   3.426  18.880  0.00  0.00    +0.000 A 
ATOM      5  N   UNL     1       1.918   2.656  19.854  0.00  0.00    +0.000 NA
ATOM      6  C   UNL     1       1.591   3.253  21.019  0.00  0.00    +0.000 A 
ATOM      7  C   UNL     1       1.271   2.375  22.188  0.00  0.00    +0.000 C 
ATOM      8  N   UNL     1       1.676   4.574  21.251  0.00  0.00    +0.000 NA
ATOM      9  C   UNL     1       2.159   5.298  20.233  0.00  0.00    +0.000 A 
ATOM     10  C   UNL     1       2.600   4.804  19.014  0.00  0.00    +0.000 A 
ATOM     11  C   UNL     1       3.285   5.564  18.027  0.00  0.00    +0.000 A 
ENDROOT
BRANCH   9  12
ATOM     12  O   UNL     1       2.335   6.607  20.562  0.00  0.00    +0.000 OA
ATOM     13  H   UNL     1       3.181   6.545  21.041  0.00  0.00    +0.000 HD
ENDBRANCH   9  12
BRANCH   1  14
ATOM     14  C   UNL     1       5.091   5.629  16.241  0.00  0.00    +0.000 C 
BRANCH  14  15
ATOM     15  N   UNL     1       6.260   4.788  15.883  0.00  0.00    +0.000 N 
BRANCH  15  16
ATOM     16  C   UNL     1       6.548   4.597  14.515  0.00  0.00    +0.000 A 
ATOM     17  C   UNL     1       7.564   5.349  13.901  0.00  0.00    +0.000 A 
ATOM     18  C   UNL     1       7.903   5.182  12.552  0.00  0.00    +0.000 A 
ATOM     19  C   UNL     1       7.232   4.248  11.772  0.00  0.00    +0.000 A 
ATOM     20  C   UNL     1       6.223   3.487  12.339  0.00  0.00    +0.000 A 
ATOM     21  C   UNL     1       5.894   3.659  13.690  0.00  0.00    +0.000 A 
ENDBRANCH  15  16
BRANCH  15  22
ATOM     22  C   UNL     1       7.483   4.807  16.783  0.00  0.00    +0.000 C 
BRANCH  22  24
ATOM     23  C   UNL     1       7.653   7.396  17.898  0.00  0.00    +0.000 C 
ATOM     24  C   UNL     1       7.574   6.201  17.383  0.00  0.00    +0.000 C 
ENDBRANCH  22  24
ENDBRANCH  15  22
ENDBRANCH  14  15
ENDBRANCH   1  14
TORSDOF 6
ENDMDL
MODEL 2
REMARK VINA RESULT:      -7.6      0.584      1.166
REMARK  Name = 
REMARK  7 active torsions:
REMARK  status: ('A' for Active; 'I' for Inactive)
REMARK    1  A    between atoms: C_2  and  C_3
REMARK    2  A    between atoms: C_3  and  N_4
REMARK    3  A    between atoms: N_4  and  C_5
REMARK    4  A    between atoms: N_4  and  C_18
REMARK    5  A    between atoms: C_5  and  C_6
REMARK    6  A    between atoms: C_11  and  C_12
REMARK    7  A    between atoms: C_14  and  O_15
REMARK                            x       y       z     vdW  Elec       q    Type
REMARK                         _______ _______ _______ _____ _____    ______ ____
ROOT
ATOM      1  C   UNL     1       4.123   4.914  16.985  0.00  0.00    +0.000 A 
ATOM      2  C   UNL     1       3.839   3.553  16.795  0.00  0.00    +0.000 A 
ATOM      3  C   UNL     1       3.030   2.845  17.699  0.00  0.00    +0.000 A 
ATOM      4  C   UNL     1       2.515   3.441  18.840  0.00  0.00    +0.000 A 
ATOM      5  N   UNL     1       1.942   2.681  19.790  0.00  0.00    +0.000 NA
ATOM      6  C   UNL     1       1.582   3.282  20.942  0.00  0.00    +0.000 A 
ATOM      7  C   UNL     1       1.194   2.407  22.094  0.00  0.00    +0.000 C 
ATOM      8  N   UNL     1       1.689   4.599  21.183  0.00  0.00    +0.000 NA
ATOM      9  C   UNL     1       2.230   5.314  20.189  0.00  0.00    +0.000 A 
ATOM     10  C   UNL     1       2.708   4.814  18.986  0.00  0.00    +0.000 A 
ATOM     11  C   UNL     1       3.451   5.560  18.032  0.00  0.00    +0.000 A 
ENDROOT
BRANCH   9  12
ATOM     12  O   UNL     1       2.423   6.618  20.530  0.00  0.00    +0.000 OA
ATOM     13  H   UNL     1       2.784   6.957  19.691  0.00  0.00    +0.000 HD
ENDBRANCH   9  12
BRANCH   1  14
ATOM     14  C   UNL     1       5.327   5.589  16.320  0.00  0.00    +0.000 C 
BRANCH  14  15
ATOM     15  N   UNL     1       6.443   4.703  15.903  0.00  0.00    +0.000 N 
BRANCH  15  16
ATOM     16  C   UNL     1       6.712   4.576  14.523  0.00  0.00    +0.000 A 
ATOM     17  C   UNL     1       6.025   3.617  13.760  0.00  0.00    +0.000 A 
ATOM     18  C   UNL     1       6.240   3.465  12.384  0.00  0.00    +0.000 A 
ATOM     19  C   UNL     1       7.155   4.278  11.725  0.00  0.00    +0.000 A 
ATOM     20  C   UNL     1       7.853   5.236  12.441  0.00  0.00    +0.000 A 
ATOM     21  C   UNL     1       7.628   5.382  13.816  0.00  0.00    +0.000 A 
ENDBRANCH  15  16
BRANCH  15  22
ATOM     22  C   UNL     1       7.670   4.597  16.791  0.00  0.00    +0.000 C 
BRANCH  22  24
ATOM     23  C   UNL     1       6.926   5.537  19.348  0.00  0.00    +0.000 C 
ATOM     24  C   UNL     1       7.269   5.103  18.168  0.00  0.00    +0.000 C 
ENDBRANCH  22  24
ENDBRANCH  15  22
ENDBRANCH  14  15
ENDBRANCH   1  14
TORSDOF 6
ENDMDL
MODEL 3
REMARK VINA RESULT:      -7.6      2.317      3.039
REMARK  Name = 
REMARK  7 active torsions:
REMARK  status: ('A' for Active; 'I' for Inactive)
REMARK    1  A    between atoms: C_2  and  C_3
REMARK    2  A    between atoms: C_3  and  N_4
REMARK    3  A    between atoms: N_4  and  C_5
REMARK    4  A    between atoms: N_4  and  C_18
REMARK    5  A    between atoms: C_5  and  C_6
REMARK    6  A    between atoms: C_11  and  C_12
REMARK    7  A    between atoms: C_14  and  O_15
REMARK                            x       y       z     vdW  Elec       q    Type
REMARK                         _______ _______ _______ _____ _____    ______ ____
ROOT
ATOM      1  C   UNL     1       4.256   6.460  17.197  0.00  0.00    +0.000 A 
ATOM      2  C   UNL     1       4.089   5.562  18.261  0.00  0.00    +0.000 A 
ATOM      3  C   UNL     1       3.183   5.828  19.302  0.00  0.00    +0.000 A 
ATOM      4  C   UNL     1       2.451   7.005  19.350  0.00  0.00    +0.000 A 
ATOM      5  N   UNL     1       1.774   7.324  20.467  0.00  0.00    +0.000 NA
ATOM      6  C   UNL     1       1.192   8.540  20.523  0.00  0.00    +0.000 A 
ATOM      7  C   UNL     1       0.670   9.004  21.847  0.00  0.00    +0.000 C 
ATOM      8  N   UNL     1       1.181   9.428  19.515  0.00  0.00    +0.000 NA
ATOM      9  C   UNL     1       1.836   9.043  18.413  0.00  0.00    +0.000 A 
ATOM     10  C   UNL     1       2.537   7.856  18.249  0.00  0.00    +0.000 A 
ATOM     11  C   UNL     1       3.383   7.555  17.148  0.00  0.00    +0.000 A 
ENDROOT
BRANCH   9  12
ATOM     12  O   UNL     1       1.894  10.024  17.471  0.00  0.00    +0.000 OA
ATOM     13  H   UNL     1       2.270  10.746  18.006  0.00  0.00    +0.000 HD
ENDBRANCH   9  12
BRANCH   1  14
ATOM     14  C   UNL     1       5.513   6.447  16.320  0.00  0.00    +0.000 C 
BRANCH  14  15
ATOM     15  N   UNL     1       6.128   5.123  16.054  0.00  0.00    +0.000 N 
BRANCH  15  16
ATOM     16  C   UNL     1       6.362   4.755  14.711  0.00  0.00    +0.000 A 
ATOM     17  C   UNL     1       7.466   5.285  14.022  0.00  0.00    +0.000 A 
ATOM     18  C   UNL     1       7.755   4.936  12.696  0.00  0.00    +0.000 A 
ATOM     19  C   UNL     1       6.941   4.037  12.016  0.00  0.00    +0.000 A 
ATOM     20  C   UNL     1       5.842   3.493  12.660  0.00  0.00    +0.000 A 
ATOM     21  C   UNL     1       5.565   3.846  13.987  0.00  0.00    +0.000 A 
ENDBRANCH  15  16
BRANCH  15  22
ATOM     22  C   UNL     1       7.144   4.572  17.039  0.00  0.00    +0.000 C 
BRANCH  22  24
ATOM     23  C   UNL     1       7.983   6.729  18.657  0.00  0.00    +0.000 C 
ATOM     24  C   UNL     1       7.596   5.733  17.910  0.00  0.00    +0.000 C 
ENDBRANCH  22  24
ENDBRANCH  15  22
ENDBRANCH  14  15
ENDBRANCH   1  14
TORSDOF 6
ENDMDL
MODEL 4
REMARK VINA RESULT:      -7.6      2.434      6.776
REMARK  Name = 
REMARK  7 active torsions:
REMARK  status: ('A' for Active; 'I' for Inactive)
REMARK    1  A    between atoms: C_2  and  C_3
REMARK    2  A    between atoms: C_3  and  N_4
REMARK    3  A    between atoms: N_4  and  C_5
REMARK    4  A    between atoms: N_4  and  C_18
REMARK    5  A    between atoms: C_5  and  C_6
REMARK    6  A    between atoms: C_11  and  C_12
REMARK    7  A    between atoms: C_14  and  O_15
REMARK                            x       y       z     vdW  Elec       q    Type
REMARK                         _______ _______ _______ _____ _____    ______ ____
ROOT
ATOM      1  C   UNL     1       4.940   3.823  16.884  0.00  0.00    +0.000 A 
ATOM      2  C   UNL     1       4.952   4.645  15.748  0.00  0.00    +0.000 A 
ATOM      3  C   UNL     1       5.773   5.783  15.682  0.00  0.00    +0.000 A 
ATOM      4  C   UNL     1       6.571   6.171  16.747  0.00  0.00    +0.000 A 
ATOM      5  N   UNL     1       7.162   7.379  16.734  0.00  0.00    +0.000 NA
ATOM      6  C   UNL     1       7.812   7.772  17.848  0.00  0.00    +0.000 A 
ATOM      7  C   UNL     1       8.239   9.204  17.939  0.00  0.00    +0.000 C 
ATOM      8  N   UNL     1       7.973   7.015  18.946  0.00  0.00    +0.000 NA
ATOM      9  C   UNL     1       7.398   5.807  18.890  0.00  0.00    +0.000 A 
ATOM     10  C   UNL     1       6.641   5.308  17.840  0.00  0.00    +0.000 A 
ATOM     11  C   UNL     1       5.883   4.107  17.882  0.00  0.00    +0.000 A 
ENDROOT
BRANCH   9  12
ATOM     12  O   UNL     1       7.491   5.131  20.069  0.00  0.00    +0.000 OA
ATOM     13  H   UNL     1       7.736   4.250  19.735  0.00  0.00    +0.000 HD
ENDBRANCH   9  12
BRANCH   1  14
ATOM     14  C   UNL     1       3.771   2.879  17.186  0.00  0.00    +0.000 C 
BRANCH  14  15
ATOM     15  N   UNL     1       2.578   3.479  17.834  0.00  0.00    +0.000 N 
BRANCH  15  16
ATOM     16  C   UNL     1       2.335   3.177  19.191  0.00  0.00    +0.000 A 
ATOM     17  C   UNL     1       3.387   2.731  20.009  0.00  0.00    +0.000 A 
ATOM     18  C   UNL     1       3.203   2.438  21.366  0.00  0.00    +0.000 A 
ATOM     19  C   UNL     1       1.951   2.588  21.951  0.00  0.00    +0.000 A 
ATOM     20  C   UNL     1       0.887   3.025  21.179  0.00  0.00    +0.000 A 
ATOM     21  C   UNL     1       1.083   3.318  19.823  0.00  0.00    +0.000 A 
ENDBRANCH  15  16
BRANCH  15  22
ATOM     22  C   UNL     1       2.133   4.869  17.413  0.00  0.00    +0.000 C 
BRANCH  22  24
ATOM     23  C   UNL     1       3.003   6.659  19.417  0.00  0.00    +0.000 C 
ATOM     24  C   UNL     1       2.602   5.833  18.492  0.00  0.00    +0.000 C 
ENDBRANCH  22  24
ENDBRANCH  15  22
ENDBRANCH  14  15
ENDBRANCH   1  14
TORSDOF 6
ENDMDL
MODEL 5
REMARK VINA RESULT:      -7.6      3.859      5.993
REMARK  Name = 
REMARK  7 active torsions:
REMARK  status: ('A' for Active; 'I' for Inactive)
REMARK    1  A    between atoms: C_2  and  C_3
REMARK    2  A    between atoms: C_3  and  N_4
REMARK    3  A    between atoms: N_4  and  C_5
REMARK    4  A    between atoms: N_4  and  C_18
REMARK    5  A    between atoms: C_5  and  C_6
REMARK    6  A    between atoms: C_11  and  C_12
REMARK    7  A    between atoms: C_14  and  O_15
REMARK                            x       y       z     vdW  Elec       q    Type
REMARK                         _______ _______ _______ _____ _____    ______ ____
ROOT
ATOM      1  C   UNL     1       2.392   7.354  19.036  0.00  0.00    +0.000 A 
ATOM      2  C   UNL     1       2.342   8.124  17.864  0.00  0.00    +0.000 A 
ATOM      3  C   UNL     1       1.637   9.339  17.822  0.00  0.00    +0.000 A 
ATOM      4  C   UNL     1       0.923   9.808  18.914  0.00  0.00    +0.000 A 
ATOM      5  N   UNL     1       0.082  10.847  18.765  0.00  0.00    +0.000 NA
ATOM      6  C   UNL     1      -0.696  11.180  19.816  0.00  0.00    +0.000 A 
ATOM      7  C   UNL     1      -1.811  12.150  19.579  0.00  0.00    +0.000 C 
ATOM      8  N   UNL     1      -0.640  10.594  21.024  0.00  0.00    +0.000 NA
ATOM      9  C   UNL     1       0.243   9.593  21.128  0.00  0.00    +0.000 A 
ATOM     10  C   UNL     1       1.048   9.102  20.110  0.00  0.00    +0.000 A 
ATOM     11  C   UNL     1       1.831   7.919  20.190  0.00  0.00    +0.000 A 
ENDROOT
BRANCH   9  12
ATOM     12  O   UNL     1       0.174   8.961  22.331  0.00  0.00    +0.000 OA
ATOM     13  H   UNL     1       1.114   8.734  22.453  0.00  0.00    +0.000 HD
ENDBRANCH   9  12
BRANCH   1  14
ATOM     14  C   UNL     1       2.735   5.861  19.007  0.00  0.00    +0.000 C 
BRANCH  14  15
ATOM     15  N   UNL     1       3.698   5.417  17.968  0.00  0.00    +0.000 N 
BRANCH  15  16
ATOM     16  C   UNL     1       5.061   5.740  18.143  0.00  0.00    +0.000 A 
ATOM     17  C   UNL     1       5.689   6.631  17.256  0.00  0.00    +0.000 A 
ATOM     18  C   UNL     1       7.033   7.000  17.398  0.00  0.00    +0.000 A 
ATOM     19  C   UNL     1       7.794   6.487  18.443  0.00  0.00    +0.000 A 
ATOM     20  C   UNL     1       7.212   5.604  19.338  0.00  0.00    +0.000 A 
ATOM     21  C   UNL     1       5.866   5.244  19.189  0.00  0.00    +0.000 A 
ENDBRANCH  15  16
BRANCH  15  22
ATOM     22  C   UNL     1       3.454   4.099  17.254  0.00  0.00    +0.000 C 
BRANCH  22  24
ATOM     23  C   UNL     1       1.220   2.889  18.485  0.00  0.00    +0.000 C 
ATOM     24  C   UNL     1       2.251   3.448  17.917  0.00  0.00    +0.000 C 
ENDBRANCH  22  24
ENDBRANCH  15  22
ENDBRANCH  14  15
ENDBRANCH   1  14
TORSDOF 6
ENDMDL
MODEL 6
REMARK VINA RESULT:      -7.5      2.502      6.654
REMARK  Name = 
REMARK  7 active torsions:
REMARK  status: ('A' for Active; 'I' for Inactive)
REMARK    1  A    between atoms: C_2  and  C_3
REMARK    2  A    between atoms: C_3  and  N_4
REMARK    3  A    between atoms: N_4  and  C_5
REMARK    4  A    between atoms: N_4  and  C_18
REMARK    5  A    between atoms: C_5  and  C_6
REMARK    6  A    between atoms: C_11  and  C_12
REMARK    7  A    between atoms: C_14  and  O_15
REMARK                            x       y       z     vdW  Elec       q    Type
REMARK                         _______ _______ _______ _____ _____    ______ ____
ROOT
ATOM      1  C   UNL     1       5.120   3.886  17.233  0.00  0.00    +0.000 A 
ATOM      2  C   UNL     1       5.007   4.693  16.091  0.00  0.00    +0.000 A 
ATOM      3  C   UNL     1       5.786   5.853  15.940  0.00  0.00    +0.000 A 
ATOM      4  C   UNL     1       6.663   6.277  16.926  0.00  0.00    +0.000 A 
ATOM      5  N   UNL     1       7.215   7.501  16.847  0.00  0.00    +0.000 NA
ATOM      6  C   UNL     1       7.950   7.927  17.895  0.00  0.00    +0.000 A 
ATOM      7  C   UNL     1       8.342   9.371  17.932  0.00  0.00    +0.000 C 
ATOM      8  N   UNL     1       8.229   7.189  18.983  0.00  0.00    +0.000 NA
ATOM      9  C   UNL     1       7.688   5.965  18.991  0.00  0.00    +0.000 A 
ATOM     10  C   UNL     1       6.855   5.431  18.018  0.00  0.00    +0.000 A 
ATOM     11  C   UNL     1       6.139   4.210  18.140  0.00  0.00    +0.000 A 
ENDROOT
BRANCH   9  12
ATOM     12  O   UNL     1       7.903   5.308  20.164  0.00  0.00    +0.000 OA
ATOM     13  H   UNL     1       6.982   5.157  20.441  0.00  0.00    +0.000 HD
ENDBRANCH   9  12
BRANCH   1  14
ATOM     14  C   UNL     1       4.010   2.914  17.648  0.00  0.00    +0.000 C 
BRANCH  14  15
ATOM     15  N   UNL     1       3.030   3.406  18.648  0.00  0.00    +0.000 N 
BRANCH  15  16
ATOM     16  C   UNL     1       2.801   4.797  18.726  0.00  0.00    +0.000 A 
ATOM     17  C   UNL     1       2.099   5.451  17.700  0.00  0.00    +0.000 A 
ATOM     18  C   UNL     1       1.827   6.824  17.740  0.00  0.00    +0.000 A 
ATOM     19  C   UNL     1       2.252   7.590  18.820  0.00  0.00    +0.000 A 
ATOM     20  C   UNL     1       2.948   6.984  19.852  0.00  0.00    +0.000 A 
ATOM     21  C   UNL     1       3.212   5.609  19.803  0.00  0.00    +0.000 A 
ENDBRANCH  15  16
BRANCH  15  22
ATOM     22  C   UNL     1       1.816   2.554  18.970  0.00  0.00    +0.000 C 
BRANCH  22  24
ATOM     23  C   UNL     1       1.488   2.604  21.775  0.00  0.00    +0.000 C 
ATOM     24  C   UNL     1       1.640   2.581  20.480  0.00  0.00    +0.000 C 
ENDBRANCH  22  24
ENDBRANCH  15  22
ENDBRANCH  14  15
ENDBRANCH   1  14
TORSDOF 6
ENDMDL
MODEL 7
REMARK VINA RESULT:      -7.5      3.775      5.809
REMARK  Name = 
REMARK  7 active torsions:
REMARK  status: ('A' for Active; 'I' for Inactive)
REMARK    1  A    between atoms: C_2  and  C_3
REMARK    2  A    between atoms: C_3  and  N_4
REMARK    3  A    between atoms: N_4  and  C_5
REMARK    4  A    between atoms: N_4  and  C_18
REMARK    5  A    between atoms: C_5  and  C_6
REMARK    6  A    between atoms: C_11  and  C_12
REMARK    7  A    between atoms: C_14  and  O_15
REMARK                            x       y       z     vdW  Elec       q    Type
REMARK                         _______ _______ _______ _____ _____    ______ ____
ROOT
ATOM      1  C   UNL     1       2.457   7.238  19.209  0.00  0.00    +0.000 A 
ATOM      2  C   UNL     1       2.456   7.937  17.994  0.00  0.00    +0.000 A 
ATOM      3  C   UNL     1       1.737   9.135  17.844  0.00  0.00    +0.000 A 
ATOM      4  C   UNL     1       0.961   9.654  18.869  0.00  0.00    +0.000 A 
ATOM      5  N   UNL     1       0.113  10.667  18.617  0.00  0.00    +0.000 NA
ATOM      6  C   UNL     1      -0.722  11.047  19.606  0.00  0.00    +0.000 A 
ATOM      7  C   UNL     1      -1.838  11.982  19.256  0.00  0.00    +0.000 C 
ATOM      8  N   UNL     1      -0.720  10.534  20.847  0.00  0.00    +0.000 NA
ATOM      9  C   UNL     1       0.170   9.556  21.054  0.00  0.00    +0.000 A 
ATOM     10  C   UNL     1       1.034   9.020  20.109  0.00  0.00    +0.000 A 
ATOM     11  C   UNL     1       1.829   7.858  20.298  0.00  0.00    +0.000 A 
ENDROOT
BRANCH   9  12
ATOM     12  O   UNL     1       0.049   8.993  22.288  0.00  0.00    +0.000 OA
ATOM     13  H   UNL     1      -0.337   8.133  22.041  0.00  0.00    +0.000 HD
ENDBRANCH   9  12
BRANCH   1  14
ATOM     14  C   UNL     1       2.822   5.751  19.285  0.00  0.00    +0.000 C 
BRANCH  14  15
ATOM     15  N   UNL     1       3.134   5.073  18.002  0.00  0.00    +0.000 N 
BRANCH  15  16
ATOM     16  C   UNL     1       4.491   4.909  17.649  0.00  0.00    +0.000 A 
ATOM     17  C   UNL     1       5.499   5.227  18.574  0.00  0.00    +0.000 A 
ATOM     18  C   UNL     1       6.859   5.061  18.281  0.00  0.00    +0.000 A 
ATOM     19  C   UNL     1       7.253   4.566  17.043  0.00  0.00    +0.000 A 
ATOM     20  C   UNL     1       6.289   4.241  16.102  0.00  0.00    +0.000 A 
ATOM     21  C   UNL     1       4.932   4.407  16.408  0.00  0.00    +0.000 A 
ENDBRANCH  15  16
BRANCH  15  22
ATOM     22  C   UNL     1       2.222   3.961  17.517  0.00  0.00    +0.000 C 
BRANCH  22  24
ATOM     23  C   UNL     1       0.807   3.008  19.767  0.00  0.00    +0.000 C 
ATOM     24  C   UNL     1       1.460   3.447  18.729  0.00  0.00    +0.000 C 
ENDBRANCH  22  24
ENDBRANCH  15  22
ENDBRANCH  14  15
ENDBRANCH   1  14
TORSDOF 6
ENDMDL
MODEL 8
REMARK VINA RESULT:      -7.5      1.526      2.179
REMARK  Name = 
REMARK  7 active torsions:
REMARK  status: ('A' for Active; 'I' for Inactive)
REMARK    1  A    between atoms: C_2  and  C_3
REMARK    2  A    between atoms: C_3  and  N_4
REMARK    3  A    between atoms: N_4  and  C_5
REMARK    4  A    between atoms: N_4  and  C_18
REMARK    5  A    between atoms: C_5  and  C_6
REMARK    6  A    between atoms: C_11  and  C_12
REMARK    7  A    between atoms: C_14  and  O_15
REMARK                            x       y       z     vdW  Elec       q    Type
REMARK                         _______ _______ _______ _____ _____    ______ ____
ROOT
ATOM      1  C   UNL     1       4.480   5.611  17.710  0.00  0.00    +0.000 A 
ATOM      2  C   UNL     1       3.408   6.388  18.173  0.00  0.00    +0.000 A 
ATOM      3  C   UNL     1       2.644   5.986  19.282  0.00  0.00    +0.000 A 
ATOM      4  C   UNL     1       2.882   4.787  19.937  0.00  0.00    +0.000 A 
ATOM      5  N   UNL     1       1.995   4.331  20.838  0.00  0.00    +0.000 NA
ATOM      6  C   UNL     1       2.193   3.098  21.347  0.00  0.00    +0.000 A 
ATOM      7  C   UNL     1       1.082   2.482  22.139  0.00  0.00    +0.000 C 
ATOM      8  N   UNL     1       3.253   2.319  21.070  0.00  0.00    +0.000 NA
ATOM      9  C   UNL     1       4.125   2.838  20.197  0.00  0.00    +0.000 A 
ATOM     10  C   UNL     1       4.004   4.058  19.546  0.00  0.00    +0.000 A 
ATOM     11  C   UNL     1       4.838   4.499  18.484  0.00  0.00    +0.000 A 
ENDROOT
BRANCH   9  12
ATOM     12  O   UNL     1       5.113   1.963  19.864  0.00  0.00    +0.000 OA
ATOM     13  H   UNL     1       4.595   1.139  19.817  0.00  0.00    +0.000 HD
ENDBRANCH   9  12
BRANCH   1  14
ATOM     14  C   UNL     1       5.025   5.757  16.284  0.00  0.00    +0.000 C 
BRANCH  14  15
ATOM     15  N   UNL     1       6.267   5.010  15.965  0.00  0.00    +0.000 N 
BRANCH  15  16
ATOM     16  C   UNL     1       6.544   4.726  14.611  0.00  0.00    +0.000 A 
ATOM     17  C   UNL     1       5.767   3.781  13.920  0.00  0.00    +0.000 A 
ATOM     18  C   UNL     1       5.987   3.478  12.570  0.00  0.00    +0.000 A 
ATOM     19  C   UNL     1       6.997   4.120  11.864  0.00  0.00    +0.000 A 
ATOM     20  C   UNL     1       7.787   5.059  12.509  0.00  0.00    +0.000 A 
ATOM     21  C   UNL     1       7.556   5.356  13.858  0.00  0.00    +0.000 A 
ENDBRANCH  15  16
BRANCH  15  22
ATOM     22  C   UNL     1       7.501   5.235  16.821  0.00  0.00    +0.000 C 
BRANCH  22  24
ATOM     23  C   UNL     1       7.553   7.976  17.498  0.00  0.00    +0.000 C 
ATOM     24  C   UNL     1       7.529   6.711  17.186  0.00  0.00    +0.000 C 
ENDBRANCH  22  24
ENDBRANCH  15  22
ENDBRANCH  14  15
ENDBRANCH   1  14
TORSDOF 6
ENDMDL
MODEL 9
REMARK VINA RESULT:      -7.5      2.444      6.597
REMARK  Name = 
REMARK  7 active torsions:
REMARK  status: ('A' for Active; 'I' for Inactive)
REMARK    1  A    between atoms: C_2  and  C_3
REMARK    2  A    between atoms: C_3  and  N_4
REMARK    3  A    between atoms: N_4  and  C_5
REMARK    4  A    between atoms: N_4  and  C_18
REMARK    5  A    between atoms: C_5  and  C_6
REMARK    6  A    between atoms: C_11  and  C_12
REMARK    7  A    between atoms: C_14  and  O_15
REMARK                            x       y       z     vdW  Elec       q    Type
REMARK                         _______ _______ _______ _____ _____    ______ ____
ROOT
ATOM      1  C   UNL     1       5.026   3.802  17.103  0.00  0.00    +0.000 A 
ATOM      2  C   UNL     1       4.971   4.608  15.957  0.00  0.00    +0.000 A 
ATOM      3  C   UNL     1       5.776   5.753  15.834  0.00  0.00    +0.000 A 
ATOM      4  C   UNL     1       6.622   6.164  16.853  0.00  0.00    +0.000 A 
ATOM      5  N   UNL     1       7.198   7.378  16.793  0.00  0.00    +0.000 NA
ATOM      6  C   UNL     1       7.899   7.793  17.868  0.00  0.00    +0.000 A 
ATOM      7  C   UNL     1       8.315   9.231  17.917  0.00  0.00    +0.000 C 
ATOM      8  N   UNL     1       8.123   7.054  18.966  0.00  0.00    +0.000 NA
ATOM      9  C   UNL     1       7.560   5.839  18.956  0.00  0.00    +0.000 A 
ATOM     10  C   UNL     1       6.756   5.317  17.952  0.00  0.00    +0.000 A 
ATOM     11  C   UNL     1       6.014   4.110  18.048  0.00  0.00    +0.000 A 
ENDROOT
BRANCH   9  12
ATOM     12  O   UNL     1       7.718   5.181  20.137  0.00  0.00    +0.000 OA
ATOM     13  H   UNL     1       8.682   5.038  20.119  0.00  0.00    +0.000 HD
ENDBRANCH   9  12
BRANCH   1  14
ATOM     14  C   UNL     1       3.883   2.850  17.477  0.00  0.00    +0.000 C 
BRANCH  14  15
ATOM     15  N   UNL     1       2.957   3.305  18.544  0.00  0.00    +0.000 N 
BRANCH  15  16
ATOM     16  C   UNL     1       2.706   4.688  18.662  0.00  0.00    +0.000 A 
ATOM     17  C   UNL     1       3.130   5.383  19.807  0.00  0.00    +0.000 A 
ATOM     18  C   UNL     1       2.925   6.759  19.964  0.00  0.00    +0.000 A 
ATOM     19  C   UNL     1       2.285   7.489  18.969  0.00  0.00    +0.000 A 
ATOM     20  C   UNL     1       1.851   6.842  17.823  0.00  0.00    +0.000 A 
ATOM     21  C   UNL     1       2.065   5.466  17.676  0.00  0.00    +0.000 A 
ENDBRANCH  15  16
BRANCH  15  22
ATOM     22  C   UNL     1       1.782   2.422  18.923  0.00  0.00    +0.000 C 
BRANCH  22  24
ATOM     23  C   UNL     1       1.469   2.616  21.723  0.00  0.00    +0.000 C 
ATOM     24  C   UNL     1       1.614   2.526  20.431  0.00  0.00    +0.000 C 
ENDBRANCH  22  24
ENDBRANCH  15  22
ENDBRANCH  14  15
ENDBRANCH   1  14
TORSDOF 6
ENDMDL
