MODEL 1
REMARK VINA RESULT:      -8.0      0.000      0.000
REMARK  Name = 
REMARK  5 active torsions:
REMARK  status: ('A' for Active; 'I' for Inactive)
REMARK    1  A    between atoms: C_1  and  N_2
REMARK    2  A    between atoms: C_3  and  C_5
REMARK    3  A    between atoms: C_5  and  N_6
REMARK    4  A    between atoms: N_9  and  C_10
REMARK    5  A    between atoms: N_13  and  C_14
REMARK                            x       y       z     vdW  Elec       q    Type
REMARK                         _______ _______ _______ _____ _____    ______ ____
ROOT
ATOM      1  N   UNL     1       7.010   5.203  17.869  0.00  0.00    +0.000 N 
ATOM      2  C   UNL     1       6.004   4.718  18.687  0.00  0.00    +0.000 A 
ATOM      3  O   UNL     1       6.042   4.846  19.914  0.00  0.00    +0.000 OA
ATOM      4  N   UNL     1       5.024   4.124  17.882  0.00  0.00    +0.000 N 
ATOM      5  C   UNL     1       5.463   4.247  16.541  0.00  0.00    +0.000 A 
ATOM      6  C   UNL     1       4.884   3.842  15.356  0.00  0.00    +0.000 A 
ATOM      7  C   UNL     1       5.608   4.052  14.178  0.00  0.00    +0.000 A 
ATOM      8  C   UNL     1       6.868   4.686  14.200  0.00  0.00    +0.000 A 
ATOM      9  C   UNL     1       7.429   5.130  15.399  0.00  0.00    +0.000 A 
ATOM     10  C   UNL     1       6.707   4.892  16.550  0.00  0.00    +0.000 A 
ENDROOT
BRANCH   4  11
ATOM     11  C   UNL     1       3.695   3.671  18.315  0.00  0.00    +0.000 C 
ATOM     12  C   UNL     1       2.518   4.305  17.558  0.00  0.00    +0.000 C 
ATOM     13  C   UNL     1       2.249   5.760  17.967  0.00  0.00    +0.000 C 
ATOM     14  N   UNL     1       2.144   6.002  19.419  0.00  0.00    +0.000 NA
ATOM     15  C   UNL     1       3.168   5.302  20.209  0.00  0.00    +0.000 C 
ATOM     16  C   UNL     1       3.418   3.848  19.808  0.00  0.00    +0.000 C 
BRANCH  14  17
ATOM     17  C   UNL     1       2.135   7.463  19.698  0.00  0.00    +0.000 C 
ATOM     18  C   UNL     1       1.713   8.322  18.496  0.00  0.00    +0.000 C 
ATOM     19  C   UNL     1       1.401   9.694  19.086  0.00  0.00    +0.000 C 
ATOM     20  C   UNL     1       0.958   9.445  20.523  0.00  0.00    +0.000 C 
ATOM     21  C   UNL     1       1.143   7.947  20.770  0.00  0.00    +0.000 C 
ENDBRANCH  14  17
ENDBRANCH   4  11
BRANCH   1  22
ATOM     22  C   UNL     1       8.082   6.011  18.383  0.00  0.00    +0.000 C 
BRANCH  22  25
ATOM     23  C   UNL     1       8.606   9.786  18.424  0.00  0.00    +0.000 C 
ATOM     24  N   UNL     1       8.685   8.376  18.703  0.00  0.00    +0.000 N 
ATOM     25  C   UNL     1       7.878   7.479  18.040  0.00  0.00    +0.000 C 
ATOM     26  O   UNL     1       6.994   7.833  17.256  0.00  0.00    +0.000 OA
ATOM     27  H   UNL     1       9.266   8.043  19.472  0.00  0.00    +0.000 HD
ENDBRANCH  22  25
ENDBRANCH   1  22
TORSDOF 4
ENDMDL
MODEL 2
REMARK VINA RESULT:      -7.8      2.292      6.805
REMARK  Name = 
REMARK  5 active torsions:
REMARK  status: ('A' for Active; 'I' for Inactive)
REMARK    1  A    between atoms: C_1  and  N_2
REMARK    2  A    between atoms: C_3  and  C_5
REMARK    3  A    between atoms: C_5  and  N_6
REMARK    4  A    between atoms: N_9  and  C_10
REMARK    5  A    between atoms: N_13  and  C_14
REMARK                            x       y       z     vdW  Elec       q    Type
REMARK                         _______ _______ _______ _____ _____    ______ ____
ROOT
ATOM      1  N   UNL     1       4.292   3.286  19.211  0.00  0.00    +0.000 N 
ATOM      2  C   UNL     1       5.274   4.096  18.669  0.00  0.00    +0.000 A 
ATOM      3  O   UNL     1       6.315   3.632  18.196  0.00  0.00    +0.000 OA
ATOM      4  N   UNL     1       4.850   5.428  18.756  0.00  0.00    +0.000 N 
ATOM      5  C   UNL     1       3.578   5.414  19.381  0.00  0.00    +0.000 A 
ATOM      6  C   UNL     1       2.717   6.442  19.705  0.00  0.00    +0.000 A 
ATOM      7  C   UNL     1       1.543   6.108  20.389  0.00  0.00    +0.000 A 
ATOM      8  C   UNL     1       1.238   4.767  20.704  0.00  0.00    +0.000 A 
ATOM      9  C   UNL     1       2.096   3.729  20.336  0.00  0.00    +0.000 A 
ATOM     10  C   UNL     1       3.259   4.084  19.682  0.00  0.00    +0.000 A 
ENDROOT
BRANCH   4  11
ATOM     11  C   UNL     1       5.485   6.590  18.120  0.00  0.00    +0.000 C 
ATOM     12  C   UNL     1       4.845   7.030  16.794  0.00  0.00    +0.000 C 
ATOM     13  C   UNL     1       5.180   6.097  15.622  0.00  0.00    +0.000 C 
ATOM     14  N   UNL     1       6.612   5.786  15.447  0.00  0.00    +0.000 NA
ATOM     15  C   UNL     1       7.310   5.492  16.709  0.00  0.00    +0.000 C 
ATOM     16  C   UNL     1       6.985   6.436  17.867  0.00  0.00    +0.000 C 
BRANCH  14  17
ATOM     17  C   UNL     1       6.785   4.692  14.454  0.00  0.00    +0.000 C 
ATOM     18  C   UNL     1       5.461   4.147  13.895  0.00  0.00    +0.000 C 
ATOM     19  C   UNL     1       5.859   3.347  12.659  0.00  0.00    +0.000 C 
ATOM     20  C   UNL     1       7.142   3.984  12.138  0.00  0.00    +0.000 C 
ATOM     21  C   UNL     1       7.524   5.059  13.156  0.00  0.00    +0.000 C 
ENDBRANCH  14  17
ENDBRANCH   4  11
BRANCH   1  22
ATOM     22  C   UNL     1       4.357   1.852  19.123  0.00  0.00    +0.000 C 
BRANCH  22  25
ATOM     23  C   UNL     1       6.280  -0.634  21.279  0.00  0.00    +0.000 C 
ATOM     24  N   UNL     1       5.585   0.006  20.193  0.00  0.00    +0.000 N 
ATOM     25  C   UNL     1       5.027   1.255  20.352  0.00  0.00    +0.000 C 
ATOM     26  O   UNL     1       5.010   1.843  21.435  0.00  0.00    +0.000 OA
ATOM     27  H   UNL     1       5.406  -0.509  19.331  0.00  0.00    +0.000 HD
ENDBRANCH  22  25
ENDBRANCH   1  22
TORSDOF 4
ENDMDL
MODEL 3
REMARK VINA RESULT:      -7.7      2.301      6.850
REMARK  Name = 
REMARK  5 active torsions:
REMARK  status: ('A' for Active; 'I' for Inactive)
REMARK    1  A    between atoms: C_1  and  N_2
REMARK    2  A    between atoms: C_3  and  C_5
REMARK    3  A    between atoms: C_5  and  N_6
REMARK    4  A    between atoms: N_9  and  C_10
REMARK    5  A    between atoms: N_13  and  C_14
REMARK                            x       y       z     vdW  Elec       q    Type
REMARK                         _______ _______ _______ _____ _____    ______ ____
ROOT
ATOM      1  N   UNL     1       3.316   4.058  18.517  0.00  0.00    +0.000 N 
ATOM      2  C   UNL     1       4.694   4.010  18.634  0.00  0.00    +0.000 A 
ATOM      3  O   UNL     1       5.294   2.955  18.862  0.00  0.00    +0.000 OA
ATOM      4  N   UNL     1       5.203   5.300  18.438  0.00  0.00    +0.000 N 
ATOM      5  C   UNL     1       4.092   6.149  18.208  0.00  0.00    +0.000 A 
ATOM      6  C   UNL     1       4.024   7.503  17.954  0.00  0.00    +0.000 A 
ATOM      7  C   UNL     1       2.752   8.073  17.834  0.00  0.00    +0.000 A 
ATOM      8  C   UNL     1       1.586   7.285  17.935  0.00  0.00    +0.000 A 
ATOM      9  C   UNL     1       1.666   5.908  18.150  0.00  0.00    +0.000 A 
ATOM     10  C   UNL     1       2.930   5.371  18.288  0.00  0.00    +0.000 A 
ENDROOT
BRANCH   4  11
ATOM     11  C   UNL     1       6.616   5.666  18.271  0.00  0.00    +0.000 C 
ATOM     12  C   UNL     1       6.863   6.905  17.396  0.00  0.00    +0.000 C 
ATOM     13  C   UNL     1       6.667   6.637  15.898  0.00  0.00    +0.000 C 
ATOM     14  N   UNL     1       7.375   5.457  15.365  0.00  0.00    +0.000 NA
ATOM     15  C   UNL     1       7.288   4.274  16.236  0.00  0.00    +0.000 C 
ATOM     16  C   UNL     1       7.502   4.546  17.725  0.00  0.00    +0.000 C 
BRANCH  14  17
ATOM     17  C   UNL     1       6.914   5.159  13.983  0.00  0.00    +0.000 C 
ATOM     18  C   UNL     1       8.048   5.110  12.948  0.00  0.00    +0.000 C 
ATOM     19  C   UNL     1       7.435   4.430  11.728  0.00  0.00    +0.000 C 
ATOM     20  C   UNL     1       6.335   3.518  12.260  0.00  0.00    +0.000 C 
ATOM     21  C   UNL     1       6.255   3.787  13.763  0.00  0.00    +0.000 C 
ENDBRANCH  14  17
ENDBRANCH   4  11
BRANCH   1  22
ATOM     22  C   UNL     1       2.514   2.865  18.507  0.00  0.00    +0.000 C 
BRANCH  22  25
ATOM     23  C   UNL     1       1.537   2.627  22.183  0.00  0.00    +0.000 C 
ATOM     24  N   UNL     1       2.277   2.667  20.949  0.00  0.00    +0.000 N 
ATOM     25  C   UNL     1       1.628   2.786  19.741  0.00  0.00    +0.000 C 
ATOM     26  O   UNL     1       0.399   2.770  19.641  0.00  0.00    +0.000 OA
ATOM     27  H   UNL     1       3.283   2.499  20.954  0.00  0.00    +0.000 HD
ENDBRANCH  22  25
ENDBRANCH   1  22
TORSDOF 4
ENDMDL
MODEL 4
REMARK VINA RESULT:      -7.4      1.996      6.556
REMARK  Name = 
REMARK  5 active torsions:
REMARK  status: ('A' for Active; 'I' for Inactive)
REMARK    1  A    between atoms: C_1  and  N_2
REMARK    2  A    between atoms: C_3  and  C_5
REMARK    3  A    between atoms: C_5  and  N_6
REMARK    4  A    between atoms: N_9  and  C_10
REMARK    5  A    between atoms: N_13  and  C_14
REMARK                            x       y       z     vdW  Elec       q    Type
REMARK                         _______ _______ _______ _____ _____    ______ ____
ROOT
ATOM      1  N   UNL     1       2.670   6.328  18.511  0.00  0.00    +0.000 N 
ATOM      2  C   UNL     1       3.931   6.695  18.074  0.00  0.00    +0.000 A 
ATOM      3  O   UNL     1       4.132   7.757  17.476  0.00  0.00    +0.000 OA
ATOM      4  N   UNL     1       4.839   5.696  18.446  0.00  0.00    +0.000 N 
ATOM      5  C   UNL     1       4.095   4.693  19.115  0.00  0.00    +0.000 A 
ATOM      6  C   UNL     1       4.489   3.502  19.687  0.00  0.00    +0.000 A 
ATOM      7  C   UNL     1       3.491   2.682  20.224  0.00  0.00    +0.000 A 
ATOM      8  C   UNL     1       2.137   3.077  20.211  0.00  0.00    +0.000 A 
ATOM      9  C   UNL     1       1.751   4.304  19.667  0.00  0.00    +0.000 A 
ATOM     10  C   UNL     1       2.750   5.085  19.123  0.00  0.00    +0.000 A 
ENDROOT
BRANCH   4  11
ATOM     11  C   UNL     1       6.304   5.773  18.367  0.00  0.00    +0.000 C 
ATOM     12  C   UNL     1       6.844   6.909  17.485  0.00  0.00    +0.000 C 
ATOM     13  C   UNL     1       6.692   6.634  15.982  0.00  0.00    +0.000 C 
ATOM     14  N   UNL     1       7.186   5.320  15.525  0.00  0.00    +0.000 NA
ATOM     15  C   UNL     1       6.814   4.208  16.413  0.00  0.00    +0.000 C 
ATOM     16  C   UNL     1       6.985   4.484  17.907  0.00  0.00    +0.000 C 
BRANCH  14  17
ATOM     17  C   UNL     1       6.762   5.071  14.121  0.00  0.00    +0.000 C 
ATOM     18  C   UNL     1       7.915   5.123  13.106  0.00  0.00    +0.000 C 
ATOM     19  C   UNL     1       7.354   4.478  11.843  0.00  0.00    +0.000 C 
ATOM     20  C   UNL     1       6.289   3.493  12.310  0.00  0.00    +0.000 C 
ATOM     21  C   UNL     1       6.171   3.682  13.823  0.00  0.00    +0.000 C 
ENDBRANCH  14  17
ENDBRANCH   4  11
BRANCH   1  22
ATOM     22  C   UNL     1       1.548   7.223  18.425  0.00  0.00    +0.000 C 
BRANCH  22  25
ATOM     23  C   UNL     1       1.568   8.752  21.916  0.00  0.00    +0.000 C 
ATOM     24  N   UNL     1       1.484   7.838  20.808  0.00  0.00    +0.000 N 
ATOM     25  C   UNL     1       1.607   8.286  19.512  0.00  0.00    +0.000 C 
ATOM     26  O   UNL     1       1.699   9.482  19.228  0.00  0.00    +0.000 OA
ATOM     27  H   UNL     1       1.225   6.865  20.971  0.00  0.00    +0.000 HD
ENDBRANCH  22  25
ENDBRANCH   1  22
TORSDOF 4
ENDMDL
MODEL 5
REMARK VINA RESULT:      -7.3      7.870     10.974
REMARK  Name = 
REMARK  5 active torsions:
REMARK  status: ('A' for Active; 'I' for Inactive)
REMARK    1  A    between atoms: C_1  and  N_2
REMARK    2  A    between atoms: C_3  and  C_5
REMARK    3  A    between atoms: C_5  and  N_6
REMARK    4  A    between atoms: N_9  and  C_10
REMARK    5  A    between atoms: N_13  and  C_14
REMARK                            x       y       z     vdW  Elec       q    Type
REMARK                         _______ _______ _______ _____ _____    ______ ____
ROOT
ATOM      1  N   UNL     1      -3.755  12.433  19.488  0.00  0.00    +0.000 N 
ATOM      2  C   UNL     1      -2.651  12.493  20.319  0.00  0.00    +0.000 A 
ATOM      3  O   UNL     1      -2.641  13.182  21.344  0.00  0.00    +0.000 OA
ATOM      4  N   UNL     1      -1.653  11.662  19.794  0.00  0.00    +0.000 N 
ATOM      5  C   UNL     1      -2.174  11.097  18.604  0.00  0.00    +0.000 A 
ATOM      6  C   UNL     1      -1.619  10.212  17.703  0.00  0.00    +0.000 A 
ATOM      7  C   UNL     1      -2.373   9.887  16.570  0.00  0.00    +0.000 A 
ATOM      8  C   UNL     1      -3.665  10.418  16.376  0.00  0.00    +0.000 A 
ATOM      9  C   UNL     1      -4.236  11.281  17.314  0.00  0.00    +0.000 A 
ATOM     10  C   UNL     1      -3.465  11.605  18.412  0.00  0.00    +0.000 A 
ENDROOT
BRANCH   4  11
ATOM     11  C   UNL     1      -0.404  11.269  20.460  0.00  0.00    +0.000 C 
ATOM     12  C   UNL     1       0.268  12.381  21.281  0.00  0.00    +0.000 C 
ATOM     13  C   UNL     1       0.963  13.439  20.413  0.00  0.00    +0.000 C 
ATOM     14  N   UNL     1       1.875  12.912  19.379  0.00  0.00    +0.000 NA
ATOM     15  C   UNL     1       1.336  11.752  18.652  0.00  0.00    +0.000 C 
ATOM     16  C   UNL     1       0.661  10.694  19.526  0.00  0.00    +0.000 C 
BRANCH  14  17
ATOM     17  C   UNL     1       2.287  14.000  18.452  0.00  0.00    +0.000 C 
ATOM     18  C   UNL     1       1.763  15.388  18.852  0.00  0.00    +0.000 C 
ATOM     19  C   UNL     1       2.592  16.370  18.031  0.00  0.00    +0.000 C 
ATOM     20  C   UNL     1       3.930  15.686  17.777  0.00  0.00    +0.000 C 
ATOM     21  C   UNL     1       3.798  14.274  18.349  0.00  0.00    +0.000 C 
ENDBRANCH  14  17
ENDBRANCH   4  11
BRANCH   1  22
ATOM     22  C   UNL     1      -5.005  13.050  19.841  0.00  0.00    +0.000 C 
BRANCH  22  25
ATOM     23  C   UNL     1      -7.620  10.387  20.610  0.00  0.00    +0.000 C 
ATOM     24  N   UNL     1      -6.777  11.345  19.945  0.00  0.00    +0.000 N 
ATOM     25  C   UNL     1      -5.875  12.104  20.655  0.00  0.00    +0.000 C 
ATOM     26  O   UNL     1      -5.806  12.076  21.886  0.00  0.00    +0.000 OA
ATOM     27  H   UNL     1      -6.919  11.544  18.955  0.00  0.00    +0.000 HD
ENDBRANCH  22  25
ENDBRANCH   1  22
TORSDOF 4
ENDMDL
MODEL 6
REMARK VINA RESULT:      -7.3      7.949     10.959
REMARK  Name = 
REMARK  5 active torsions:
REMARK  status: ('A' for Active; 'I' for Inactive)
REMARK    1  A    between atoms: C_1  and  N_2
REMARK    2  A    between atoms: C_3  and  C_5
REMARK    3  A    between atoms: C_5  and  N_6
REMARK    4  A    between atoms: N_9  and  C_10
REMARK    5  A    between atoms: N_13  and  C_14
REMARK                            x       y       z     vdW  Elec       q    Type
REMARK                         _______ _______ _______ _____ _____    ______ ____
ROOT
ATOM      1  N   UNL     1      -0.751  11.731  19.687  0.00  0.00    +0.000 N 
ATOM      2  C   UNL     1      -1.129  12.958  20.205  0.00  0.00    +0.000 A 
ATOM      3  O   UNL     1      -1.312  13.943  19.482  0.00  0.00    +0.000 OA
ATOM      4  N   UNL     1      -1.259  12.834  21.593  0.00  0.00    +0.000 N 
ATOM      5  C   UNL     1      -0.938  11.493  21.918  0.00  0.00    +0.000 A 
ATOM      6  C   UNL     1      -0.910  10.836  23.131  0.00  0.00    +0.000 A 
ATOM      7  C   UNL     1      -0.480   9.505  23.134  0.00  0.00    +0.000 A 
ATOM      8  C   UNL     1      -0.122   8.851  21.936  0.00  0.00    +0.000 A 
ATOM      9  C   UNL     1      -0.193   9.511  20.708  0.00  0.00    +0.000 A 
ATOM     10  C   UNL     1      -0.598  10.830  20.732  0.00  0.00    +0.000 A 
ENDROOT
BRANCH   4  11
ATOM     11  C   UNL     1      -1.838  13.827  22.508  0.00  0.00    +0.000 C 
ATOM     12  C   UNL     1      -2.788  13.251  23.570  0.00  0.00    +0.000 C 
ATOM     13  C   UNL     1      -4.157  12.849  23.003  0.00  0.00    +0.000 C 
ATOM     14  N   UNL     1      -4.830  13.874  22.183  0.00  0.00    +0.000 NA
ATOM     15  C   UNL     1      -3.932  14.560  21.241  0.00  0.00    +0.000 C 
ATOM     16  C   UNL     1      -2.578  14.973  21.817  0.00  0.00    +0.000 C 
BRANCH  14  17
ATOM     17  C   UNL     1      -6.011  13.289  21.492  0.00  0.00    +0.000 C 
ATOM     18  C   UNL     1      -5.649  12.256  20.413  0.00  0.00    +0.000 C 
ATOM     19  C   UNL     1      -6.955  11.523  20.121  0.00  0.00    +0.000 C 
ATOM     20  C   UNL     1      -7.776  11.594  21.403  0.00  0.00    +0.000 C 
ATOM     21  C   UNL     1      -6.979  12.474  22.367  0.00  0.00    +0.000 C 
ENDBRANCH  14  17
ENDBRANCH   4  11
BRANCH   1  22
ATOM     22  C   UNL     1      -0.692  11.491  18.271  0.00  0.00    +0.000 C 
BRANCH  22  25
ATOM     23  C   UNL     1      -4.238  11.506  16.872  0.00  0.00    +0.000 C 
ATOM     24  N   UNL     1      -2.965  11.900  17.416  0.00  0.00    +0.000 N 
ATOM     25  C   UNL     1      -2.017  10.957  17.748  0.00  0.00    +0.000 C 
ATOM     26  O   UNL     1      -2.236   9.745  17.689  0.00  0.00    +0.000 OA
ATOM     27  H   UNL     1      -2.796  12.876  17.660  0.00  0.00    +0.000 HD
ENDBRANCH  22  25
ENDBRANCH   1  22
TORSDOF 4
ENDMDL
MODEL 7
REMARK VINA RESULT:      -7.3      9.652     12.132
REMARK  Name = 
REMARK  5 active torsions:
REMARK  status: ('A' for Active; 'I' for Inactive)
REMARK    1  A    between atoms: C_1  and  N_2
REMARK    2  A    between atoms: C_3  and  C_5
REMARK    3  A    between atoms: C_5  and  N_6
REMARK    4  A    between atoms: N_9  and  C_10
REMARK    5  A    between atoms: N_13  and  C_14
REMARK                            x       y       z     vdW  Elec       q    Type
REMARK                         _______ _______ _______ _____ _____    ______ ____
ROOT
ATOM      1  N   UNL     1      -5.080  12.175  19.298  0.00  0.00    +0.000 N 
ATOM      2  C   UNL     1      -4.227  12.619  20.292  0.00  0.00    +0.000 A 
ATOM      3  O   UNL     1      -4.647  13.166  21.317  0.00  0.00    +0.000 OA
ATOM      4  N   UNL     1      -2.911  12.322  19.915  0.00  0.00    +0.000 N 
ATOM      5  C   UNL     1      -2.979  11.690  18.649  0.00  0.00    +0.000 A 
ATOM      6  C   UNL     1      -1.987  11.191  17.831  0.00  0.00    +0.000 A 
ATOM      7  C   UNL     1      -2.374  10.675  16.589  0.00  0.00    +0.000 A 
ATOM      8  C   UNL     1      -3.731  10.637  16.205  0.00  0.00    +0.000 A 
ATOM      9  C   UNL     1      -4.732  11.106  17.057  0.00  0.00    +0.000 A 
ATOM     10  C   UNL     1      -4.325  11.631  18.267  0.00  0.00    +0.000 A 
ENDROOT
BRANCH   4  11
ATOM     11  C   UNL     1      -1.715  12.430  20.761  0.00  0.00    +0.000 C 
ATOM     12  C   UNL     1      -1.802  13.489  21.871  0.00  0.00    +0.000 C 
ATOM     13  C   UNL     1      -1.666  14.926  21.348  0.00  0.00    +0.000 C 
ATOM     14  N   UNL     1      -0.512  15.173  20.462  0.00  0.00    +0.000 NA
ATOM     15  C   UNL     1      -0.297  14.114  19.465  0.00  0.00    +0.000 C 
ATOM     16  C   UNL     1      -0.416  12.686  19.997  0.00  0.00    +0.000 C 
BRANCH  14  17
ATOM     17  C   UNL     1      -0.627  16.514  19.827  0.00  0.00    +0.000 C 
ATOM     18  C   UNL     1      -0.240  16.531  18.340  0.00  0.00    +0.000 C 
ATOM     19  C   UNL     1      -0.785  17.854  17.811  0.00  0.00    +0.000 C 
ATOM     20  C   UNL     1      -1.989  18.195  18.681  0.00  0.00    +0.000 C 
ATOM     21  C   UNL     1      -2.037  17.125  19.773  0.00  0.00    +0.000 C 
ENDBRANCH  14  17
ENDBRANCH   4  11
BRANCH   1  22
ATOM     22  C   UNL     1      -6.508  12.188  19.462  0.00  0.00    +0.000 C 
BRANCH  22  25
ATOM     23  C   UNL     1      -7.598   8.632  20.298  0.00  0.00    +0.000 C 
ATOM     24  N   UNL     1      -7.193   9.827  19.606  0.00  0.00    +0.000 N 
ATOM     25  C   UNL     1      -6.977  11.002  20.292  0.00  0.00    +0.000 C 
ATOM     26  O   UNL     1      -7.205  11.119  21.498  0.00  0.00    +0.000 OA
ATOM     27  H   UNL     1      -7.168   9.839  18.586  0.00  0.00    +0.000 HD
ENDBRANCH  22  25
ENDBRANCH   1  22
TORSDOF 4
ENDMDL
MODEL 8
REMARK VINA RESULT:      -7.2      0.636      1.066
REMARK  Name = 
REMARK  5 active torsions:
REMARK  status: ('A' for Active; 'I' for Inactive)
REMARK    1  A    between atoms: C_1  and  N_2
REMARK    2  A    between atoms: C_3  and  C_5
REMARK    3  A    between atoms: C_5  and  N_6
REMARK    4  A    between atoms: N_9  and  C_10
REMARK    5  A    between atoms: N_13  and  C_14
REMARK                            x       y       z     vdW  Elec       q    Type
REMARK                         _______ _______ _______ _____ _____    ______ ____
ROOT
ATOM      1  N   UNL     1       7.216   5.484  17.876  0.00  0.00    +0.000 N 
ATOM      2  C   UNL     1       6.366   4.878  18.784  0.00  0.00    +0.000 A 
ATOM      3  O   UNL     1       6.464   5.070  20.000  0.00  0.00    +0.000 OA
ATOM      4  N   UNL     1       5.450   4.088  18.078  0.00  0.00    +0.000 N 
ATOM      5  C   UNL     1       5.770   4.218  16.703  0.00  0.00    +0.000 A 
ATOM      6  C   UNL     1       5.190   3.664  15.582  0.00  0.00    +0.000 A 
ATOM      7  C   UNL     1       5.786   3.935  14.346  0.00  0.00    +0.000 A 
ATOM      8  C   UNL     1       6.918   4.772  14.249  0.00  0.00    +0.000 A 
ATOM      9  C   UNL     1       7.474   5.362  15.386  0.00  0.00    +0.000 A 
ATOM     10  C   UNL     1       6.882   5.062  16.596  0.00  0.00    +0.000 A 
ENDROOT
BRANCH   4  11
ATOM     11  C   UNL     1       4.251   3.440  18.625  0.00  0.00    +0.000 C 
ATOM     12  C   UNL     1       3.023   3.465  17.701  0.00  0.00    +0.000 C 
ATOM     13  C   UNL     1       2.349   4.842  17.629  0.00  0.00    +0.000 C 
ATOM     14  N   UNL     1       2.053   5.473  18.929  0.00  0.00    +0.000 NA
ATOM     15  C   UNL     1       3.147   5.355  19.905  0.00  0.00    +0.000 C 
ATOM     16  C   UNL     1       3.802   3.976  19.984  0.00  0.00    +0.000 C 
BRANCH  14  17
ATOM     17  C   UNL     1       1.639   6.889  18.733  0.00  0.00    +0.000 C 
ATOM     18  C   UNL     1       1.761   7.752  19.999  0.00  0.00    +0.000 C 
ATOM     19  C   UNL     1       1.670   9.191  19.501  0.00  0.00    +0.000 C 
ATOM     20  C   UNL     1       2.201   9.178  18.072  0.00  0.00    +0.000 C 
ATOM     21  C   UNL     1       2.470   7.711  17.734  0.00  0.00    +0.000 C 
ENDBRANCH  14  17
ENDBRANCH   4  11
BRANCH   1  22
ATOM     22  C   UNL     1       8.166   6.485  18.279  0.00  0.00    +0.000 C 
BRANCH  22  25
ATOM     23  C   UNL     1       8.183  10.278  17.899  0.00  0.00    +0.000 C 
ATOM     24  N   UNL     1       8.486   8.926  18.290  0.00  0.00    +0.000 N 
ATOM     25  C   UNL     1       7.724   7.873  17.838  0.00  0.00    +0.000 C 
ATOM     26  O   UNL     1       6.703   8.031  17.164  0.00  0.00    +0.000 OA
ATOM     27  H   UNL     1       9.205   8.750  18.992  0.00  0.00    +0.000 HD
ENDBRANCH  22  25
ENDBRANCH   1  22
TORSDOF 4
ENDMDL
MODEL 9
REMARK VINA RESULT:      -7.2      2.046      6.509
REMARK  Name = 
REMARK  5 active torsions:
REMARK  status: ('A' for Active; 'I' for Inactive)
REMARK    1  A    between atoms: C_1  and  N_2
REMARK    2  A    between atoms: C_3  and  C_5
REMARK    3  A    between atoms: C_5  and  N_6
REMARK    4  A    between atoms: N_9  and  C_10
REMARK    5  A    between atoms: N_13  and  C_14
REMARK                            x       y       z     vdW  Elec       q    Type
REMARK                         _______ _______ _______ _____ _____    ______ ____
ROOT
ATOM      1  N   UNL     1       2.603   6.165  18.346  0.00  0.00    +0.000 N 
ATOM      2  C   UNL     1       3.859   6.546  17.909  0.00  0.00    +0.000 A 
ATOM      3  O   UNL     1       4.035   7.569  17.240  0.00  0.00    +0.000 OA
ATOM      4  N   UNL     1       4.793   5.609  18.368  0.00  0.00    +0.000 N 
ATOM      5  C   UNL     1       4.071   4.630  19.093  0.00  0.00    +0.000 A 
ATOM      6  C   UNL     1       4.495   3.497  19.757  0.00  0.00    +0.000 A 
ATOM      7  C   UNL     1       3.514   2.682  20.332  0.00  0.00    +0.000 A 
ATOM      8  C   UNL     1       2.147   3.025  20.265  0.00  0.00    +0.000 A 
ATOM      9  C   UNL     1       1.731   4.195  19.628  0.00  0.00    +0.000 A 
ATOM     10  C   UNL     1       2.713   4.972  19.048  0.00  0.00    +0.000 A 
ENDROOT
BRANCH   4  11
ATOM     11  C   UNL     1       6.256   5.734  18.312  0.00  0.00    +0.000 C 
ATOM     12  C   UNL     1       6.772   6.898  17.450  0.00  0.00    +0.000 C 
ATOM     13  C   UNL     1       6.651   6.634  15.943  0.00  0.00    +0.000 C 
ATOM     14  N   UNL     1       7.193   5.342  15.478  0.00  0.00    +0.000 NA
ATOM     15  C   UNL     1       6.845   4.209  16.349  0.00  0.00    +0.000 C 
ATOM     16  C   UNL     1       6.985   4.473  17.848  0.00  0.00    +0.000 C 
BRANCH  14  17
ATOM     17  C   UNL     1       6.798   5.095  14.066  0.00  0.00    +0.000 C 
ATOM     18  C   UNL     1       7.978   5.098  13.082  0.00  0.00    +0.000 C 
ATOM     19  C   UNL     1       7.428   4.461  11.810  0.00  0.00    +0.000 C 
ATOM     20  C   UNL     1       6.316   3.518  12.256  0.00  0.00    +0.000 C 
ATOM     21  C   UNL     1       6.166   3.726  13.763  0.00  0.00    +0.000 C 
ENDBRANCH  14  17
ENDBRANCH   4  11
BRANCH   1  22
ATOM     22  C   UNL     1       1.452   7.010  18.176  0.00  0.00    +0.000 C 
BRANCH  22  25
ATOM     23  C   UNL     1       1.861  10.784  18.510  0.00  0.00    +0.000 C 
ATOM     24  N   UNL     1       1.710   9.451  17.990  0.00  0.00    +0.000 N 
ATOM     25  C   UNL     1       1.661   8.365  18.835  0.00  0.00    +0.000 C 
ATOM     26  O   UNL     1       1.835   8.460  20.052  0.00  0.00    +0.000 OA
ATOM     27  H   UNL     1       1.746   9.292  16.983  0.00  0.00    +0.000 HD
ENDBRANCH  22  25
ENDBRANCH   1  22
TORSDOF 4
ENDMDL
