MODEL 1
REMARK VINA RESULT:      -7.9      0.000      0.000
REMARK  Name = 
REMARK  8 active torsions:
REMARK  status: ('A' for Active; 'I' for Inactive)
REMARK    1  A    between atoms: C_2  and  C_3
REMARK    2  A    between atoms: C_3  and  C_4
REMARK    3  A    between atoms: C_4  and  S_5
REMARK    4  A    between atoms: S_5  and  C_6
REMARK    5  A    between atoms: C_8  and  C_9
REMARK    6  A    between atoms: C_15  and  C_16
REMARK    7  A    between atoms: N_21  and  C_22
REMARK    8  A    between atoms: C_22  and  C_23
REMARK                            x       y       z     vdW  Elec       q    Type
REMARK                         _______ _______ _______ _____ _____    ______ ____
ROOT
ATOM      1  C   UNL     1       4.403   4.792  18.533  0.00  0.00    +0.000 A 
ATOM      2  N   UNL     1       3.897   6.021  18.386  0.00  0.00    +0.000 NA
ATOM      3  C   UNL     1       2.611   6.196  18.745  0.00  0.00    +0.000 A 
ATOM      4  C   UNL     1       1.819   5.174  19.222  0.00  0.00    +0.000 A 
ATOM      5  C   UNL     1       2.415   3.936  19.349  0.00  0.00    +0.000 A 
ATOM      6  N   UNL     1       3.713   3.736  18.996  0.00  0.00    +0.000 NA
ENDROOT
BRANCH   3   7
ATOM      7  C   UNL     1       2.138   7.570  18.677  0.00  0.00    +0.000 A 
ATOM      8  C   UNL     1       2.142   8.537  17.692  0.00  0.00    +0.000 A 
ATOM      9  C   UNL     1       1.608   9.712  18.275  0.00  0.00    +0.000 A 
ATOM     10  C   UNL     1       1.296   9.386  19.574  0.00  0.00    +0.000 A 
ATOM     11  O   UNL     1       1.607   8.089  19.825  0.00  0.00    +0.000 OA
ENDBRANCH   3   7
BRANCH   5  12
ATOM     12  C   UNL     1       1.616   2.787  19.946  0.00  0.00    +0.000 C 
ATOM     13  F   UNL     1       1.815   1.602  19.294  0.00  0.00    +0.000 F 
ATOM     14  F   UNL     1       1.922   2.536  21.250  0.00  0.00    +0.000 F 
ATOM     15  F   UNL     1       0.269   2.997  19.902  0.00  0.00    +0.000 F 
ENDBRANCH   5  12
BRANCH   1  16
ATOM     16  S   UNL     1       6.122   4.522  18.161  0.00  0.00    +0.000 S 
BRANCH  16  17
ATOM     17  C   UNL     1       6.918   5.615  19.395  0.00  0.00    +0.000 C 
BRANCH  17  18
ATOM     18  C   UNL     1       8.224   6.173  18.832  0.00  0.00    +0.000 C 
BRANCH  18  20
ATOM     19  O   UNL     1       7.373   7.563  17.046  0.00  0.00    +0.000 OA
ATOM     20  C   UNL     1       7.998   7.477  18.096  0.00  0.00    +0.000 C 
ATOM     21  N   UNL     1       8.572   8.562  18.726  0.00  0.00    +0.000 N 
ATOM     22  H   UNL     1       9.069   8.429  19.597  0.00  0.00    +0.000 HD
BRANCH  21  23
ATOM     23  C   UNL     1       8.489   9.908  18.203  0.00  0.00    +0.000 C 
BRANCH  23  24
ATOM     24  C   UNL     1       9.487  10.760  18.922  0.00  0.00    +0.000 A 
ATOM     25  C   UNL     1       9.607  10.967  20.283  0.00  0.00    +0.000 A 
ATOM     26  C   UNL     1      10.680  11.847  20.607  0.00  0.00    +0.000 A 
ATOM     27  C   UNL     1      11.341  12.289  19.483  0.00  0.00    +0.000 A 
ATOM     28  S   UNL     1      10.669  11.644  18.049  0.00  0.00    +0.000 S 
ENDBRANCH  23  24
ENDBRANCH  21  23
ENDBRANCH  18  20
ENDBRANCH  17  18
ENDBRANCH  16  17
ENDBRANCH   1  16
TORSDOF 8
ENDMDL
MODEL 2
REMARK VINA RESULT:      -7.9      4.439      7.428
REMARK  Name = 
REMARK  8 active torsions:
REMARK  status: ('A' for Active; 'I' for Inactive)
REMARK    1  A    between atoms: C_2  and  C_3
REMARK    2  A    between atoms: C_3  and  C_4
REMARK    3  A    between atoms: C_4  and  S_5
REMARK    4  A    between atoms: S_5  and  C_6
REMARK    5  A    between atoms: C_8  and  C_9
REMARK    6  A    between atoms: C_15  and  C_16
REMARK    7  A    between atoms: N_21  and  C_22
REMARK    8  A    between atoms: C_22  and  C_23
REMARK                            x       y       z     vdW  Elec       q    Type
REMARK                         _______ _______ _______ _____ _____    ______ ____
ROOT
ATOM      1  C   UNL     1       5.019   3.841  17.296  0.00  0.00    +0.000 A 
ATOM      2  N   UNL     1       5.309   3.934  15.995  0.00  0.00    +0.000 NA
ATOM      3  C   UNL     1       6.414   4.630  15.666  0.00  0.00    +0.000 A 
ATOM      4  C   UNL     1       7.216   5.250  16.600  0.00  0.00    +0.000 A 
ATOM      5  C   UNL     1       6.852   5.104  17.923  0.00  0.00    +0.000 A 
ATOM      6  N   UNL     1       5.743   4.403  18.279  0.00  0.00    +0.000 NA
ENDROOT
BRANCH   3   7
ATOM      7  C   UNL     1       6.753   4.608  14.252  0.00  0.00    +0.000 A 
ATOM      8  C   UNL     1       6.350   3.835  13.181  0.00  0.00    +0.000 A 
ATOM      9  C   UNL     1       7.119   4.253  12.067  0.00  0.00    +0.000 A 
ATOM     10  C   UNL     1       7.931   5.264  12.521  0.00  0.00    +0.000 A 
ATOM     11  O   UNL     1       7.713   5.491  13.841  0.00  0.00    +0.000 OA
ENDBRANCH   3   7
BRANCH   5  12
ATOM     12  C   UNL     1       7.744   5.697  19.005  0.00  0.00    +0.000 C 
ATOM     13  F   UNL     1       8.231   6.932  18.677  0.00  0.00    +0.000 F 
ATOM     14  F   UNL     1       7.108   5.865  20.197  0.00  0.00    +0.000 F 
ATOM     15  F   UNL     1       8.846   4.936  19.261  0.00  0.00    +0.000 F 
ENDBRANCH   5  12
BRANCH   1  16
ATOM     16  S   UNL     1       3.623   2.858  17.796  0.00  0.00    +0.000 S 
BRANCH  16  17
ATOM     17  C   UNL     1       4.083   2.458  19.522  0.00  0.00    +0.000 C 
BRANCH  17  18
ATOM     18  C   UNL     1       2.829   2.148  20.339  0.00  0.00    +0.000 C 
BRANCH  18  20
ATOM     19  O   UNL     1       1.945   3.370  22.229  0.00  0.00    +0.000 OA
ATOM     20  C   UNL     1       2.323   3.378  21.064  0.00  0.00    +0.000 C 
ATOM     21  N   UNL     1       2.327   4.511  20.277  0.00  0.00    +0.000 N 
ATOM     22  H   UNL     1       2.660   4.457  19.324  0.00  0.00    +0.000 HD
BRANCH  21  23
ATOM     23  C   UNL     1       1.882   5.801  20.757  0.00  0.00    +0.000 C 
BRANCH  23  24
ATOM     24  C   UNL     1       2.108   6.813  19.678  0.00  0.00    +0.000 A 
ATOM     25  C   UNL     1       2.685   6.622  18.437  0.00  0.00    +0.000 A 
ATOM     26  C   UNL     1       2.736   7.821  17.669  0.00  0.00    +0.000 A 
ATOM     27  C   UNL     1       2.202   8.892  18.350  0.00  0.00    +0.000 A 
ATOM     28  S   UNL     1       1.643   8.449  19.905  0.00  0.00    +0.000 S 
ENDBRANCH  23  24
ENDBRANCH  21  23
ENDBRANCH  18  20
ENDBRANCH  17  18
ENDBRANCH  16  17
ENDBRANCH   1  16
TORSDOF 8
ENDMDL
MODEL 3
REMARK VINA RESULT:      -7.7      0.950      1.040
REMARK  Name = 
REMARK  8 active torsions:
REMARK  status: ('A' for Active; 'I' for Inactive)
REMARK    1  A    between atoms: C_2  and  C_3
REMARK    2  A    between atoms: C_3  and  C_4
REMARK    3  A    between atoms: C_4  and  S_5
REMARK    4  A    between atoms: S_5  and  C_6
REMARK    5  A    between atoms: C_8  and  C_9
REMARK    6  A    between atoms: C_15  and  C_16
REMARK    7  A    between atoms: N_21  and  C_22
REMARK    8  A    between atoms: C_22  and  C_23
REMARK                            x       y       z     vdW  Elec       q    Type
REMARK                         _______ _______ _______ _____ _____    ______ ____
ROOT
ATOM      1  C   UNL     1       4.053   5.003  19.046  0.00  0.00    +0.000 A 
ATOM      2  N   UNL     1       3.438   6.189  19.101  0.00  0.00    +0.000 NA
ATOM      3  C   UNL     1       2.309   6.254  19.832  0.00  0.00    +0.000 A 
ATOM      4  C   UNL     1       1.771   5.166  20.483  0.00  0.00    +0.000 A 
ATOM      5  C   UNL     1       2.467   3.978  20.381  0.00  0.00    +0.000 A 
ATOM      6  N   UNL     1       3.611   3.888  19.652  0.00  0.00    +0.000 NA
ENDROOT
BRANCH   3   7
ATOM      7  C   UNL     1       1.739   7.587  19.957  0.00  0.00    +0.000 A 
ATOM      8  C   UNL     1       1.639   8.672  19.109  0.00  0.00    +0.000 A 
ATOM      9  C   UNL     1       1.045   9.718  19.856  0.00  0.00    +0.000 A 
ATOM     10  C   UNL     1       0.802   9.204  21.108  0.00  0.00    +0.000 A 
ATOM     11  O   UNL     1       1.213   7.912  21.177  0.00  0.00    +0.000 OA
ENDBRANCH   3   7
BRANCH   5  12
ATOM     12  C   UNL     1       1.967   2.760  21.145  0.00  0.00    +0.000 C 
ATOM     13  F   UNL     1       1.542   1.753  20.324  0.00  0.00    +0.000 F 
ATOM     14  F   UNL     1       2.915   2.197  21.944  0.00  0.00    +0.000 F 
ATOM     15  F   UNL     1       0.902   3.038  21.950  0.00  0.00    +0.000 F 
ENDBRANCH   5  12
BRANCH   1  16
ATOM     16  S   UNL     1       5.599   4.877  18.173  0.00  0.00    +0.000 S 
BRANCH  16  17
ATOM     17  C   UNL     1       6.739   5.653  19.376  0.00  0.00    +0.000 C 
BRANCH  17  18
ATOM     18  C   UNL     1       8.053   6.019  18.688  0.00  0.00    +0.000 C 
BRANCH  18  20
ATOM     19  O   UNL     1       7.466   7.275  16.707  0.00  0.00    +0.000 OA
ATOM     20  C   UNL     1       7.909   7.272  17.848  0.00  0.00    +0.000 C 
ATOM     21  N   UNL     1       8.332   8.412  18.499  0.00  0.00    +0.000 N 
ATOM     22  H   UNL     1       8.680   8.348  19.447  0.00  0.00    +0.000 HD
BRANCH  21  23
ATOM     23  C   UNL     1       8.292   9.724  17.891  0.00  0.00    +0.000 C 
BRANCH  23  24
ATOM     24  C   UNL     1       9.167  10.643  18.684  0.00  0.00    +0.000 A 
ATOM     25  C   UNL     1       9.541  10.530  20.009  0.00  0.00    +0.000 A 
ATOM     26  C   UNL     1      10.385  11.598  20.430  0.00  0.00    +0.000 A 
ATOM     27  C   UNL     1      10.625  12.496  19.414  0.00  0.00    +0.000 A 
ATOM     28  S   UNL     1       9.834  12.049  17.964  0.00  0.00    +0.000 S 
ENDBRANCH  23  24
ENDBRANCH  21  23
ENDBRANCH  18  20
ENDBRANCH  17  18
ENDBRANCH  16  17
ENDBRANCH   1  16
TORSDOF 8
ENDMDL
MODEL 4
REMARK VINA RESULT:      -7.7      0.830      1.202
REMARK  Name = 
REMARK  8 active torsions:
REMARK  status: ('A' for Active; 'I' for Inactive)
REMARK    1  A    between atoms: C_2  and  C_3
REMARK    2  A    between atoms: C_3  and  C_4
REMARK    3  A    between atoms: C_4  and  S_5
REMARK    4  A    between atoms: S_5  and  C_6
REMARK    5  A    between atoms: C_8  and  C_9
REMARK    6  A    between atoms: C_15  and  C_16
REMARK    7  A    between atoms: N_21  and  C_22
REMARK    8  A    between atoms: C_22  and  C_23
REMARK                            x       y       z     vdW  Elec       q    Type
REMARK                         _______ _______ _______ _____ _____    ______ ____
ROOT
ATOM      1  C   UNL     1       4.330   5.118  18.782  0.00  0.00    +0.000 A 
ATOM      2  N   UNL     1       3.767   6.309  18.554  0.00  0.00    +0.000 NA
ATOM      3  C   UNL     1       2.554   6.523  19.098  0.00  0.00    +0.000 A 
ATOM      4  C   UNL     1       1.885   5.573  19.839  0.00  0.00    +0.000 A 
ATOM      5  C   UNL     1       2.533   4.370  20.033  0.00  0.00    +0.000 A 
ATOM      6  N   UNL     1       3.760   4.133  19.497  0.00  0.00    +0.000 NA
ENDROOT
BRANCH   3   7
ATOM      7  C   UNL     1       2.033   7.870  18.921  0.00  0.00    +0.000 A 
ATOM      8  C   UNL     1       2.125   8.809  17.913  0.00  0.00    +0.000 A 
ATOM      9  C   UNL     1       1.465   9.972  18.380  0.00  0.00    +0.000 A 
ATOM     10  C   UNL     1       0.996   9.666  19.636  0.00  0.00    +0.000 A 
ATOM     11  O   UNL     1       1.329   8.394  19.970  0.00  0.00    +0.000 OA
ENDBRANCH   3   7
BRANCH   5  12
ATOM     12  C   UNL     1       1.881   3.311  20.910  0.00  0.00    +0.000 C 
ATOM     13  F   UNL     1       0.515   3.341  20.856  0.00  0.00    +0.000 F 
ATOM     14  F   UNL     1       2.227   2.039  20.569  0.00  0.00    +0.000 F 
ATOM     15  F   UNL     1       2.189   3.452  22.231  0.00  0.00    +0.000 F 
ENDBRANCH   5  12
BRANCH   1  16
ATOM     16  S   UNL     1       5.971   4.812  18.167  0.00  0.00    +0.000 S 
BRANCH  16  17
ATOM     17  C   UNL     1       6.978   5.695  19.415  0.00  0.00    +0.000 C 
BRANCH  17  18
ATOM     18  C   UNL     1       8.245   6.249  18.765  0.00  0.00    +0.000 C 
BRANCH  18  20
ATOM     19  O   UNL     1       7.242   7.590  17.020  0.00  0.00    +0.000 OA
ATOM     20  C   UNL     1       7.963   7.531  18.007  0.00  0.00    +0.000 C 
ATOM     21  N   UNL     1       8.608   8.628  18.540  0.00  0.00    +0.000 N 
ATOM     22  H   UNL     1       9.185   8.518  19.364  0.00  0.00    +0.000 HD
BRANCH  21  23
ATOM     23  C   UNL     1       8.491   9.956  17.980  0.00  0.00    +0.000 C 
BRANCH  23  24
ATOM     24  C   UNL     1       9.482  10.848  18.660  0.00  0.00    +0.000 A 
ATOM     25  C   UNL     1      10.466  11.626  18.081  0.00  0.00    +0.000 A 
ATOM     26  C   UNL     1      11.228  12.348  19.045  0.00  0.00    +0.000 A 
ATOM     27  C   UNL     1      10.806  12.092  20.330  0.00  0.00    +0.000 A 
ATOM     28  S   UNL     1       9.499  10.990  20.369  0.00  0.00    +0.000 S 
ENDBRANCH  23  24
ENDBRANCH  21  23
ENDBRANCH  18  20
ENDBRANCH  17  18
ENDBRANCH  16  17
ENDBRANCH   1  16
TORSDOF 8
ENDMDL
MODEL 5
REMARK VINA RESULT:      -7.6      4.481      7.251
REMARK  Name = 
REMARK  8 active torsions:
REMARK  status: ('A' for Active; 'I' for Inactive)
REMARK    1  A    between atoms: C_2  and  C_3
REMARK    2  A    between atoms: C_3  and  C_4
REMARK    3  A    between atoms: C_4  and  S_5
REMARK    4  A    between atoms: S_5  and  C_6
REMARK    5  A    between atoms: C_8  and  C_9
REMARK    6  A    between atoms: C_15  and  C_16
REMARK    7  A    between atoms: N_21  and  C_22
REMARK    8  A    between atoms: C_22  and  C_23
REMARK                            x       y       z     vdW  Elec       q    Type
REMARK                         _______ _______ _______ _____ _____    ______ ____
ROOT
ATOM      1  C   UNL     1       4.741   4.155  17.403  0.00  0.00    +0.000 A 
ATOM      2  N   UNL     1       5.009   4.139  16.093  0.00  0.00    +0.000 NA
ATOM      3  C   UNL     1       6.201   4.635  15.710  0.00  0.00    +0.000 A 
ATOM      4  C   UNL     1       7.114   5.163  16.597  0.00  0.00    +0.000 A 
ATOM      5  C   UNL     1       6.766   5.140  17.932  0.00  0.00    +0.000 A 
ATOM      6  N   UNL     1       5.570   4.641  18.342  0.00  0.00    +0.000 NA
ENDROOT
BRANCH   3   7
ATOM      7  C   UNL     1       6.496   4.493  14.293  0.00  0.00    +0.000 A 
ATOM      8  C   UNL     1       6.057   3.636  13.303  0.00  0.00    +0.000 A 
ATOM      9  C   UNL     1       6.792   3.955  12.135  0.00  0.00    +0.000 A 
ATOM     10  C   UNL     1       7.621   4.997  12.478  0.00  0.00    +0.000 A 
ATOM     11  O   UNL     1       7.445   5.334  13.781  0.00  0.00    +0.000 OA
ENDBRANCH   3   7
BRANCH   5  12
ATOM     12  C   UNL     1       7.767   5.634  18.966  0.00  0.00    +0.000 C 
ATOM     13  F   UNL     1       7.228   5.747  20.218  0.00  0.00    +0.000 F 
ATOM     14  F   UNL     1       8.845   4.813  19.111  0.00  0.00    +0.000 F 
ATOM     15  F   UNL     1       8.263   6.871  18.678  0.00  0.00    +0.000 F 
ENDBRANCH   5  12
BRANCH   1  16
ATOM     16  S   UNL     1       3.221   3.429  17.977  0.00  0.00    +0.000 S 
BRANCH  16  17
ATOM     17  C   UNL     1       2.086   4.859  17.850  0.00  0.00    +0.000 C 
BRANCH  17  18
ATOM     18  C   UNL     1       2.495   5.940  18.850  0.00  0.00    +0.000 C 
BRANCH  18  20
ATOM     19  O   UNL     1       3.753   7.409  17.399  0.00  0.00    +0.000 OA
ATOM     20  C   UNL     1       2.803   7.250  18.155  0.00  0.00    +0.000 C 
ATOM     21  N   UNL     1       1.906   8.251  18.465  0.00  0.00    +0.000 N 
ATOM     22  H   UNL     1       1.134   8.057  19.090  0.00  0.00    +0.000 HD
BRANCH  21  23
ATOM     23  C   UNL     1       2.004   9.589  17.922  0.00  0.00    +0.000 C 
BRANCH  23  24
ATOM     24  C   UNL     1       1.235  10.519  18.807  0.00  0.00    +0.000 A 
ATOM     25  C   UNL     1       1.257  11.900  18.817  0.00  0.00    +0.000 A 
ATOM     26  C   UNL     1       0.392  12.452  19.804  0.00  0.00    +0.000 A 
ATOM     27  C   UNL     1      -0.260  11.475  20.523  0.00  0.00    +0.000 A 
ATOM     28  S   UNL     1       0.173   9.903  20.005  0.00  0.00    +0.000 S 
ENDBRANCH  23  24
ENDBRANCH  21  23
ENDBRANCH  18  20
ENDBRANCH  17  18
ENDBRANCH  16  17
ENDBRANCH   1  16
TORSDOF 8
ENDMDL
MODEL 6
REMARK VINA RESULT:      -7.6      4.304      7.159
REMARK  Name = 
REMARK  8 active torsions:
REMARK  status: ('A' for Active; 'I' for Inactive)
REMARK    1  A    between atoms: C_2  and  C_3
REMARK    2  A    between atoms: C_3  and  C_4
REMARK    3  A    between atoms: C_4  and  S_5
REMARK    4  A    between atoms: S_5  and  C_6
REMARK    5  A    between atoms: C_8  and  C_9
REMARK    6  A    between atoms: C_15  and  C_16
REMARK    7  A    between atoms: N_21  and  C_22
REMARK    8  A    between atoms: C_22  and  C_23
REMARK                            x       y       z     vdW  Elec       q    Type
REMARK                         _______ _______ _______ _____ _____    ______ ____
ROOT
ATOM      1  C   UNL     1       5.011   3.719  16.743  0.00  0.00    +0.000 A 
ATOM      2  N   UNL     1       5.728   4.650  17.378  0.00  0.00    +0.000 NA
ATOM      3  C   UNL     1       6.624   5.336  16.642  0.00  0.00    +0.000 A 
ATOM      4  C   UNL     1       6.833   5.097  15.301  0.00  0.00    +0.000 A 
ATOM      5  C   UNL     1       6.051   4.122  14.717  0.00  0.00    +0.000 A 
ATOM      6  N   UNL     1       5.138   3.420  15.439  0.00  0.00    +0.000 NA
ENDROOT
BRANCH   3   7
ATOM      7  C   UNL     1       7.298   6.414  17.348  0.00  0.00    +0.000 A 
ATOM      8  C   UNL     1       7.979   6.499  18.546  0.00  0.00    +0.000 A 
ATOM      9  C   UNL     1       8.330   7.860  18.718  0.00  0.00    +0.000 A 
ATOM     10  C   UNL     1       7.858   8.520  17.608  0.00  0.00    +0.000 A 
ATOM     11  O   UNL     1       7.237   7.652  16.769  0.00  0.00    +0.000 OA
ENDBRANCH   3   7
BRANCH   5  12
ATOM     12  C   UNL     1       6.179   3.869  13.221  0.00  0.00    +0.000 C 
ATOM     13  F   UNL     1       5.018   4.108  12.538  0.00  0.00    +0.000 F 
ATOM     14  F   UNL     1       7.118   4.651  12.619  0.00  0.00    +0.000 F 
ATOM     15  F   UNL     1       6.507   2.579  12.926  0.00  0.00    +0.000 F 
ENDBRANCH   5  12
BRANCH   1  16
ATOM     16  S   UNL     1       3.748   2.846  17.642  0.00  0.00    +0.000 S 
BRANCH  16  17
ATOM     17  C   UNL     1       4.358   3.028  19.358  0.00  0.00    +0.000 C 
BRANCH  17  18
ATOM     18  C   UNL     1       3.326   2.475  20.340  0.00  0.00    +0.000 C 
BRANCH  18  20
ATOM     19  O   UNL     1       2.039   3.450  22.141  0.00  0.00    +0.000 OA
ATOM     20  C   UNL     1       2.591   3.590  21.057  0.00  0.00    +0.000 C 
ATOM     21  N   UNL     1       2.602   4.781  20.361  0.00  0.00    +0.000 N 
ATOM     22  H   UNL     1       3.083   4.838  19.473  0.00  0.00    +0.000 HD
BRANCH  21  23
ATOM     23  C   UNL     1       1.960   5.981  20.850  0.00  0.00    +0.000 C 
BRANCH  23  24
ATOM     24  C   UNL     1       2.039   7.030  19.785  0.00  0.00    +0.000 A 
ATOM     25  C   UNL     1       2.634   6.939  18.542  0.00  0.00    +0.000 A 
ATOM     26  C   UNL     1       2.514   8.143  17.791  0.00  0.00    +0.000 A 
ATOM     27  C   UNL     1       1.836   9.119  18.487  0.00  0.00    +0.000 A 
ATOM     28  S   UNL     1       1.349   8.580  20.036  0.00  0.00    +0.000 S 
ENDBRANCH  23  24
ENDBRANCH  21  23
ENDBRANCH  18  20
ENDBRANCH  17  18
ENDBRANCH  16  17
ENDBRANCH   1  16
TORSDOF 8
ENDMDL
MODEL 7
REMARK VINA RESULT:      -7.6      4.505      7.416
REMARK  Name = 
REMARK  8 active torsions:
REMARK  status: ('A' for Active; 'I' for Inactive)
REMARK    1  A    between atoms: C_2  and  C_3
REMARK    2  A    between atoms: C_3  and  C_4
REMARK    3  A    between atoms: C_4  and  S_5
REMARK    4  A    between atoms: S_5  and  C_6
REMARK    5  A    between atoms: C_8  and  C_9
REMARK    6  A    between atoms: C_15  and  C_16
REMARK    7  A    between atoms: N_21  and  C_22
REMARK    8  A    between atoms: C_22  and  C_23
REMARK                            x       y       z     vdW  Elec       q    Type
REMARK                         _______ _______ _______ _____ _____    ______ ____
ROOT
ATOM      1  C   UNL     1       4.576   4.213  16.909  0.00  0.00    +0.000 A 
ATOM      2  N   UNL     1       4.974   4.187  15.633  0.00  0.00    +0.000 NA
ATOM      3  C   UNL     1       6.214   4.643  15.373  0.00  0.00    +0.000 A 
ATOM      4  C   UNL     1       7.050   5.142  16.348  0.00  0.00    +0.000 A 
ATOM      5  C   UNL     1       6.569   5.132  17.641  0.00  0.00    +0.000 A 
ATOM      6  N   UNL     1       5.322   4.673  17.928  0.00  0.00    +0.000 NA
ENDROOT
BRANCH   3   7
ATOM      7  C   UNL     1       6.645   4.490  13.992  0.00  0.00    +0.000 A 
ATOM      8  C   UNL     1       7.566   5.143  13.196  0.00  0.00    +0.000 A 
ATOM      9  C   UNL     1       7.458   4.576  11.903  0.00  0.00    +0.000 A 
ATOM     10  C   UNL     1       6.493   3.601  11.992  0.00  0.00    +0.000 A 
ATOM     11  O   UNL     1       5.999   3.537  13.254  0.00  0.00    +0.000 OA
ENDBRANCH   3   7
BRANCH   5  12
ATOM     12  C   UNL     1       7.476   5.594  18.772  0.00  0.00    +0.000 C 
ATOM     13  F   UNL     1       7.932   6.872  18.602  0.00  0.00    +0.000 F 
ATOM     14  F   UNL     1       6.868   5.588  19.990  0.00  0.00    +0.000 F 
ATOM     15  F   UNL     1       8.598   4.830  18.900  0.00  0.00    +0.000 F 
ENDBRANCH   5  12
BRANCH   1  16
ATOM     16  S   UNL     1       2.984   3.538  17.326  0.00  0.00    +0.000 S 
BRANCH  16  17
ATOM     17  C   UNL     1       3.337   2.809  18.967  0.00  0.00    +0.000 C 
BRANCH  17  18
ATOM     18  C   UNL     1       2.090   2.876  19.847  0.00  0.00    +0.000 C 
BRANCH  18  20
ATOM     19  O   UNL     1       2.359   4.020  21.961  0.00  0.00    +0.000 OA
ATOM     20  C   UNL     1       2.121   4.084  20.761  0.00  0.00    +0.000 C 
ATOM     21  N   UNL     1       1.850   5.267  20.105  0.00  0.00    +0.000 N 
ATOM     22  H   UNL     1       1.670   5.257  19.110  0.00  0.00    +0.000 HD
BRANCH  21  23
ATOM     23  C   UNL     1       1.821   6.548  20.776  0.00  0.00    +0.000 C 
BRANCH  23  24
ATOM     24  C   UNL     1       1.835   7.628  19.740  0.00  0.00    +0.000 A 
ATOM     25  C   UNL     1       2.427   7.603  18.492  0.00  0.00    +0.000 A 
ATOM     26  C   UNL     1       2.236   8.819  17.775  0.00  0.00    +0.000 A 
ATOM     27  C   UNL     1       1.509   9.737  18.500  0.00  0.00    +0.000 A 
ATOM     28  S   UNL     1       1.062   9.130  20.036  0.00  0.00    +0.000 S 
ENDBRANCH  23  24
ENDBRANCH  21  23
ENDBRANCH  18  20
ENDBRANCH  17  18
ENDBRANCH  16  17
ENDBRANCH   1  16
TORSDOF 8
ENDMDL
MODEL 8
REMARK VINA RESULT:      -7.6      4.444      7.368
REMARK  Name = 
REMARK  8 active torsions:
REMARK  status: ('A' for Active; 'I' for Inactive)
REMARK    1  A    between atoms: C_2  and  C_3
REMARK    2  A    between atoms: C_3  and  C_4
REMARK    3  A    between atoms: C_4  and  S_5
REMARK    4  A    between atoms: S_5  and  C_6
REMARK    5  A    between atoms: C_8  and  C_9
REMARK    6  A    between atoms: C_15  and  C_16
REMARK    7  A    between atoms: N_21  and  C_22
REMARK    8  A    between atoms: C_22  and  C_23
REMARK                            x       y       z     vdW  Elec       q    Type
REMARK                         _______ _______ _______ _____ _____    ______ ____
ROOT
ATOM      1  C   UNL     1       4.834   3.706  17.190  0.00  0.00    +0.000 A 
ATOM      2  N   UNL     1       5.121   3.774  15.886  0.00  0.00    +0.000 NA
ATOM      3  C   UNL     1       6.223   4.466  15.541  0.00  0.00    +0.000 A 
ATOM      4  C   UNL     1       7.025   5.108  16.459  0.00  0.00    +0.000 A 
ATOM      5  C   UNL     1       6.664   4.988  17.786  0.00  0.00    +0.000 A 
ATOM      6  N   UNL     1       5.558   4.291  18.159  0.00  0.00    +0.000 NA
ENDROOT
BRANCH   3   7
ATOM      7  C   UNL     1       6.558   4.417  14.126  0.00  0.00    +0.000 A 
ATOM      8  C   UNL     1       6.195   3.588  13.082  0.00  0.00    +0.000 A 
ATOM      9  C   UNL     1       6.937   4.011  11.952  0.00  0.00    +0.000 A 
ATOM     10  C   UNL     1       7.694   5.080  12.370  0.00  0.00    +0.000 A 
ATOM     11  O   UNL     1       7.467   5.338  13.683  0.00  0.00    +0.000 OA
ENDBRANCH   3   7
BRANCH   5  12
ATOM     12  C   UNL     1       7.556   5.606  18.853  0.00  0.00    +0.000 C 
ATOM     13  F   UNL     1       7.955   6.877  18.545  0.00  0.00    +0.000 F 
ATOM     14  F   UNL     1       6.954   5.703  20.071  0.00  0.00    +0.000 F 
ATOM     15  F   UNL     1       8.711   4.908  19.051  0.00  0.00    +0.000 F 
ENDBRANCH   5  12
BRANCH   1  16
ATOM     16  S   UNL     1       3.443   2.728  17.713  0.00  0.00    +0.000 S 
BRANCH  16  17
ATOM     17  C   UNL     1       2.182   4.030  17.970  0.00  0.00    +0.000 C 
BRANCH  17  18
ATOM     18  C   UNL     1       1.888   4.185  19.462  0.00  0.00    +0.000 C 
BRANCH  18  20
ATOM     19  O   UNL     1       3.581   5.825  20.001  0.00  0.00    +0.000 OA
ATOM     20  C   UNL     1       2.398   5.509  19.993  0.00  0.00    +0.000 C 
ATOM     21  N   UNL     1       1.393   6.323  20.473  0.00  0.00    +0.000 N 
ATOM     22  H   UNL     1       0.432   6.010  20.431  0.00  0.00    +0.000 HD
BRANCH  21  23
ATOM     23  C   UNL     1       1.644   7.633  21.032  0.00  0.00    +0.000 C 
BRANCH  23  24
ATOM     24  C   UNL     1       1.378   8.659  19.976  0.00  0.00    +0.000 A 
ATOM     25  C   UNL     1       1.820   8.670  18.667  0.00  0.00    +0.000 A 
ATOM     26  C   UNL     1       1.368   9.814  17.949  0.00  0.00    +0.000 A 
ATOM     27  C   UNL     1       0.602  10.646  18.734  0.00  0.00    +0.000 A 
ATOM     28  S   UNL     1       0.430  10.045  20.327  0.00  0.00    +0.000 S 
ENDBRANCH  23  24
ENDBRANCH  21  23
ENDBRANCH  18  20
ENDBRANCH  17  18
ENDBRANCH  16  17
ENDBRANCH   1  16
TORSDOF 8
ENDMDL
MODEL 9
REMARK VINA RESULT:      -7.4      4.525      7.534
REMARK  Name = 
REMARK  8 active torsions:
REMARK  status: ('A' for Active; 'I' for Inactive)
REMARK    1  A    between atoms: C_2  and  C_3
REMARK    2  A    between atoms: C_3  and  C_4
REMARK    3  A    between atoms: C_4  and  S_5
REMARK    4  A    between atoms: S_5  and  C_6
REMARK    5  A    between atoms: C_8  and  C_9
REMARK    6  A    between atoms: C_15  and  C_16
REMARK    7  A    between atoms: N_21  and  C_22
REMARK    8  A    between atoms: C_22  and  C_23
REMARK                            x       y       z     vdW  Elec       q    Type
REMARK                         _______ _______ _______ _____ _____    ______ ____
ROOT
ATOM      1  C   UNL     1       4.695   4.029  17.140  0.00  0.00    +0.000 A 
ATOM      2  N   UNL     1       5.025   3.995  15.845  0.00  0.00    +0.000 NA
ATOM      3  C   UNL     1       6.225   4.507  15.510  0.00  0.00    +0.000 A 
ATOM      4  C   UNL     1       7.084   5.070  16.428  0.00  0.00    +0.000 A 
ATOM      5  C   UNL     1       6.673   5.064  17.745  0.00  0.00    +0.000 A 
ATOM      6  N   UNL     1       5.469   4.549  18.109  0.00  0.00    +0.000 NA
ENDROOT
BRANCH   3   7
ATOM      7  C   UNL     1       6.589   4.345  14.111  0.00  0.00    +0.000 A 
ATOM      8  C   UNL     1       7.486   4.979  13.274  0.00  0.00    +0.000 A 
ATOM      9  C   UNL     1       7.309   4.414  11.987  0.00  0.00    +0.000 A 
ATOM     10  C   UNL     1       6.328   3.460  12.120  0.00  0.00    +0.000 A 
ATOM     11  O   UNL     1       5.890   3.406  13.404  0.00  0.00    +0.000 OA
ENDBRANCH   3   7
BRANCH   5  12
ATOM     12  C   UNL     1       7.614   5.598  18.816  0.00  0.00    +0.000 C 
ATOM     13  F   UNL     1       8.704   4.796  19.016  0.00  0.00    +0.000 F 
ATOM     14  F   UNL     1       8.120   6.828  18.527  0.00  0.00    +0.000 F 
ATOM     15  F   UNL     1       7.021   5.704  20.040  0.00  0.00    +0.000 F 
ENDBRANCH   5  12
BRANCH   1  16
ATOM     16  S   UNL     1       3.164   3.283  17.656  0.00  0.00    +0.000 S 
BRANCH  16  17
ATOM     17  C   UNL     1       3.106   3.794  19.413  0.00  0.00    +0.000 C 
BRANCH  17  18
ATOM     18  C   UNL     1       1.913   4.720  19.648  0.00  0.00    +0.000 C 
BRANCH  18  20
ATOM     19  O   UNL     1       3.336   6.650  19.335  0.00  0.00    +0.000 OA
ATOM     20  C   UNL     1       2.358   6.150  19.876  0.00  0.00    +0.000 C 
ATOM     21  N   UNL     1       1.550   6.833  20.762  0.00  0.00    +0.000 N 
ATOM     22  H   UNL     1       0.750   6.369  21.170  0.00  0.00    +0.000 HD
BRANCH  21  23
ATOM     23  C   UNL     1       1.785   8.211  21.135  0.00  0.00    +0.000 C 
BRANCH  23  24
ATOM     24  C   UNL     1       0.940   9.089  20.267  0.00  0.00    +0.000 A 
ATOM     25  C   UNL     1       1.060   9.314  18.909  0.00  0.00    +0.000 A 
ATOM     26  C   UNL     1       0.074  10.218  18.417  0.00  0.00    +0.000 A 
ATOM     27  C   UNL     1      -0.764  10.660  19.416  0.00  0.00    +0.000 A 
ATOM     28  S   UNL     1      -0.360   9.986  20.936  0.00  0.00    +0.000 S 
ENDBRANCH  23  24
ENDBRANCH  21  23
ENDBRANCH  18  20
ENDBRANCH  17  18
ENDBRANCH  16  17
ENDBRANCH   1  16
TORSDOF 8
ENDMDL
