MODEL 1
REMARK VINA RESULT:      -7.3      0.000      0.000
REMARK  Name = 
REMARK  3 active torsions:
REMARK  status: ('A' for Active; 'I' for Inactive)
REMARK    1  A    between atoms: C_2  and  C_5
REMARK    2  A    between atoms: N_8  and  C_9
REMARK    3  A    between atoms: C_9  and  C_10
REMARK                            x       y       z     vdW  Elec       q    Type
REMARK                         _______ _______ _______ _____ _____    ______ ____
ROOT
ATOM      1  C   UNL     1       1.404   4.078  19.601  0.00  0.00    +0.000 C 
ATOM      2  C   UNL     1       1.395   3.765  18.103  0.00  0.00    +0.000 C 
ATOM      3  C   UNL     1       2.800   3.499  17.566  0.00  0.00    +0.000 C 
ATOM      4  N   UNL     1       3.670   4.660  17.813  0.00  0.00    +0.000 NA
ATOM      5  C   UNL     1       3.776   4.955  19.248  0.00  0.00    +0.000 C 
ATOM      6  C   UNL     1       2.399   5.217  19.870  0.00  0.00    +0.000 C 
ENDROOT
BRANCH   1   8
ATOM      7  F   UNL     1       2.968   2.750  20.849  0.00  0.00    +0.000 F 
ATOM      8  C   UNL     1       1.679   2.840  20.457  0.00  0.00    +0.000 C 
ATOM      9  F   UNL     1       1.409   1.719  19.744  0.00  0.00    +0.000 F 
ATOM     10  F   UNL     1       0.914   2.789  21.568  0.00  0.00    +0.000 F 
ENDBRANCH   1   8
BRANCH   4  11
ATOM     11  C   UNL     1       5.024   4.424  17.245  0.00  0.00    +0.000 C 
BRANCH  11  12
ATOM     12  C   UNL     1       6.086   5.391  17.755  0.00  0.00    +0.000 A 
ATOM     13  C   UNL     1       6.254   6.632  17.142  0.00  0.00    +0.000 A 
ATOM     14  C   UNL     1       7.301   7.451  17.562  0.00  0.00    +0.000 A 
ATOM     15  C   UNL     1       8.137   7.016  18.580  0.00  0.00    +0.000 A 
ATOM     16  C   UNL     1       7.888   5.780  19.150  0.00  0.00    +0.000 A 
ATOM     17  N   UNL     1       6.887   4.959  18.760  0.00  0.00    +0.000 NA
ENDBRANCH  11  12
ENDBRANCH   4  11
TORSDOF 3
ENDMDL
MODEL 2
REMARK VINA RESULT:      -7.3      3.279      5.903
REMARK  Name = 
REMARK  3 active torsions:
REMARK  status: ('A' for Active; 'I' for Inactive)
REMARK    1  A    between atoms: C_2  and  C_5
REMARK    2  A    between atoms: N_8  and  C_9
REMARK    3  A    between atoms: C_9  and  C_10
REMARK                            x       y       z     vdW  Elec       q    Type
REMARK                         _______ _______ _______ _____ _____    ______ ____
ROOT
ATOM      1  C   UNL     1       5.722   6.484  16.666  0.00  0.00    +0.000 C 
ATOM      2  C   UNL     1       4.560   6.479  17.663  0.00  0.00    +0.000 C 
ATOM      3  C   UNL     1       4.316   5.088  18.247  0.00  0.00    +0.000 C 
ATOM      4  N   UNL     1       4.036   4.124  17.172  0.00  0.00    +0.000 NA
ATOM      5  C   UNL     1       5.157   4.033  16.227  0.00  0.00    +0.000 C 
ATOM      6  C   UNL     1       5.480   5.399  15.607  0.00  0.00    +0.000 C 
ENDROOT
BRANCH   1   8
ATOM      7  F   UNL     1       6.998   6.392  18.697  0.00  0.00    +0.000 F 
ATOM      8  C   UNL     1       7.084   6.348  17.351  0.00  0.00    +0.000 C 
ATOM      9  F   UNL     1       7.890   7.373  16.977  0.00  0.00    +0.000 F 
ATOM     10  F   UNL     1       7.725   5.207  17.022  0.00  0.00    +0.000 F 
ENDBRANCH   1   8
BRANCH   4  11
ATOM     11  C   UNL     1       3.747   2.781  17.741  0.00  0.00    +0.000 C 
BRANCH  11  12
ATOM     12  C   UNL     1       2.866   2.811  18.984  0.00  0.00    +0.000 A 
ATOM     13  C   UNL     1       1.525   3.178  18.882  0.00  0.00    +0.000 A 
ATOM     14  C   UNL     1       0.772   3.297  20.049  0.00  0.00    +0.000 A 
ATOM     15  C   UNL     1       1.372   3.039  21.274  0.00  0.00    +0.000 A 
ATOM     16  C   UNL     1       2.702   2.658  21.285  0.00  0.00    +0.000 A 
ATOM     17  N   UNL     1       3.461   2.543  20.173  0.00  0.00    +0.000 NA
ENDBRANCH  11  12
ENDBRANCH   4  11
TORSDOF 3
ENDMDL
MODEL 3
REMARK VINA RESULT:      -7.2      0.593      1.153
REMARK  Name = 
REMARK  3 active torsions:
REMARK  status: ('A' for Active; 'I' for Inactive)
REMARK    1  A    between atoms: C_2  and  C_5
REMARK    2  A    between atoms: N_8  and  C_9
REMARK    3  A    between atoms: C_9  and  C_10
REMARK                            x       y       z     vdW  Elec       q    Type
REMARK                         _______ _______ _______ _____ _____    ______ ____
ROOT
ATOM      1  C   UNL     1       1.250   4.150  19.319  0.00  0.00    +0.000 C 
ATOM      2  C   UNL     1       1.485   4.241  17.809  0.00  0.00    +0.000 C 
ATOM      3  C   UNL     1       2.913   3.850  17.429  0.00  0.00    +0.000 C 
ATOM      4  N   UNL     1       3.882   4.712  18.124  0.00  0.00    +0.000 NA
ATOM      5  C   UNL     1       3.749   4.600  19.583  0.00  0.00    +0.000 C 
ATOM      6  C   UNL     1       2.332   4.961  20.047  0.00  0.00    +0.000 C 
ENDROOT
BRANCH   1   8
ATOM      7  F   UNL     1       0.287   1.961  19.104  0.00  0.00    +0.000 F 
ATOM      8  C   UNL     1       1.164   2.704  19.813  0.00  0.00    +0.000 C 
ATOM      9  F   UNL     1       0.742   2.682  21.101  0.00  0.00    +0.000 F 
ATOM     10  F   UNL     1       2.353   2.067  19.780  0.00  0.00    +0.000 F 
ENDBRANCH   1   8
BRANCH   4  11
ATOM     11  C   UNL     1       5.269   4.367  17.716  0.00  0.00    +0.000 C 
BRANCH  11  12
ATOM     12  C   UNL     1       6.293   5.453  18.021  0.00  0.00    +0.000 A 
ATOM     13  C   UNL     1       6.351   6.601  17.233  0.00  0.00    +0.000 A 
ATOM     14  C   UNL     1       7.364   7.528  17.471  0.00  0.00    +0.000 A 
ATOM     15  C   UNL     1       8.278   7.289  18.488  0.00  0.00    +0.000 A 
ATOM     16  C   UNL     1       8.137   6.136  19.239  0.00  0.00    +0.000 A 
ATOM     17  N   UNL     1       7.171   5.214  19.027  0.00  0.00    +0.000 NA
ENDBRANCH  11  12
ENDBRANCH   4  11
TORSDOF 3
ENDMDL
MODEL 4
REMARK VINA RESULT:      -7.2      1.283      1.999
REMARK  Name = 
REMARK  3 active torsions:
REMARK  status: ('A' for Active; 'I' for Inactive)
REMARK    1  A    between atoms: C_2  and  C_5
REMARK    2  A    between atoms: N_8  and  C_9
REMARK    3  A    between atoms: C_9  and  C_10
REMARK                            x       y       z     vdW  Elec       q    Type
REMARK                         _______ _______ _______ _____ _____    ______ ____
ROOT
ATOM      1  C   UNL     1       2.261   2.516  19.663  0.00  0.00    +0.000 C 
ATOM      2  C   UNL     1       3.195   3.589  20.231  0.00  0.00    +0.000 C 
ATOM      3  C   UNL     1       3.820   4.443  19.129  0.00  0.00    +0.000 C 
ATOM      4  N   UNL     1       4.570   3.596  18.188  0.00  0.00    +0.000 NA
ATOM      5  C   UNL     1       3.699   2.597  17.555  0.00  0.00    +0.000 C 
ATOM      6  C   UNL     1       3.016   1.705  18.599  0.00  0.00    +0.000 C 
ENDROOT
BRANCH   1   8
ATOM      7  F   UNL     1       0.267   3.787  20.081  0.00  0.00    +0.000 F 
ATOM      8  C   UNL     1       0.947   3.101  19.138  0.00  0.00    +0.000 C 
ATOM      9  F   UNL     1       0.134   2.100  18.721  0.00  0.00    +0.000 F 
ATOM     10  F   UNL     1       1.124   3.926  18.085  0.00  0.00    +0.000 F 
ENDBRANCH   1   8
BRANCH   4  11
ATOM     11  C   UNL     1       5.222   4.430  17.145  0.00  0.00    +0.000 C 
BRANCH  11  12
ATOM     12  C   UNL     1       6.236   5.428  17.693  0.00  0.00    +0.000 A 
ATOM     13  C   UNL     1       6.384   6.676  17.091  0.00  0.00    +0.000 A 
ATOM     14  C   UNL     1       7.390   7.526  17.549  0.00  0.00    +0.000 A 
ATOM     15  C   UNL     1       8.205   7.113  18.592  0.00  0.00    +0.000 A 
ATOM     16  C   UNL     1       7.977   5.866  19.149  0.00  0.00    +0.000 A 
ATOM     17  N   UNL     1       7.017   5.016  18.723  0.00  0.00    +0.000 NA
ENDBRANCH  11  12
ENDBRANCH   4  11
TORSDOF 3
ENDMDL
MODEL 5
REMARK VINA RESULT:      -7.1      3.363      6.072
REMARK  Name = 
REMARK  3 active torsions:
REMARK  status: ('A' for Active; 'I' for Inactive)
REMARK    1  A    between atoms: C_2  and  C_5
REMARK    2  A    between atoms: N_8  and  C_9
REMARK    3  A    between atoms: C_9  and  C_10
REMARK                            x       y       z     vdW  Elec       q    Type
REMARK                         _______ _______ _______ _____ _____    ______ ____
ROOT
ATOM      1  C   UNL     1       7.671   5.680  18.331  0.00  0.00    +0.000 C 
ATOM      2  C   UNL     1       7.479   4.522  17.348  0.00  0.00    +0.000 C 
ATOM      3  C   UNL     1       6.010   4.327  16.975  0.00  0.00    +0.000 C 
ATOM      4  N   UNL     1       5.205   4.078  18.181  0.00  0.00    +0.000 NA
ATOM      5  C   UNL     1       5.293   5.200  19.126  0.00  0.00    +0.000 C 
ATOM      6  C   UNL     1       6.745   5.473  19.538  0.00  0.00    +0.000 C 
ENDROOT
BRANCH   1   8
ATOM      7  F   UNL     1       8.085   8.045  18.353  0.00  0.00    +0.000 F 
ATOM      8  C   UNL     1       7.483   7.048  17.670  0.00  0.00    +0.000 C 
ATOM      9  F   UNL     1       6.163   7.354  17.614  0.00  0.00    +0.000 F 
ATOM     10  F   UNL     1       7.947   7.087  16.403  0.00  0.00    +0.000 F 
ENDBRANCH   1   8
BRANCH   4  11
ATOM     11  C   UNL     1       3.784   3.837  17.816  0.00  0.00    +0.000 C 
BRANCH  11  12
ATOM     12  C   UNL     1       2.871   3.586  19.011  0.00  0.00    +0.000 A 
ATOM     13  C   UNL     1       1.734   4.369  19.198  0.00  0.00    +0.000 A 
ATOM     14  C   UNL     1       0.976   4.185  20.353  0.00  0.00    +0.000 A 
ATOM     15  C   UNL     1       1.367   3.226  21.276  0.00  0.00    +0.000 A 
ATOM     16  C   UNL     1       2.497   2.476  21.004  0.00  0.00    +0.000 A 
ATOM     17  N   UNL     1       3.258   2.636  19.898  0.00  0.00    +0.000 NA
ENDBRANCH  11  12
ENDBRANCH   4  11
TORSDOF 3
ENDMDL
MODEL 6
REMARK VINA RESULT:      -7.1      1.697      2.548
REMARK  Name = 
REMARK  3 active torsions:
REMARK  status: ('A' for Active; 'I' for Inactive)
REMARK    1  A    between atoms: C_2  and  C_5
REMARK    2  A    between atoms: N_8  and  C_9
REMARK    3  A    between atoms: C_9  and  C_10
REMARK                            x       y       z     vdW  Elec       q    Type
REMARK                         _______ _______ _______ _____ _____    ______ ____
ROOT
ATOM      1  C   UNL     1       1.901   2.284  20.080  0.00  0.00    +0.000 C 
ATOM      2  C   UNL     1       3.408   2.342  19.810  0.00  0.00    +0.000 C 
ATOM      3  C   UNL     1       3.837   3.698  19.252  0.00  0.00    +0.000 C 
ATOM      4  N   UNL     1       3.110   3.992  18.007  0.00  0.00    +0.000 NA
ATOM      5  C   UNL     1       1.658   4.027  18.229  0.00  0.00    +0.000 C 
ATOM      6  C   UNL     1       1.147   2.701  18.809  0.00  0.00    +0.000 C 
ENDROOT
BRANCH   1   8
ATOM      7  F   UNL     1       0.792   4.213  20.982  0.00  0.00    +0.000 F 
ATOM      8  C   UNL     1       1.493   3.106  21.305  0.00  0.00    +0.000 C 
ATOM      9  F   UNL     1       2.600   3.525  21.967  0.00  0.00    +0.000 F 
ATOM     10  F   UNL     1       0.754   2.401  22.187  0.00  0.00    +0.000 F 
ENDBRANCH   1   8
BRANCH   4  11
ATOM     11  C   UNL     1       3.563   5.287  17.435  0.00  0.00    +0.000 C 
BRANCH  11  12
ATOM     12  C   UNL     1       4.882   5.202  16.676  0.00  0.00    +0.000 A 
ATOM     13  C   UNL     1       5.005   4.347  15.582  0.00  0.00    +0.000 A 
ATOM     14  C   UNL     1       6.252   4.214  14.973  0.00  0.00    +0.000 A 
ATOM     15  C   UNL     1       7.329   4.938  15.464  0.00  0.00    +0.000 A 
ATOM     16  C   UNL     1       7.116   5.781  16.540  0.00  0.00    +0.000 A 
ATOM     17  N   UNL     1       5.922   5.927  17.158  0.00  0.00    +0.000 NA
ENDBRANCH  11  12
ENDBRANCH   4  11
TORSDOF 3
ENDMDL
MODEL 7
REMARK VINA RESULT:      -7.1      1.451      2.292
REMARK  Name = 
REMARK  3 active torsions:
REMARK  status: ('A' for Active; 'I' for Inactive)
REMARK    1  A    between atoms: C_2  and  C_5
REMARK    2  A    between atoms: N_8  and  C_9
REMARK    3  A    between atoms: C_9  and  C_10
REMARK                            x       y       z     vdW  Elec       q    Type
REMARK                         _______ _______ _______ _____ _____    ______ ____
ROOT
ATOM      1  C   UNL     1       2.424   2.413  19.376  0.00  0.00    +0.000 C 
ATOM      2  C   UNL     1       3.174   3.541  20.091  0.00  0.00    +0.000 C 
ATOM      3  C   UNL     1       3.547   4.673  19.135  0.00  0.00    +0.000 C 
ATOM      4  N   UNL     1       4.378   4.161  18.034  0.00  0.00    +0.000 NA
ATOM      5  C   UNL     1       3.671   3.127  17.266  0.00  0.00    +0.000 C 
ATOM      6  C   UNL     1       3.244   1.956  18.161  0.00  0.00    +0.000 C 
ENDROOT
BRANCH   1   8
ATOM      7  F   UNL     1       0.255   1.752  18.589  0.00  0.00    +0.000 F 
ATOM      8  C   UNL     1       0.990   2.803  19.010  0.00  0.00    +0.000 C 
ATOM      9  F   UNL     1       1.003   3.702  17.995  0.00  0.00    +0.000 F 
ATOM     10  F   UNL     1       0.325   3.379  20.034  0.00  0.00    +0.000 F 
ENDBRANCH   1   8
BRANCH   4  11
ATOM     11  C   UNL     1       4.785   5.269  17.131  0.00  0.00    +0.000 C 
BRANCH  11  12
ATOM     12  C   UNL     1       6.061   5.983  17.563  0.00  0.00    +0.000 A 
ATOM     13  C   UNL     1       6.851   5.450  18.580  0.00  0.00    +0.000 A 
ATOM     14  C   UNL     1       7.954   6.177  19.023  0.00  0.00    +0.000 A 
ATOM     15  C   UNL     1       8.241   7.402  18.436  0.00  0.00    +0.000 A 
ATOM     16  C   UNL     1       7.418   7.849  17.417  0.00  0.00    +0.000 A 
ATOM     17  N   UNL     1       6.337   7.172  16.971  0.00  0.00    +0.000 NA
ENDBRANCH  11  12
ENDBRANCH   4  11
TORSDOF 3
ENDMDL
MODEL 8
REMARK VINA RESULT:      -7.1      1.975      2.745
REMARK  Name = 
REMARK  3 active torsions:
REMARK  status: ('A' for Active; 'I' for Inactive)
REMARK    1  A    between atoms: C_2  and  C_5
REMARK    2  A    between atoms: N_8  and  C_9
REMARK    3  A    between atoms: C_9  and  C_10
REMARK                            x       y       z     vdW  Elec       q    Type
REMARK                         _______ _______ _______ _____ _____    ______ ____
ROOT
ATOM      1  C   UNL     1       1.469   2.939  19.332  0.00  0.00    +0.000 C 
ATOM      2  C   UNL     1       2.658   1.988  19.161  0.00  0.00    +0.000 C 
ATOM      3  C   UNL     1       3.987   2.740  19.117  0.00  0.00    +0.000 C 
ATOM      4  N   UNL     1       3.986   3.717  18.016  0.00  0.00    +0.000 NA
ATOM      5  C   UNL     1       2.908   4.703  18.176  0.00  0.00    +0.000 C 
ATOM      6  C   UNL     1       1.534   4.024  18.248  0.00  0.00    +0.000 C 
ENDROOT
BRANCH   1   8
ATOM      7  F   UNL     1       0.777   2.684  21.616  0.00  0.00    +0.000 F 
ATOM      8  C   UNL     1       1.381   3.519  20.745  0.00  0.00    +0.000 C 
ATOM      9  F   UNL     1       0.650   4.661  20.728  0.00  0.00    +0.000 F 
ATOM     10  F   UNL     1       2.588   3.836  21.259  0.00  0.00    +0.000 F 
ENDBRANCH   1   8
BRANCH   4  11
ATOM     11  C   UNL     1       5.297   4.413  17.939  0.00  0.00    +0.000 C 
BRANCH  11  12
ATOM     12  C   UNL     1       5.838   4.560  16.521  0.00  0.00    +0.000 A 
ATOM     13  C   UNL     1       5.063   4.163  15.432  0.00  0.00    +0.000 A 
ATOM     14  C   UNL     1       5.624   4.213  14.157  0.00  0.00    +0.000 A 
ATOM     15  C   UNL     1       6.928   4.663  14.006  0.00  0.00    +0.000 A 
ATOM     16  C   UNL     1       7.620   5.059  15.136  0.00  0.00    +0.000 A 
ATOM     17  N   UNL     1       7.109   5.015  16.386  0.00  0.00    +0.000 NA
ENDBRANCH  11  12
ENDBRANCH   4  11
TORSDOF 3
ENDMDL
MODEL 9
REMARK VINA RESULT:      -7.0      1.748      2.122
REMARK  Name = 
REMARK  3 active torsions:
REMARK  status: ('A' for Active; 'I' for Inactive)
REMARK    1  A    between atoms: C_2  and  C_5
REMARK    2  A    between atoms: N_8  and  C_9
REMARK    3  A    between atoms: C_9  and  C_10
REMARK                            x       y       z     vdW  Elec       q    Type
REMARK                         _______ _______ _______ _____ _____    ______ ____
ROOT
ATOM      1  C   UNL     1       1.505   3.113  20.240  0.00  0.00    +0.000 C 
ATOM      2  C   UNL     1       2.517   2.550  19.237  0.00  0.00    +0.000 C 
ATOM      3  C   UNL     1       3.799   3.380  19.193  0.00  0.00    +0.000 C 
ATOM      4  N   UNL     1       3.493   4.776  18.842  0.00  0.00    +0.000 NA
ATOM      5  C   UNL     1       2.584   5.388  19.821  0.00  0.00    +0.000 C 
ATOM      6  C   UNL     1       1.273   4.600  19.939  0.00  0.00    +0.000 C 
ENDROOT
BRANCH   1   8
ATOM      7  F   UNL     1       2.343   3.980  22.316  0.00  0.00    +0.000 F 
ATOM      8  C   UNL     1       1.918   2.861  21.692  0.00  0.00    +0.000 C 
ATOM      9  F   UNL     1       2.945   1.977  21.731  0.00  0.00    +0.000 F 
ATOM     10  F   UNL     1       0.922   2.336  22.437  0.00  0.00    +0.000 F 
ENDBRANCH   1   8
BRANCH   4  11
ATOM     11  C   UNL     1       4.743   5.574  18.748  0.00  0.00    +0.000 C 
BRANCH  11  12
ATOM     12  C   UNL     1       5.534   5.338  17.467  0.00  0.00    +0.000 A 
ATOM     13  C   UNL     1       4.971   5.648  16.230  0.00  0.00    +0.000 A 
ATOM     14  C   UNL     1       5.676   5.325  15.072  0.00  0.00    +0.000 A 
ATOM     15  C   UNL     1       6.918   4.716  15.181  0.00  0.00    +0.000 A 
ATOM     16  C   UNL     1       7.416   4.463  16.447  0.00  0.00    +0.000 A 
ATOM     17  N   UNL     1       6.753   4.756  17.589  0.00  0.00    +0.000 NA
ENDBRANCH  11  12
ENDBRANCH   4  11
TORSDOF 3
ENDMDL
