MODEL 1
REMARK VINA RESULT:      -7.6      0.000      0.000
REMARK  Name = 
REMARK  2 active torsions:
REMARK  status: ('A' for Active; 'I' for Inactive)
REMARK    1  A    between atoms: C_2  and  C_3
REMARK    2  A    between atoms: C_16  and  O_17
REMARK                            x       y       z     vdW  Elec       q    Type
REMARK                         _______ _______ _______ _____ _____    ______ ____
ROOT
ATOM      1  C   UNL     1       5.340   4.662  16.361  0.00  0.00    +0.000 A 
ATOM      2  C   UNL     1       4.736   5.825  16.846  0.00  0.00    +0.000 A 
ATOM      3  C   UNL     1       3.532   5.761  17.545  0.00  0.00    +0.000 A 
ATOM      4  C   UNL     1       2.958   4.523  17.854  0.00  0.00    +0.000 A 
ATOM      5  C   UNL     1       1.757   4.451  18.576  0.00  0.00    +0.000 A 
ATOM      6  C   UNL     1       1.218   3.218  18.933  0.00  0.00    +0.000 A 
ATOM      7  C   UNL     1       1.869   2.043  18.566  0.00  0.00    +0.000 A 
ATOM      8  C   UNL     1       3.053   2.099  17.825  0.00  0.00    +0.000 A 
ATOM      9  C   UNL     1       3.610   3.333  17.454  0.00  0.00    +0.000 A 
ATOM     10  C   UNL     1       4.795   3.417  16.699  0.00  0.00    +0.000 A 
ENDROOT
BRANCH   1  12
ATOM     11  O   UNL     1       7.652   4.898  16.057  0.00  0.00    +0.000 OA
ATOM     12  C   UNL     1       6.565   4.705  15.515  0.00  0.00    +0.000 C 
ATOM     13  N   UNL     1       6.455   4.483  14.146  0.00  0.00    +0.000 N 
ATOM     14  C   UNL     1       7.636   4.499  13.294  0.00  0.00    +0.000 C 
ATOM     15  C   UNL     1       7.096   4.362  11.876  0.00  0.00    +0.000 C 
ATOM     16  C   UNL     1       5.831   3.532  12.067  0.00  0.00    +0.000 C 
ATOM     17  C   UNL     1       5.277   4.057  13.390  0.00  0.00    +0.000 C 
BRANCH  16  18
ATOM     18  O   UNL     1       6.152   2.147  12.159  0.00  0.00    +0.000 OA
ATOM     19  H   UNL     1       7.103   2.046  11.970  0.00  0.00    +0.000 HD
ENDBRANCH  16  18
ENDBRANCH   1  12
TORSDOF 2
ENDMDL
MODEL 2
REMARK VINA RESULT:      -7.5      3.492      6.657
REMARK  Name = 
REMARK  2 active torsions:
REMARK  status: ('A' for Active; 'I' for Inactive)
REMARK    1  A    between atoms: C_2  and  C_3
REMARK    2  A    between atoms: C_16  and  O_17
REMARK                            x       y       z     vdW  Elec       q    Type
REMARK                         _______ _______ _______ _____ _____    ______ ____
ROOT
ATOM      1  C   UNL     1       4.531   4.192  17.819  0.00  0.00    +0.000 A 
ATOM      2  C   UNL     1       4.329   4.992  16.692  0.00  0.00    +0.000 A 
ATOM      3  C   UNL     1       5.113   6.125  16.476  0.00  0.00    +0.000 A 
ATOM      4  C   UNL     1       6.176   6.425  17.334  0.00  0.00    +0.000 A 
ATOM      5  C   UNL     1       6.981   7.551  17.110  0.00  0.00    +0.000 A 
ATOM      6  C   UNL     1       8.074   7.815  17.932  0.00  0.00    +0.000 A 
ATOM      7  C   UNL     1       8.369   6.960  18.991  0.00  0.00    +0.000 A 
ATOM      8  C   UNL     1       7.561   5.849  19.242  0.00  0.00    +0.000 A 
ATOM      9  C   UNL     1       6.453   5.568  18.426  0.00  0.00    +0.000 A 
ATOM     10  C   UNL     1       5.616   4.460  18.663  0.00  0.00    +0.000 A 
ENDROOT
BRANCH   1  12
ATOM     11  O   UNL     1       3.852   1.960  17.593  0.00  0.00    +0.000 OA
ATOM     12  C   UNL     1       3.640   3.042  18.138  0.00  0.00    +0.000 C 
ATOM     13  N   UNL     1       2.623   3.207  19.074  0.00  0.00    +0.000 N 
ATOM     14  C   UNL     1       1.747   2.098  19.422  0.00  0.00    +0.000 C 
ATOM     15  C   UNL     1       0.701   2.703  20.349  0.00  0.00    +0.000 C 
ATOM     16  C   UNL     1       1.464   3.824  21.046  0.00  0.00    +0.000 C 
ATOM     17  C   UNL     1       2.367   4.360  19.937  0.00  0.00    +0.000 C 
BRANCH  16  18
ATOM     18  O   UNL     1       2.232   3.307  22.129  0.00  0.00    +0.000 OA
ATOM     19  H   UNL     1       1.754   2.542  22.498  0.00  0.00    +0.000 HD
ENDBRANCH  16  18
ENDBRANCH   1  12
TORSDOF 2
ENDMDL
MODEL 3
REMARK VINA RESULT:      -7.3      4.315      6.213
REMARK  Name = 
REMARK  2 active torsions:
REMARK  status: ('A' for Active; 'I' for Inactive)
REMARK    1  A    between atoms: C_2  and  C_3
REMARK    2  A    between atoms: C_16  and  O_17
REMARK                            x       y       z     vdW  Elec       q    Type
REMARK                         _______ _______ _______ _____ _____    ______ ____
ROOT
ATOM      1  C   UNL     1       2.979   6.751  18.936  0.00  0.00    +0.000 A 
ATOM      2  C   UNL     1       2.960   7.595  17.823  0.00  0.00    +0.000 A 
ATOM      3  C   UNL     1       2.121   8.708  17.791  0.00  0.00    +0.000 A 
ATOM      4  C   UNL     1       1.354   9.050  18.910  0.00  0.00    +0.000 A 
ATOM      5  C   UNL     1       0.524  10.180  18.891  0.00  0.00    +0.000 A 
ATOM      6  C   UNL     1      -0.193  10.552  20.025  0.00  0.00    +0.000 A 
ATOM      7  C   UNL     1      -0.094   9.793  21.188  0.00  0.00    +0.000 A 
ATOM      8  C   UNL     1       0.709   8.650  21.214  0.00  0.00    +0.000 A 
ATOM      9  C   UNL     1       1.437   8.259  20.080  0.00  0.00    +0.000 A 
ATOM     10  C   UNL     1       2.246   7.105  20.076  0.00  0.00    +0.000 A 
ENDROOT
BRANCH   1  12
ATOM     11  O   UNL     1       4.937   5.537  19.364  0.00  0.00    +0.000 OA
ATOM     12  C   UNL     1       3.777   5.494  18.958  0.00  0.00    +0.000 C 
ATOM     13  N   UNL     1       3.181   4.301  18.563  0.00  0.00    +0.000 N 
ATOM     14  C   UNL     1       3.928   3.052  18.590  0.00  0.00    +0.000 C 
ATOM     15  C   UNL     1       2.994   2.024  17.963  0.00  0.00    +0.000 C 
ATOM     16  C   UNL     1       1.611   2.540  18.338  0.00  0.00    +0.000 C 
ATOM     17  C   UNL     1       1.775   4.055  18.240  0.00  0.00    +0.000 C 
BRANCH  16  18
ATOM     18  O   UNL     1       1.273   2.146  19.665  0.00  0.00    +0.000 OA
ATOM     19  H   UNL     1       0.392   2.509  19.871  0.00  0.00    +0.000 HD
ENDBRANCH  16  18
ENDBRANCH   1  12
TORSDOF 2
ENDMDL
MODEL 4
REMARK VINA RESULT:      -7.2      3.365      5.336
REMARK  Name = 
REMARK  2 active torsions:
REMARK  status: ('A' for Active; 'I' for Inactive)
REMARK    1  A    between atoms: C_2  and  C_3
REMARK    2  A    between atoms: C_16  and  O_17
REMARK                            x       y       z     vdW  Elec       q    Type
REMARK                         _______ _______ _______ _____ _____    ______ ____
ROOT
ATOM      1  C   UNL     1       3.097   6.054  18.463  0.00  0.00    +0.000 A 
ATOM      2  C   UNL     1       2.614   5.786  19.746  0.00  0.00    +0.000 A 
ATOM      3  C   UNL     1       1.948   6.772  20.473  0.00  0.00    +0.000 A 
ATOM      4  C   UNL     1       1.670   8.014  19.893  0.00  0.00    +0.000 A 
ATOM      5  C   UNL     1       0.982   9.002  20.612  0.00  0.00    +0.000 A 
ATOM      6  C   UNL     1       0.656  10.216  20.013  0.00  0.00    +0.000 A 
ATOM      7  C   UNL     1       1.021  10.459  18.691  0.00  0.00    +0.000 A 
ATOM      8  C   UNL     1       1.728   9.494  17.971  0.00  0.00    +0.000 A 
ATOM      9  C   UNL     1       2.068   8.265  18.559  0.00  0.00    +0.000 A 
ATOM     10  C   UNL     1       2.791   7.279  17.858  0.00  0.00    +0.000 A 
ENDROOT
BRANCH   1  12
ATOM     11  O   UNL     1       3.328   4.213  17.031  0.00  0.00    +0.000 OA
ATOM     12  C   UNL     1       3.909   5.062  17.704  0.00  0.00    +0.000 C 
ATOM     13  N   UNL     1       5.297   5.148  17.742  0.00  0.00    +0.000 N 
ATOM     14  C   UNL     1       6.120   4.205  16.997  0.00  0.00    +0.000 C 
ATOM     15  C   UNL     1       7.552   4.534  17.400  0.00  0.00    +0.000 C 
ATOM     16  C   UNL     1       7.496   6.029  17.686  0.00  0.00    +0.000 C 
ATOM     17  C   UNL     1       6.124   6.201  18.333  0.00  0.00    +0.000 C 
BRANCH  16  18
ATOM     18  O   UNL     1       7.588   6.774  16.474  0.00  0.00    +0.000 OA
ATOM     19  H   UNL     1       8.335   6.416  15.959  0.00  0.00    +0.000 HD
ENDBRANCH  16  18
ENDBRANCH   1  12
TORSDOF 2
ENDMDL
MODEL 5
REMARK VINA RESULT:      -7.2      3.593      5.339
REMARK  Name = 
REMARK  2 active torsions:
REMARK  status: ('A' for Active; 'I' for Inactive)
REMARK    1  A    between atoms: C_2  and  C_3
REMARK    2  A    between atoms: C_16  and  O_17
REMARK                            x       y       z     vdW  Elec       q    Type
REMARK                         _______ _______ _______ _____ _____    ______ ____
ROOT
ATOM      1  C   UNL     1       3.039   6.666  18.265  0.00  0.00    +0.000 A 
ATOM      2  C   UNL     1       2.910   7.776  17.426  0.00  0.00    +0.000 A 
ATOM      3  C   UNL     1       2.135   8.870  17.810  0.00  0.00    +0.000 A 
ATOM      4  C   UNL     1       1.553   8.914  19.080  0.00  0.00    +0.000 A 
ATOM      5  C   UNL     1       0.790  10.021  19.480  0.00  0.00    +0.000 A 
ATOM      6  C   UNL     1       0.260  10.088  20.766  0.00  0.00    +0.000 A 
ATOM      7  C   UNL     1       0.480   9.046  21.663  0.00  0.00    +0.000 A 
ATOM      8  C   UNL     1       1.216   7.926  21.271  0.00  0.00    +0.000 A 
ATOM      9  C   UNL     1       1.756   7.839  19.978  0.00  0.00    +0.000 A 
ATOM     10  C   UNL     1       2.493   6.716  19.554  0.00  0.00    +0.000 A 
ENDROOT
BRANCH   1  12
ATOM     11  O   UNL     1       3.112   4.465  17.463  0.00  0.00    +0.000 OA
ATOM     12  C   UNL     1       3.764   5.437  17.840  0.00  0.00    +0.000 C 
ATOM     13  N   UNL     1       5.156   5.434  17.837  0.00  0.00    +0.000 N 
ATOM     14  C   UNL     1       5.895   4.255  17.410  0.00  0.00    +0.000 C 
ATOM     15  C   UNL     1       7.356   4.590  17.681  0.00  0.00    +0.000 C 
ATOM     16  C   UNL     1       7.403   6.102  17.496  0.00  0.00    +0.000 C 
ATOM     17  C   UNL     1       6.064   6.557  18.071  0.00  0.00    +0.000 C 
BRANCH  16  18
ATOM     18  O   UNL     1       7.507   6.434  16.114  0.00  0.00    +0.000 OA
ATOM     19  H   UNL     1       7.984   5.710  15.667  0.00  0.00    +0.000 HD
ENDBRANCH  16  18
ENDBRANCH   1  12
TORSDOF 2
ENDMDL
MODEL 6
REMARK VINA RESULT:      -7.1      1.560      1.892
REMARK  Name = 
REMARK  2 active torsions:
REMARK  status: ('A' for Active; 'I' for Inactive)
REMARK    1  A    between atoms: C_2  and  C_3
REMARK    2  A    between atoms: C_16  and  O_17
REMARK                            x       y       z     vdW  Elec       q    Type
REMARK                         _______ _______ _______ _____ _____    ______ ____
ROOT
ATOM      1  C   UNL     1       5.058   4.476  18.314  0.00  0.00    +0.000 A 
ATOM      2  C   UNL     1       4.663   5.395  19.290  0.00  0.00    +0.000 A 
ATOM      3  C   UNL     1       3.393   5.322  19.860  0.00  0.00    +0.000 A 
ATOM      4  C   UNL     1       2.528   4.273  19.533  0.00  0.00    +0.000 A 
ATOM      5  C   UNL     1       1.257   4.183  20.119  0.00  0.00    +0.000 A 
ATOM      6  C   UNL     1       0.422   3.105  19.836  0.00  0.00    +0.000 A 
ATOM      7  C   UNL     1       0.844   2.110  18.958  0.00  0.00    +0.000 A 
ATOM      8  C   UNL     1       2.097   2.200  18.347  0.00  0.00    +0.000 A 
ATOM      9  C   UNL     1       2.953   3.279  18.618  0.00  0.00    +0.000 A 
ATOM     10  C   UNL     1       4.216   3.399  18.008  0.00  0.00    +0.000 A 
ENDROOT
BRANCH   1  12
ATOM     11  O   UNL     1       7.400   4.525  18.260  0.00  0.00    +0.000 OA
ATOM     12  C   UNL     1       6.362   4.592  17.604  0.00  0.00    +0.000 C 
ATOM     13  N   UNL     1       6.375   4.729  16.220  0.00  0.00    +0.000 N 
ATOM     14  C   UNL     1       7.634   4.826  15.495  0.00  0.00    +0.000 C 
ATOM     15  C   UNL     1       7.232   5.103  14.051  0.00  0.00    +0.000 C 
ATOM     16  C   UNL     1       5.888   4.395  13.925  0.00  0.00    +0.000 C 
ATOM     17  C   UNL     1       5.248   4.635  15.291  0.00  0.00    +0.000 C 
BRANCH  16  18
ATOM     18  O   UNL     1       6.076   3.004  13.683  0.00  0.00    +0.000 OA
ATOM     19  H   UNL     1       6.973   2.766  13.982  0.00  0.00    +0.000 HD
ENDBRANCH  16  18
ENDBRANCH   1  12
TORSDOF 2
ENDMDL
MODEL 7
REMARK VINA RESULT:      -7.1      4.634      7.203
REMARK  Name = 
REMARK  2 active torsions:
REMARK  status: ('A' for Active; 'I' for Inactive)
REMARK    1  A    between atoms: C_2  and  C_3
REMARK    2  A    between atoms: C_16  and  O_17
REMARK                            x       y       z     vdW  Elec       q    Type
REMARK                         _______ _______ _______ _____ _____    ______ ____
ROOT
ATOM      1  C   UNL     1       2.551   7.201  18.067  0.00  0.00    +0.000 A 
ATOM      2  C   UNL     1       3.896   7.103  17.703  0.00  0.00    +0.000 A 
ATOM      3  C   UNL     1       4.509   5.857  17.577  0.00  0.00    +0.000 A 
ATOM      4  C   UNL     1       3.762   4.683  17.719  0.00  0.00    +0.000 A 
ATOM      5  C   UNL     1       4.367   3.427  17.572  0.00  0.00    +0.000 A 
ATOM      6  C   UNL     1       3.610   2.261  17.655  0.00  0.00    +0.000 A 
ATOM      7  C   UNL     1       2.240   2.338  17.895  0.00  0.00    +0.000 A 
ATOM      8  C   UNL     1       1.628   3.582  18.069  0.00  0.00    +0.000 A 
ATOM      9  C   UNL     1       2.375   4.767  17.991  0.00  0.00    +0.000 A 
ATOM     10  C   UNL     1       1.785   6.033  18.173  0.00  0.00    +0.000 A 
ENDROOT
BRANCH   1  12
ATOM     11  O   UNL     1       1.676   9.259  17.367  0.00  0.00    +0.000 OA
ATOM     12  C   UNL     1       1.897   8.514  18.321  0.00  0.00    +0.000 C 
ATOM     13  N   UNL     1       1.515   8.846  19.617  0.00  0.00    +0.000 N 
ATOM     14  C   UNL     1       0.857  10.114  19.896  0.00  0.00    +0.000 C 
ATOM     15  C   UNL     1       0.732  10.163  21.414  0.00  0.00    +0.000 C 
ATOM     16  C   UNL     1       0.600   8.695  21.797  0.00  0.00    +0.000 C 
ATOM     17  C   UNL     1       1.536   8.000  20.811  0.00  0.00    +0.000 C 
BRANCH  16  18
ATOM     18  O   UNL     1      -0.744   8.253  21.628  0.00  0.00    +0.000 OA
ATOM     19  H   UNL     1      -1.122   8.095  22.512  0.00  0.00    +0.000 HD
ENDBRANCH  16  18
ENDBRANCH   1  12
TORSDOF 2
ENDMDL
MODEL 8
REMARK VINA RESULT:      -7.1      4.932      7.278
REMARK  Name = 
REMARK  2 active torsions:
REMARK  status: ('A' for Active; 'I' for Inactive)
REMARK    1  A    between atoms: C_2  and  C_3
REMARK    2  A    between atoms: C_16  and  O_17
REMARK                            x       y       z     vdW  Elec       q    Type
REMARK                         _______ _______ _______ _____ _____    ______ ____
ROOT
ATOM      1  C   UNL     1       2.429   7.087  19.323  0.00  0.00    +0.000 A 
ATOM      2  C   UNL     1       2.259   7.947  18.235  0.00  0.00    +0.000 A 
ATOM      3  C   UNL     1       1.474   9.092  18.352  0.00  0.00    +0.000 A 
ATOM      4  C   UNL     1       0.920   9.449  19.586  0.00  0.00    +0.000 A 
ATOM      5  C   UNL     1       0.147  10.611  19.715  0.00  0.00    +0.000 A 
ATOM      6  C   UNL     1      -0.354  10.995  20.957  0.00  0.00    +0.000 A 
ATOM      7  C   UNL     1      -0.093  10.217  22.081  0.00  0.00    +0.000 A 
ATOM      8  C   UNL     1       0.655   9.043  21.964  0.00  0.00    +0.000 A 
ATOM      9  C   UNL     1       1.166   8.639  20.720  0.00  0.00    +0.000 A 
ATOM     10  C   UNL     1       1.913   7.454  20.573  0.00  0.00    +0.000 A 
ENDROOT
BRANCH   1  12
ATOM     11  O   UNL     1       4.327   5.818  18.793  0.00  0.00    +0.000 OA
ATOM     12  C   UNL     1       3.168   5.799  19.202  0.00  0.00    +0.000 C 
ATOM     13  N   UNL     1       2.545   4.618  19.593  0.00  0.00    +0.000 N 
ATOM     14  C   UNL     1       3.246   3.345  19.504  0.00  0.00    +0.000 C 
ATOM     15  C   UNL     1       2.204   2.299  19.881  0.00  0.00    +0.000 C 
ATOM     16  C   UNL     1       1.302   3.045  20.856  0.00  0.00    +0.000 C 
ATOM     17  C   UNL     1       1.257   4.454  20.268  0.00  0.00    +0.000 C 
BRANCH  16  18
ATOM     18  O   UNL     1       1.874   3.051  22.161  0.00  0.00    +0.000 OA
ATOM     19  H   UNL     1       2.228   3.944  22.329  0.00  0.00    +0.000 HD
ENDBRANCH  16  18
ENDBRANCH   1  12
TORSDOF 2
ENDMDL
MODEL 9
REMARK VINA RESULT:      -7.0      3.334      6.426
REMARK  Name = 
REMARK  2 active torsions:
REMARK  status: ('A' for Active; 'I' for Inactive)
REMARK    1  A    between atoms: C_2  and  C_3
REMARK    2  A    between atoms: C_16  and  O_17
REMARK                            x       y       z     vdW  Elec       q    Type
REMARK                         _______ _______ _______ _____ _____    ______ ____
ROOT
ATOM      1  C   UNL     1       4.301   5.313  18.495  0.00  0.00    +0.000 A 
ATOM      2  C   UNL     1       5.619   5.503  18.921  0.00  0.00    +0.000 A 
ATOM      3  C   UNL     1       6.685   5.291  18.047  0.00  0.00    +0.000 A 
ATOM      4  C   UNL     1       6.448   4.978  16.705  0.00  0.00    +0.000 A 
ATOM      5  C   UNL     1       7.516   4.785  15.816  0.00  0.00    +0.000 A 
ATOM      6  C   UNL     1       7.278   4.530  14.468  0.00  0.00    +0.000 A 
ATOM      7  C   UNL     1       5.971   4.458  13.995  0.00  0.00    +0.000 A 
ATOM      8  C   UNL     1       4.897   4.623  14.873  0.00  0.00    +0.000 A 
ATOM      9  C   UNL     1       5.117   4.878  16.236  0.00  0.00    +0.000 A 
ATOM     10  C   UNL     1       4.052   5.037  17.144  0.00  0.00    +0.000 A 
ENDROOT
BRANCH   1  12
ATOM     11  O   UNL     1       2.770   6.537  19.778  0.00  0.00    +0.000 OA
ATOM     12  C   UNL     1       3.148   5.420  19.431  0.00  0.00    +0.000 C 
ATOM     13  N   UNL     1       2.502   4.261  19.852  0.00  0.00    +0.000 N 
ATOM     14  C   UNL     1       1.360   4.333  20.751  0.00  0.00    +0.000 C 
ATOM     15  C   UNL     1       1.033   2.882  21.082  0.00  0.00    +0.000 C 
ATOM     16  C   UNL     1       1.455   2.136  19.822  0.00  0.00    +0.000 C 
ATOM     17  C   UNL     1       2.709   2.890  19.385  0.00  0.00    +0.000 C 
BRANCH  16  18
ATOM     18  O   UNL     1       0.435   2.217  18.829  0.00  0.00    +0.000 OA
ATOM     19  H   UNL     1       0.738   2.834  18.138  0.00  0.00    +0.000 HD
ENDBRANCH  16  18
ENDBRANCH   1  12
TORSDOF 2
ENDMDL
