MODEL 1
REMARK VINA RESULT:      -8.7      0.000      0.000
REMARK  Name = 
REMARK  4 active torsions:
REMARK  status: ('A' for Active; 'I' for Inactive)
REMARK    1  A    between atoms: N_3  and  C_4
REMARK    2  A    between atoms: C_7  and  C_8
REMARK    3  A    between atoms: C_20  and  S_21
REMARK    4  A    between atoms: S_21  and  C_24
REMARK                            x       y       z     vdW  Elec       q    Type
REMARK                         _______ _______ _______ _____ _____    ______ ____
ROOT
ATOM      1  O   UNL     1       7.267   9.275  17.107  0.00  0.00    +0.000 OA
ATOM      2  C   UNL     1       7.692   8.466  17.932  0.00  0.00    +0.000 C 
ATOM      3  N   UNL     1       8.700   8.727  18.830  0.00  0.00    +0.000 N 
ATOM      4  N   UNL     1       7.169   7.199  17.976  0.00  0.00    +0.000 N 
ATOM      5  C   UNL     1       6.318   6.721  16.905  0.00  0.00    +0.000 C 
ATOM      6  C   UNL     1       7.056   5.461  16.457  0.00  0.00    +0.000 C 
ATOM      7  C   UNL     1       7.870   5.030  17.696  0.00  0.00    +0.000 C 
ATOM      8  C   UNL     1       7.487   6.035  18.783  0.00  0.00    +0.000 C 
ATOM      9  C   UNL     1       6.213   5.656  19.574  0.00  0.00    +0.000 C 
ATOM     10  C   UNL     1       4.927   5.504  18.714  0.00  0.00    +0.000 C 
ATOM     11  C   UNL     1       4.934   6.452  17.501  0.00  0.00    +0.000 C 
ATOM     12  H   UNL     1       9.142   7.928  19.251  0.00  0.00    +0.000 HD
ENDROOT
BRANCH   3  13
ATOM     13  C   UNL     1       9.380   9.957  18.963  0.00  0.00    +0.000 A 
ATOM     14  C   UNL     1       9.530  10.615  20.185  0.00  0.00    +0.000 A 
ATOM     15  C   UNL     1      10.141  11.868  20.255  0.00  0.00    +0.000 A 
ATOM     16  C   UNL     1      10.635  12.483  19.101  0.00  0.00    +0.000 A 
ATOM     17  C   UNL     1      10.531  11.801  17.878  0.00  0.00    +0.000 A 
ATOM     18  C   UNL     1       9.915  10.544  17.812  0.00  0.00    +0.000 A 
BRANCH  16  19
ATOM     19  C   UNL     1      11.257  13.855  19.170  0.00  0.00    +0.000 C 
ATOM     20  F   UNL     1      12.227  14.061  18.235  0.00  0.00    +0.000 F 
ATOM     21  F   UNL     1      10.345  14.850  18.987  0.00  0.00    +0.000 F 
ATOM     22  F   UNL     1      11.844  14.100  20.374  0.00  0.00    +0.000 F 
ENDBRANCH  16  19
ENDBRANCH   3  13
BRANCH  10  23
ATOM     23  S   UNL     1       4.541   3.771  18.409  0.00  0.00    +0.000 S 
ATOM     24  O   UNL     1       4.579   3.482  16.993  0.00  0.00    +0.000 OA
ATOM     25  O   UNL     1       5.384   2.988  19.308  0.00  0.00    +0.000 OA
BRANCH  23  26
ATOM     26  C   UNL     1       2.866   3.445  18.925  0.00  0.00    +0.000 A 
ATOM     27  C   UNL     1       2.340   4.160  19.993  0.00  0.00    +0.000 A 
ATOM     28  C   UNL     1       1.041   3.862  20.385  0.00  0.00    +0.000 A 
ATOM     29  C   UNL     1       0.342   2.860  19.717  0.00  0.00    +0.000 A 
ATOM     30  C   UNL     1       0.966   2.195  18.671  0.00  0.00    +0.000 A 
ATOM     31  N   UNL     1       2.216   2.474  18.242  0.00  0.00    +0.000 NA
ENDBRANCH  23  26
ENDBRANCH  10  23
TORSDOF 4
ENDMDL
MODEL 2
REMARK VINA RESULT:      -8.7      0.606      1.149
REMARK  Name = 
REMARK  4 active torsions:
REMARK  status: ('A' for Active; 'I' for Inactive)
REMARK    1  A    between atoms: N_3  and  C_4
REMARK    2  A    between atoms: C_7  and  C_8
REMARK    3  A    between atoms: C_20  and  S_21
REMARK    4  A    between atoms: S_21  and  C_24
REMARK                            x       y       z     vdW  Elec       q    Type
REMARK                         _______ _______ _______ _____ _____    ______ ____
ROOT
ATOM      1  O   UNL     1       7.313   9.064  17.023  0.00  0.00    +0.000 OA
ATOM      2  C   UNL     1       7.682   8.307  17.922  0.00  0.00    +0.000 C 
ATOM      3  N   UNL     1       8.623   8.628  18.872  0.00  0.00    +0.000 N 
ATOM      4  N   UNL     1       7.163   7.040  18.002  0.00  0.00    +0.000 N 
ATOM      5  C   UNL     1       6.393   6.494  16.903  0.00  0.00    +0.000 C 
ATOM      6  C   UNL     1       7.166   5.217  16.582  0.00  0.00    +0.000 C 
ATOM      7  C   UNL     1       7.893   4.865  17.898  0.00  0.00    +0.000 C 
ATOM      8  C   UNL     1       7.429   5.927  18.895  0.00  0.00    +0.000 C 
ATOM      9  C   UNL     1       6.104   5.583  19.615  0.00  0.00    +0.000 C 
ATOM     10  C   UNL     1       4.882   5.370  18.676  0.00  0.00    +0.000 C 
ATOM     11  C   UNL     1       4.971   6.248  17.415  0.00  0.00    +0.000 C 
ATOM     12  H   UNL     1       9.038   7.858  19.368  0.00  0.00    +0.000 HD
ENDROOT
BRANCH   3  13
ATOM     13  C   UNL     1       9.286   9.868  18.981  0.00  0.00    +0.000 A 
ATOM     14  C   UNL     1       9.555  10.483  20.206  0.00  0.00    +0.000 A 
ATOM     15  C   UNL     1      10.142  11.748  20.261  0.00  0.00    +0.000 A 
ATOM     16  C   UNL     1      10.492  12.420  19.087  0.00  0.00    +0.000 A 
ATOM     17  C   UNL     1      10.270  11.784  17.855  0.00  0.00    +0.000 A 
ATOM     18  C   UNL     1       9.678  10.515  17.804  0.00  0.00    +0.000 A 
BRANCH  16  19
ATOM     19  C   UNL     1      11.088  13.804  19.145  0.00  0.00    +0.000 C 
ATOM     20  F   UNL     1      10.179  14.778  19.428  0.00  0.00    +0.000 F 
ATOM     21  F   UNL     1      12.059  13.914  20.094  0.00  0.00    +0.000 F 
ATOM     22  F   UNL     1      11.670  14.169  17.969  0.00  0.00    +0.000 F 
ENDBRANCH  16  19
ENDBRANCH   3  13
BRANCH  10  23
ATOM     23  S   UNL     1       4.527   3.619  18.446  0.00  0.00    +0.000 S 
ATOM     24  O   UNL     1       4.465   3.294  17.039  0.00  0.00    +0.000 OA
ATOM     25  O   UNL     1       5.460   2.885  19.296  0.00  0.00    +0.000 OA
BRANCH  23  26
ATOM     26  C   UNL     1       2.908   3.260  19.098  0.00  0.00    +0.000 A 
ATOM     27  C   UNL     1       1.898   2.884  18.223  0.00  0.00    +0.000 A 
ATOM     28  C   UNL     1       0.642   2.637  18.763  0.00  0.00    +0.000 A 
ATOM     29  C   UNL     1       0.446   2.797  20.132  0.00  0.00    +0.000 A 
ATOM     30  C   UNL     1       1.521   3.191  20.917  0.00  0.00    +0.000 A 
ATOM     31  N   UNL     1       2.763   3.414  20.435  0.00  0.00    +0.000 NA
ENDBRANCH  23  26
ENDBRANCH  10  23
TORSDOF 4
ENDMDL
MODEL 3
REMARK VINA RESULT:      -8.3      0.334      1.143
REMARK  Name = 
REMARK  4 active torsions:
REMARK  status: ('A' for Active; 'I' for Inactive)
REMARK    1  A    between atoms: N_3  and  C_4
REMARK    2  A    between atoms: C_7  and  C_8
REMARK    3  A    between atoms: C_20  and  S_21
REMARK    4  A    between atoms: S_21  and  C_24
REMARK                            x       y       z     vdW  Elec       q    Type
REMARK                         _______ _______ _______ _____ _____    ______ ____
ROOT
ATOM      1  O   UNL     1       6.965   9.165  17.067  0.00  0.00    +0.000 OA
ATOM      2  C   UNL     1       7.457   8.386  17.884  0.00  0.00    +0.000 C 
ATOM      3  N   UNL     1       8.491   8.702  18.734  0.00  0.00    +0.000 N 
ATOM      4  N   UNL     1       6.990   7.100  17.968  0.00  0.00    +0.000 N 
ATOM      5  C   UNL     1       6.114   6.571  16.941  0.00  0.00    +0.000 C 
ATOM      6  C   UNL     1       6.884   5.336  16.479  0.00  0.00    +0.000 C 
ATOM      7  C   UNL     1       7.767   4.957  17.687  0.00  0.00    +0.000 C 
ATOM      8  C   UNL     1       7.389   5.962  18.776  0.00  0.00    +0.000 C 
ATOM      9  C   UNL     1       6.167   5.544  19.627  0.00  0.00    +0.000 C 
ATOM     10  C   UNL     1       4.853   5.326  18.824  0.00  0.00    +0.000 C 
ATOM     11  C   UNL     1       4.769   6.256  17.600  0.00  0.00    +0.000 C 
ATOM     12  H   UNL     1       8.983   7.927  19.146  0.00  0.00    +0.000 HD
ENDROOT
BRANCH   3  13
ATOM     13  C   UNL     1       9.126   9.959  18.821  0.00  0.00    +0.000 A 
ATOM     14  C   UNL     1       9.320  10.792  17.717  0.00  0.00    +0.000 A 
ATOM     15  C   UNL     1      10.024  11.991  17.837  0.00  0.00    +0.000 A 
ATOM     16  C   UNL     1      10.533  12.394  19.074  0.00  0.00    +0.000 A 
ATOM     17  C   UNL     1      10.297  11.584  20.196  0.00  0.00    +0.000 A 
ATOM     18  C   UNL     1       9.591  10.380  20.071  0.00  0.00    +0.000 A 
BRANCH  16  19
ATOM     19  C   UNL     1      11.330  13.669  19.197  0.00  0.00    +0.000 C 
ATOM     20  F   UNL     1      10.584  14.796  19.028  0.00  0.00    +0.000 F 
ATOM     21  F   UNL     1      11.926  13.795  20.415  0.00  0.00    +0.000 F 
ATOM     22  F   UNL     1      12.333  13.746  18.279  0.00  0.00    +0.000 F 
ENDBRANCH  16  19
ENDBRANCH   3  13
BRANCH  10  23
ATOM     23  S   UNL     1       4.526   3.574  18.560  0.00  0.00    +0.000 S 
ATOM     24  O   UNL     1       4.582   3.253  17.152  0.00  0.00    +0.000 OA
ATOM     25  O   UNL     1       5.389   2.842  19.482  0.00  0.00    +0.000 OA
BRANCH  23  26
ATOM     26  C   UNL     1       2.860   3.206  19.075  0.00  0.00    +0.000 A 
ATOM     27  C   UNL     1       2.458   3.558  20.357  0.00  0.00    +0.000 A 
ATOM     28  C   UNL     1       1.161   3.233  20.734  0.00  0.00    +0.000 A 
ATOM     29  C   UNL     1       0.341   2.558  19.834  0.00  0.00    +0.000 A 
ATOM     30  C   UNL     1       0.846   2.240  18.581  0.00  0.00    +0.000 A 
ATOM     31  N   UNL     1       2.090   2.562  18.167  0.00  0.00    +0.000 NA
ENDBRANCH  23  26
ENDBRANCH  10  23
TORSDOF 4
ENDMDL
MODEL 4
REMARK VINA RESULT:      -7.7      9.032     11.615
REMARK  Name = 
REMARK  4 active torsions:
REMARK  status: ('A' for Active; 'I' for Inactive)
REMARK    1  A    between atoms: N_3  and  C_4
REMARK    2  A    between atoms: C_7  and  C_8
REMARK    3  A    between atoms: C_20  and  S_21
REMARK    4  A    between atoms: S_21  and  C_24
REMARK                            x       y       z     vdW  Elec       q    Type
REMARK                         _______ _______ _______ _____ _____    ______ ____
ROOT
ATOM      1  O   UNL     1      -0.049   9.221  18.212  0.00  0.00    +0.000 OA
ATOM      2  C   UNL     1       0.643   9.691  19.116  0.00  0.00    +0.000 C 
ATOM      3  N   UNL     1       1.599   8.987  19.810  0.00  0.00    +0.000 N 
ATOM      4  N   UNL     1       0.462  10.993  19.505  0.00  0.00    +0.000 N 
ATOM      5  C   UNL     1      -0.697  11.738  19.055  0.00  0.00    +0.000 C 
ATOM      6  C   UNL     1      -1.326  12.169  20.378  0.00  0.00    +0.000 C 
ATOM      7  C   UNL     1      -0.152  12.166  21.382  0.00  0.00    +0.000 C 
ATOM      8  C   UNL     1       1.074  11.799  20.546  0.00  0.00    +0.000 C 
ATOM      9  C   UNL     1       1.756  13.006  19.860  0.00  0.00    +0.000 C 
ATOM     10  C   UNL     1       0.846  13.806  18.885  0.00  0.00    +0.000 C 
ATOM     11  C   UNL     1      -0.192  12.901  18.197  0.00  0.00    +0.000 C 
ATOM     12  H   UNL     1       1.895   9.381  20.687  0.00  0.00    +0.000 HD
ENDROOT
BRANCH   3  13
ATOM     13  C   UNL     1       1.952   7.640  19.581  0.00  0.00    +0.000 A 
ATOM     14  C   UNL     1       2.589   7.208  18.416  0.00  0.00    +0.000 A 
ATOM     15  C   UNL     1       2.846   5.853  18.199  0.00  0.00    +0.000 A 
ATOM     16  C   UNL     1       2.488   4.900  19.157  0.00  0.00    +0.000 A 
ATOM     17  C   UNL     1       1.893   5.337  20.351  0.00  0.00    +0.000 A 
ATOM     18  C   UNL     1       1.635   6.697  20.564  0.00  0.00    +0.000 A 
BRANCH  16  19
ATOM     19  C   UNL     1       2.728   3.433  18.905  0.00  0.00    +0.000 C 
ATOM     20  F   UNL     1       2.919   2.709  20.043  0.00  0.00    +0.000 F 
ATOM     21  F   UNL     1       1.689   2.839  18.256  0.00  0.00    +0.000 F 
ATOM     22  F   UNL     1       3.829   3.210  18.134  0.00  0.00    +0.000 F 
ENDBRANCH  16  19
ENDBRANCH   3  13
BRANCH  10  23
ATOM     23  S   UNL     1       0.249  15.327  19.643  0.00  0.00    +0.000 S 
ATOM     24  O   UNL     1      -1.160  15.223  19.951  0.00  0.00    +0.000 OA
ATOM     25  O   UNL     1       1.181  15.655  20.719  0.00  0.00    +0.000 OA
BRANCH  23  26
ATOM     26  C   UNL     1       0.391  16.661  18.469  0.00  0.00    +0.000 A 
ATOM     27  C   UNL     1      -0.754  17.346  18.086  0.00  0.00    +0.000 A 
ATOM     28  C   UNL     1      -0.609  18.362  17.150  0.00  0.00    +0.000 A 
ATOM     29  C   UNL     1       0.653  18.631  16.627  0.00  0.00    +0.000 A 
ATOM     30  C   UNL     1       1.731  17.876  17.068  0.00  0.00    +0.000 A 
ATOM     31  N   UNL     1       1.637  16.899  17.996  0.00  0.00    +0.000 NA
ENDBRANCH  23  26
ENDBRANCH  10  23
TORSDOF 4
ENDMDL
MODEL 5
REMARK VINA RESULT:      -7.7     10.173     11.822
REMARK  Name = 
REMARK  4 active torsions:
REMARK  status: ('A' for Active; 'I' for Inactive)
REMARK    1  A    between atoms: N_3  and  C_4
REMARK    2  A    between atoms: C_7  and  C_8
REMARK    3  A    between atoms: C_20  and  S_21
REMARK    4  A    between atoms: S_21  and  C_24
REMARK                            x       y       z     vdW  Elec       q    Type
REMARK                         _______ _______ _______ _____ _____    ______ ____
ROOT
ATOM      1  O   UNL     1       1.254  10.870  21.721  0.00  0.00    +0.000 OA
ATOM      2  C   UNL     1       0.433  11.109  20.835  0.00  0.00    +0.000 C 
ATOM      3  N   UNL     1       0.378  10.454  19.627  0.00  0.00    +0.000 N 
ATOM      4  N   UNL     1      -0.493  12.105  21.014  0.00  0.00    +0.000 N 
ATOM      5  C   UNL     1      -0.353  13.045  22.107  0.00  0.00    +0.000 C 
ATOM      6  C   UNL     1      -0.343  14.383  21.370  0.00  0.00    +0.000 C 
ATOM      7  C   UNL     1      -1.091  14.101  20.049  0.00  0.00    +0.000 C 
ATOM      8  C   UNL     1      -1.533  12.641  20.156  0.00  0.00    +0.000 C 
ATOM      9  C   UNL     1      -2.885  12.441  20.882  0.00  0.00    +0.000 C 
ATOM     10  C   UNL     1      -2.928  12.969  22.344  0.00  0.00    +0.000 C 
ATOM     11  C   UNL     1      -1.557  12.855  23.035  0.00  0.00    +0.000 C 
ATOM     12  H   UNL     1      -0.138  10.909  18.894  0.00  0.00    +0.000 HD
ENDROOT
BRANCH   3  13
ATOM     13  C   UNL     1       1.228   9.400  19.228  0.00  0.00    +0.000 A 
ATOM     14  C   UNL     1       1.871   9.369  17.989  0.00  0.00    +0.000 A 
ATOM     15  C   UNL     1       2.638   8.267  17.606  0.00  0.00    +0.000 A 
ATOM     16  C   UNL     1       2.795   7.178  18.466  0.00  0.00    +0.000 A 
ATOM     17  C   UNL     1       2.191   7.227  19.733  0.00  0.00    +0.000 A 
ATOM     18  C   UNL     1       1.420   8.334  20.112  0.00  0.00    +0.000 A 
BRANCH  16  19
ATOM     19  C   UNL     1       3.589   5.970  18.036  0.00  0.00    +0.000 C 
ATOM     20  F   UNL     1       4.550   5.602  18.930  0.00  0.00    +0.000 F 
ATOM     21  F   UNL     1       2.807   4.869  17.857  0.00  0.00    +0.000 F 
ATOM     22  F   UNL     1       4.237   6.166  16.854  0.00  0.00    +0.000 F 
ENDBRANCH  16  19
ENDBRANCH   3  13
BRANCH  10  23
ATOM     23  S   UNL     1      -3.779  14.554  22.447  0.00  0.00    +0.000 S 
ATOM     24  O   UNL     1      -3.077  15.452  23.335  0.00  0.00    +0.000 OA
ATOM     25  O   UNL     1      -4.038  14.981  21.074  0.00  0.00    +0.000 OA
BRANCH  23  26
ATOM     26  C   UNL     1      -5.386  14.308  23.177  0.00  0.00    +0.000 A 
ATOM     27  C   UNL     1      -5.785  13.020  23.508  0.00  0.00    +0.000 A 
ATOM     28  C   UNL     1      -7.054  12.862  24.052  0.00  0.00    +0.000 A 
ATOM     29  C   UNL     1      -7.867  13.980  24.217  0.00  0.00    +0.000 A 
ATOM     30  C   UNL     1      -7.376  15.223  23.840  0.00  0.00    +0.000 A 
ATOM     31  N   UNL     1      -6.140  15.421  23.334  0.00  0.00    +0.000 NA
ENDBRANCH  23  26
ENDBRANCH  10  23
TORSDOF 4
ENDMDL
MODEL 6
REMARK VINA RESULT:      -7.6     10.100     11.730
REMARK  Name = 
REMARK  4 active torsions:
REMARK  status: ('A' for Active; 'I' for Inactive)
REMARK    1  A    between atoms: N_3  and  C_4
REMARK    2  A    between atoms: C_7  and  C_8
REMARK    3  A    between atoms: C_20  and  S_21
REMARK    4  A    between atoms: S_21  and  C_24
REMARK                            x       y       z     vdW  Elec       q    Type
REMARK                         _______ _______ _______ _____ _____    ______ ____
ROOT
ATOM      1  O   UNL     1       1.065  10.549  21.845  0.00  0.00    +0.000 OA
ATOM      2  C   UNL     1       0.332  10.895  20.918  0.00  0.00    +0.000 C 
ATOM      3  N   UNL     1       0.340  10.326  19.666  0.00  0.00    +0.000 N 
ATOM      4  N   UNL     1      -0.548  11.931  21.095  0.00  0.00    +0.000 N 
ATOM      5  C   UNL     1      -0.446  12.787  22.260  0.00  0.00    +0.000 C 
ATOM      6  C   UNL     1      -0.303  14.168  21.623  0.00  0.00    +0.000 C 
ATOM      7  C   UNL     1      -0.956  14.020  20.232  0.00  0.00    +0.000 C 
ATOM      8  C   UNL     1      -1.485  12.586  20.200  0.00  0.00    +0.000 C 
ATOM      9  C   UNL     1      -2.899  12.420  20.804  0.00  0.00    +0.000 C 
ATOM     10  C   UNL     1      -3.032  12.851  22.292  0.00  0.00    +0.000 C 
ATOM     11  C   UNL     1      -1.730  12.608  23.077  0.00  0.00    +0.000 C 
ATOM     12  H   UNL     1      -0.089  10.860  18.929  0.00  0.00    +0.000 HD
ENDROOT
BRANCH   3  13
ATOM     13  C   UNL     1       1.161   9.252  19.259  0.00  0.00    +0.000 A 
ATOM     14  C   UNL     1       1.456   8.165  20.084  0.00  0.00    +0.000 A 
ATOM     15  C   UNL     1       2.337   7.166  19.667  0.00  0.00    +0.000 A 
ATOM     16  C   UNL     1       2.928   7.224  18.402  0.00  0.00    +0.000 A 
ATOM     17  C   UNL     1       2.595   8.289  17.551  0.00  0.00    +0.000 A 
ATOM     18  C   UNL     1       1.712   9.291  17.974  0.00  0.00    +0.000 A 
BRANCH  16  19
ATOM     19  C   UNL     1       3.912   6.167  17.967  0.00  0.00    +0.000 C 
ATOM     20  F   UNL     1       4.679   6.539  16.905  0.00  0.00    +0.000 F 
ATOM     21  F   UNL     1       4.785   5.830  18.957  0.00  0.00    +0.000 F 
ATOM     22  F   UNL     1       3.300   5.008  17.596  0.00  0.00    +0.000 F 
ENDBRANCH  16  19
ENDBRANCH   3  13
BRANCH  10  23
ATOM     23  S   UNL     1      -3.800  14.474  22.441  0.00  0.00    +0.000 S 
ATOM     24  O   UNL     1      -3.053  15.309  23.354  0.00  0.00    +0.000 OA
ATOM     25  O   UNL     1      -4.035  14.954  21.082  0.00  0.00    +0.000 OA
BRANCH  23  26
ATOM     26  C   UNL     1      -5.418  14.290  23.165  0.00  0.00    +0.000 A 
ATOM     27  C   UNL     1      -5.755  13.083  23.763  0.00  0.00    +0.000 A 
ATOM     28  C   UNL     1      -7.034  12.966  24.294  0.00  0.00    +0.000 A 
ATOM     29  C   UNL     1      -7.916  14.038  24.186  0.00  0.00    +0.000 A 
ATOM     30  C   UNL     1      -7.483  15.197  23.556  0.00  0.00    +0.000 A 
ATOM     31  N   UNL     1      -6.241  15.359  23.051  0.00  0.00    +0.000 NA
ENDBRANCH  23  26
ENDBRANCH  10  23
TORSDOF 4
ENDMDL
MODEL 7
REMARK VINA RESULT:      -7.5      8.966     11.470
REMARK  Name = 
REMARK  4 active torsions:
REMARK  status: ('A' for Active; 'I' for Inactive)
REMARK    1  A    between atoms: N_3  and  C_4
REMARK    2  A    between atoms: C_7  and  C_8
REMARK    3  A    between atoms: C_20  and  S_21
REMARK    4  A    between atoms: S_21  and  C_24
REMARK                            x       y       z     vdW  Elec       q    Type
REMARK                         _______ _______ _______ _____ _____    ______ ____
ROOT
ATOM      1  O   UNL     1       0.131   9.348  18.145  0.00  0.00    +0.000 OA
ATOM      2  C   UNL     1       0.731   9.777  19.131  0.00  0.00    +0.000 C 
ATOM      3  N   UNL     1       1.594   9.034  19.900  0.00  0.00    +0.000 N 
ATOM      4  N   UNL     1       0.533  11.071  19.539  0.00  0.00    +0.000 N 
ATOM      5  C   UNL     1      -0.558  11.853  18.991  0.00  0.00    +0.000 C 
ATOM      6  C   UNL     1      -1.317  12.259  20.253  0.00  0.00    +0.000 C 
ATOM      7  C   UNL     1      -0.258  12.202  21.375  0.00  0.00    +0.000 C 
ATOM      8  C   UNL     1       1.044  11.833  20.664  0.00  0.00    +0.000 C 
ATOM      9  C   UNL     1       1.818  13.045  20.092  0.00  0.00    +0.000 C 
ATOM     10  C   UNL     1       1.032  13.892  19.051  0.00  0.00    +0.000 C 
ATOM     11  C   UNL     1       0.057  13.030  18.229  0.00  0.00    +0.000 C 
ATOM     12  H   UNL     1       1.801   9.395  20.816  0.00  0.00    +0.000 HD
ENDROOT
BRANCH   3  13
ATOM     13  C   UNL     1       1.946   7.687  19.669  0.00  0.00    +0.000 A 
ATOM     14  C   UNL     1       1.665   6.661  20.573  0.00  0.00    +0.000 A 
ATOM     15  C   UNL     1       2.103   5.356  20.337  0.00  0.00    +0.000 A 
ATOM     16  C   UNL     1       2.818   5.047  19.177  0.00  0.00    +0.000 A 
ATOM     17  C   UNL     1       3.059   6.066  18.242  0.00  0.00    +0.000 A 
ATOM     18  C   UNL     1       2.619   7.374  18.483  0.00  0.00    +0.000 A 
BRANCH  16  19
ATOM     19  C   UNL     1       3.328   3.647  18.942  0.00  0.00    +0.000 C 
ATOM     20  F   UNL     1       4.259   3.565  17.952  0.00  0.00    +0.000 F 
ATOM     21  F   UNL     1       3.914   3.114  20.050  0.00  0.00    +0.000 F 
ATOM     22  F   UNL     1       2.335   2.783  18.591  0.00  0.00    +0.000 F 
ENDBRANCH  16  19
ENDBRANCH   3  13
BRANCH  10  23
ATOM     23  S   UNL     1       0.384  15.403  19.788  0.00  0.00    +0.000 S 
ATOM     24  O   UNL     1      -1.005  15.238  20.150  0.00  0.00    +0.000 OA
ATOM     25  O   UNL     1       1.335  15.809  20.819  0.00  0.00    +0.000 OA
BRANCH  23  26
ATOM     26  C   UNL     1       0.417  16.707  18.574  0.00  0.00    +0.000 A 
ATOM     27  C   UNL     1      -0.765  17.363  18.259  0.00  0.00    +0.000 A 
ATOM     28  C   UNL     1      -0.708  18.357  17.289  0.00  0.00    +0.000 A 
ATOM     29  C   UNL     1       0.507  18.631  16.667  0.00  0.00    +0.000 A 
ATOM     30  C   UNL     1       1.628  17.905  17.046  0.00  0.00    +0.000 A 
ATOM     31  N   UNL     1       1.619  16.952  18.003  0.00  0.00    +0.000 NA
ENDBRANCH  23  26
ENDBRANCH  10  23
TORSDOF 4
ENDMDL
MODEL 8
REMARK VINA RESULT:      -7.5      8.011     10.095
REMARK  Name = 
REMARK  4 active torsions:
REMARK  status: ('A' for Active; 'I' for Inactive)
REMARK    1  A    between atoms: N_3  and  C_4
REMARK    2  A    between atoms: C_7  and  C_8
REMARK    3  A    between atoms: C_20  and  S_21
REMARK    4  A    between atoms: S_21  and  C_24
REMARK                            x       y       z     vdW  Elec       q    Type
REMARK                         _______ _______ _______ _____ _____    ______ ____
ROOT
ATOM      1  O   UNL     1       2.078   9.259  17.113  0.00  0.00    +0.000 OA
ATOM      2  C   UNL     1       1.948   8.850  18.267  0.00  0.00    +0.000 C 
ATOM      3  N   UNL     1       2.513   7.694  18.751  0.00  0.00    +0.000 N 
ATOM      4  N   UNL     1       1.174   9.552  19.156  0.00  0.00    +0.000 N 
ATOM      5  C   UNL     1       0.305  10.614  18.689  0.00  0.00    +0.000 C 
ATOM      6  C   UNL     1      -1.056  10.154  19.208  0.00  0.00    +0.000 C 
ATOM      7  C   UNL     1      -0.723   9.247  20.412  0.00  0.00    +0.000 C 
ATOM      8  C   UNL     1       0.799   9.306  20.536  0.00  0.00    +0.000 C 
ATOM      9  C   UNL     1       1.319  10.495  21.378  0.00  0.00    +0.000 C 
ATOM     10  C   UNL     1       0.916  11.901  20.848  0.00  0.00    +0.000 C 
ATOM     11  C   UNL     1       0.800  11.922  19.313  0.00  0.00    +0.000 C 
ATOM     12  H   UNL     1       2.120   7.326  19.601  0.00  0.00    +0.000 HD
ENDROOT
BRANCH   3  13
ATOM     13  C   UNL     1       3.342   6.818  18.019  0.00  0.00    +0.000 A 
ATOM     14  C   UNL     1       4.466   7.248  17.311  0.00  0.00    +0.000 A 
ATOM     15  C   UNL     1       5.209   6.357  16.535  0.00  0.00    +0.000 A 
ATOM     16  C   UNL     1       4.854   5.007  16.466  0.00  0.00    +0.000 A 
ATOM     17  C   UNL     1       3.754   4.562  17.217  0.00  0.00    +0.000 A 
ATOM     18  C   UNL     1       3.009   5.460  17.993  0.00  0.00    +0.000 A 
BRANCH  16  19
ATOM     19  C   UNL     1       5.632   4.053  15.595  0.00  0.00    +0.000 C 
ATOM     20  F   UNL     1       5.528   2.752  15.985  0.00  0.00    +0.000 F 
ATOM     21  F   UNL     1       5.227   4.086  14.296  0.00  0.00    +0.000 F 
ATOM     22  F   UNL     1       6.965   4.331  15.580  0.00  0.00    +0.000 F 
ENDBRANCH  16  19
ENDBRANCH   3  13
BRANCH  10  23
ATOM     23  S   UNL     1      -0.452  12.593  21.794  0.00  0.00    +0.000 S 
ATOM     24  O   UNL     1      -1.620  12.754  20.956  0.00  0.00    +0.000 OA
ATOM     25  O   UNL     1      -0.566  11.796  23.012  0.00  0.00    +0.000 OA
BRANCH  23  26
ATOM     26  C   UNL     1      -0.016  14.232  22.339  0.00  0.00    +0.000 A 
ATOM     27  C   UNL     1      -0.999  15.040  22.895  0.00  0.00    +0.000 A 
ATOM     28  C   UNL     1      -0.629  16.322  23.285  0.00  0.00    +0.000 A 
ATOM     29  C   UNL     1       0.682  16.742  23.083  0.00  0.00    +0.000 A 
ATOM     30  C   UNL     1       1.584  15.860  22.505  0.00  0.00    +0.000 A 
ATOM     31  N   UNL     1       1.271  14.598  22.138  0.00  0.00    +0.000 NA
ENDBRANCH  23  26
ENDBRANCH  10  23
TORSDOF 4
ENDMDL
MODEL 9
REMARK VINA RESULT:      -7.4      8.997     11.485
REMARK  Name = 
REMARK  4 active torsions:
REMARK  status: ('A' for Active; 'I' for Inactive)
REMARK    1  A    between atoms: N_3  and  C_4
REMARK    2  A    between atoms: C_7  and  C_8
REMARK    3  A    between atoms: C_20  and  S_21
REMARK    4  A    between atoms: S_21  and  C_24
REMARK                            x       y       z     vdW  Elec       q    Type
REMARK                         _______ _______ _______ _____ _____    ______ ____
ROOT
ATOM      1  O   UNL     1       0.471   9.283  17.827  0.00  0.00    +0.000 OA
ATOM      2  C   UNL     1       0.861   9.649  18.936  0.00  0.00    +0.000 C 
ATOM      3  N   UNL     1       1.607   8.875  19.793  0.00  0.00    +0.000 N 
ATOM      4  N   UNL     1       0.528  10.897  19.398  0.00  0.00    +0.000 N 
ATOM      5  C   UNL     1      -0.483  11.683  18.720  0.00  0.00    +0.000 C 
ATOM      6  C   UNL     1      -1.476  11.955  19.847  0.00  0.00    +0.000 C 
ATOM      7  C   UNL     1      -0.636  11.842  21.137  0.00  0.00    +0.000 C 
ATOM      8  C   UNL     1       0.790  11.579  20.652  0.00  0.00    +0.000 C 
ATOM      9  C   UNL     1       1.593  12.861  20.326  0.00  0.00    +0.000 C 
ATOM     10  C   UNL     1       0.967  13.764  19.226  0.00  0.00    +0.000 C 
ATOM     11  C   UNL     1       0.201  12.940  18.175  0.00  0.00    +0.000 C 
ATOM     12  H   UNL     1       1.627   9.165  20.756  0.00  0.00    +0.000 HD
ENDROOT
BRANCH   3  13
ATOM     13  C   UNL     1       2.061   7.565  19.529  0.00  0.00    +0.000 A 
ATOM     14  C   UNL     1       2.793   7.229  18.389  0.00  0.00    +0.000 A 
ATOM     15  C   UNL     1       3.151   5.904  18.130  0.00  0.00    +0.000 A 
ATOM     16  C   UNL     1       2.800   4.887  19.021  0.00  0.00    +0.000 A 
ATOM     17  C   UNL     1       2.106   5.228  20.193  0.00  0.00    +0.000 A 
ATOM     18  C   UNL     1       1.747   6.558  20.448  0.00  0.00    +0.000 A 
BRANCH  16  19
ATOM     19  C   UNL     1       3.150   3.451  18.721  0.00  0.00    +0.000 C 
ATOM     20  F   UNL     1       3.336   3.200  17.395  0.00  0.00    +0.000 F 
ATOM     21  F   UNL     1       4.297   3.055  19.340  0.00  0.00    +0.000 F 
ATOM     22  F   UNL     1       2.184   2.583  19.132  0.00  0.00    +0.000 F 
ENDBRANCH  16  19
ENDBRANCH   3  13
BRANCH  10  23
ATOM     23  S   UNL     1       0.122  15.185  19.943  0.00  0.00    +0.000 S 
ATOM     24  O   UNL     1      -1.273  14.886  20.170  0.00  0.00    +0.000 OA
ATOM     25  O   UNL     1       0.937  15.633  21.069  0.00  0.00    +0.000 OA
BRANCH  23  26
ATOM     26  C   UNL     1       0.146  16.530  18.775  0.00  0.00    +0.000 A 
ATOM     27  C   UNL     1       1.351  16.889  18.186  0.00  0.00    +0.000 A 
ATOM     28  C   UNL     1       1.337  17.959  17.299  0.00  0.00    +0.000 A 
ATOM     29  C   UNL     1       0.141  18.630  17.062  0.00  0.00    +0.000 A 
ATOM     30  C   UNL     1      -1.006  18.199  17.714  0.00  0.00    +0.000 A 
ATOM     31  N   UNL     1      -1.040  17.147  18.561  0.00  0.00    +0.000 NA
ENDBRANCH  23  26
ENDBRANCH  10  23
TORSDOF 4
ENDMDL
