MODEL 1
REMARK VINA RESULT:      -6.5      0.000      0.000
REMARK  Name = 
REMARK  5 active torsions:
REMARK  status: ('A' for Active; 'I' for Inactive)
REMARK    1  A    between atoms: C_2  and  N_3
REMARK    2  A    between atoms: C_2  and  N_12
REMARK    3  A    between atoms: N_3  and  C_4
REMARK    4  A    between atoms: C_4  and  C_5
REMARK    5  A    between atoms: N_12  and  C_13
REMARK                            x       y       z     vdW  Elec       q    Type
REMARK                         _______ _______ _______ _____ _____    ______ ____
ROOT
ATOM      1  S   UNL     1       4.391   1.706  19.820  0.00  0.00    +0.000 S 
ATOM      2  C   UNL     1       3.895   2.139  18.284  0.00  0.00    +0.000 C 
ENDROOT
BRANCH   2   3
ATOM      3  N   UNL     1       2.600   1.848  17.941  0.00  0.00    +0.000 N 
ATOM      4  H   UNL     1       2.443   0.853  17.826  0.00  0.00    +0.000 HD
BRANCH   3   5
ATOM      5  C   UNL     1       1.436   2.633  18.333  0.00  0.00    +0.000 C 
BRANCH   5   6
ATOM      6  C   UNL     1       1.764   4.024  18.820  0.00  0.00    +0.000 A 
ATOM      7  C   UNL     1       1.971   5.062  17.890  0.00  0.00    +0.000 A 
ATOM      8  C   UNL     1       2.258   6.363  18.308  0.00  0.00    +0.000 A 
ATOM      9  C   UNL     1       2.328   6.658  19.665  0.00  0.00    +0.000 A 
ATOM     10  C   UNL     1       2.100   5.655  20.604  0.00  0.00    +0.000 A 
ATOM     11  C   UNL     1       1.809   4.350  20.188  0.00  0.00    +0.000 A 
ATOM     12 BR   UNL     1       1.472   3.075  21.557  0.00  0.00    +0.000 Br
ENDBRANCH   5   6
ENDBRANCH   3   5
ENDBRANCH   2   3
BRANCH   2  13
ATOM     13  N   UNL     1       4.647   2.705  17.287  0.00  0.00    +0.000 N 
ATOM     14  H   UNL     1       5.121   2.030  16.700  0.00  0.00    +0.000 HD
BRANCH  13  15
ATOM     15  C   UNL     1       5.086   4.038  17.159  0.00  0.00    +0.000 A 
ATOM     16  C   UNL     1       4.943   4.662  15.915  0.00  0.00    +0.000 A 
ATOM     17  C   UNL     1       5.316   5.998  15.747  0.00  0.00    +0.000 A 
ATOM     18  C   UNL     1       5.800   6.729  16.831  0.00  0.00    +0.000 A 
ATOM     19  C   UNL     1       5.917   6.121  18.079  0.00  0.00    +0.000 A 
ATOM     20  C   UNL     1       5.565   4.779  18.242  0.00  0.00    +0.000 A 
ENDBRANCH  13  15
ENDBRANCH   2  13
TORSDOF 5
ENDMDL
MODEL 2
REMARK VINA RESULT:      -6.2      2.214      2.733
REMARK  Name = 
REMARK  5 active torsions:
REMARK  status: ('A' for Active; 'I' for Inactive)
REMARK    1  A    between atoms: C_2  and  N_3
REMARK    2  A    between atoms: C_2  and  N_12
REMARK    3  A    between atoms: N_3  and  C_4
REMARK    4  A    between atoms: C_4  and  C_5
REMARK    5  A    between atoms: N_12  and  C_13
REMARK                            x       y       z     vdW  Elec       q    Type
REMARK                         _______ _______ _______ _____ _____    ______ ____
ROOT
ATOM      1  S   UNL     1       5.650   4.087  13.999  0.00  0.00    +0.000 S 
ATOM      2  C   UNL     1       5.556   4.011  15.666  0.00  0.00    +0.000 C 
ENDROOT
BRANCH   2   3
ATOM      3  N   UNL     1       4.303   4.003  16.222  0.00  0.00    +0.000 N 
ATOM      4  H   UNL     1       3.582   3.767  15.550  0.00  0.00    +0.000 HD
BRANCH   3   5
ATOM      5  C   UNL     1       4.009   3.675  17.612  0.00  0.00    +0.000 C 
BRANCH   5   6
ATOM      6  C   UNL     1       3.378   4.803  18.393  0.00  0.00    +0.000 A 
ATOM      7  C   UNL     1       3.533   6.132  17.954  0.00  0.00    +0.000 A 
ATOM      8  C   UNL     1       2.948   7.196  18.643  0.00  0.00    +0.000 A 
ATOM      9  C   UNL     1       2.181   6.952  19.777  0.00  0.00    +0.000 A 
ATOM     10  C   UNL     1       1.991   5.644  20.216  0.00  0.00    +0.000 A 
ATOM     11  C   UNL     1       2.574   4.575  19.525  0.00  0.00    +0.000 A 
ATOM     12 BR   UNL     1       2.208   2.831  20.189  0.00  0.00    +0.000 Br
ENDBRANCH   5   6
ENDBRANCH   3   5
ENDBRANCH   2   3
BRANCH   2  13
ATOM     13  N   UNL     1       6.591   4.014  16.566  0.00  0.00    +0.000 N 
ATOM     14  H   UNL     1       6.821   3.096  16.926  0.00  0.00    +0.000 HD
BRANCH  13  15
ATOM     15  C   UNL     1       7.150   5.101  17.268  0.00  0.00    +0.000 A 
ATOM     16  C   UNL     1       7.081   6.369  16.683  0.00  0.00    +0.000 A 
ATOM     17  C   UNL     1       7.575   7.488  17.359  0.00  0.00    +0.000 A 
ATOM     18  C   UNL     1       8.107   7.350  18.640  0.00  0.00    +0.000 A 
ATOM     19  C   UNL     1       8.151   6.093  19.240  0.00  0.00    +0.000 A 
ATOM     20  C   UNL     1       7.677   4.972  18.555  0.00  0.00    +0.000 A 
ENDBRANCH  13  15
ENDBRANCH   2  13
TORSDOF 5
ENDMDL
MODEL 3
REMARK VINA RESULT:      -6.0      1.240      1.527
REMARK  Name = 
REMARK  5 active torsions:
REMARK  status: ('A' for Active; 'I' for Inactive)
REMARK    1  A    between atoms: C_2  and  N_3
REMARK    2  A    between atoms: C_2  and  N_12
REMARK    3  A    between atoms: N_3  and  C_4
REMARK    4  A    between atoms: C_4  and  C_5
REMARK    5  A    between atoms: N_12  and  C_13
REMARK                            x       y       z     vdW  Elec       q    Type
REMARK                         _______ _______ _______ _____ _____    ______ ____
ROOT
ATOM      1  S   UNL     1       4.232   2.136  18.787  0.00  0.00    +0.000 S 
ATOM      2  C   UNL     1       4.311   3.197  17.498  0.00  0.00    +0.000 C 
ENDROOT
BRANCH   2   3
ATOM      3  N   UNL     1       3.125   3.558  16.912  0.00  0.00    +0.000 N 
ATOM      4  H   UNL     1       3.002   3.140  15.997  0.00  0.00    +0.000 HD
BRANCH   3   5
ATOM      5  C   UNL     1       1.900   3.877  17.635  0.00  0.00    +0.000 C 
BRANCH   5   6
ATOM      6  C   UNL     1       2.000   5.102  18.512  0.00  0.00    +0.000 A 
ATOM      7  C   UNL     1       2.319   6.349  17.939  0.00  0.00    +0.000 A 
ATOM      8  C   UNL     1       2.402   7.505  18.718  0.00  0.00    +0.000 A 
ATOM      9  C   UNL     1       2.151   7.442  20.084  0.00  0.00    +0.000 A 
ATOM     10  C   UNL     1       1.807   6.225  20.669  0.00  0.00    +0.000 A 
ATOM     11  C   UNL     1       1.720   5.065  19.889  0.00  0.00    +0.000 A 
ATOM     12 BR   UNL     1       1.198   3.473  20.788  0.00  0.00    +0.000 Br
ENDBRANCH   5   6
ENDBRANCH   3   5
ENDBRANCH   2   3
BRANCH   2  13
ATOM     13  N   UNL     1       5.433   3.716  16.905  0.00  0.00    +0.000 N 
ATOM     14  H   UNL     1       5.854   3.100  16.220  0.00  0.00    +0.000 HD
BRANCH  13  15
ATOM     15  C   UNL     1       6.229   4.803  17.316  0.00  0.00    +0.000 A 
ATOM     16  C   UNL     1       5.994   6.051  16.731  0.00  0.00    +0.000 A 
ATOM     17  C   UNL     1       6.721   7.173  17.139  0.00  0.00    +0.000 A 
ATOM     18  C   UNL     1       7.662   7.060  18.161  0.00  0.00    +0.000 A 
ATOM     19  C   UNL     1       7.879   5.825  18.769  0.00  0.00    +0.000 A 
ATOM     20  C   UNL     1       7.168   4.700  18.346  0.00  0.00    +0.000 A 
ENDBRANCH  13  15
ENDBRANCH   2  13
TORSDOF 5
ENDMDL
MODEL 4
REMARK VINA RESULT:      -6.0      2.210      3.530
REMARK  Name = 
REMARK  5 active torsions:
REMARK  status: ('A' for Active; 'I' for Inactive)
REMARK    1  A    between atoms: C_2  and  N_3
REMARK    2  A    between atoms: C_2  and  N_12
REMARK    3  A    between atoms: N_3  and  C_4
REMARK    4  A    between atoms: C_4  and  C_5
REMARK    5  A    between atoms: N_12  and  C_13
REMARK                            x       y       z     vdW  Elec       q    Type
REMARK                         _______ _______ _______ _____ _____    ______ ____
ROOT
ATOM      1  S   UNL     1       5.654   4.088  15.751  0.00  0.00    +0.000 S 
ATOM      2  C   UNL     1       5.437   4.424  17.374  0.00  0.00    +0.000 C 
ENDROOT
BRANCH   2   3
ATOM      3  N   UNL     1       5.215   3.358  18.208  0.00  0.00    +0.000 N 
ATOM      4  H   UNL     1       5.635   3.487  19.121  0.00  0.00    +0.000 HD
BRANCH   3   5
ATOM      5  C   UNL     1       4.041   2.496  18.165  0.00  0.00    +0.000 C 
BRANCH   5   6
ATOM      6  C   UNL     1       3.063   2.725  19.293  0.00  0.00    +0.000 A 
ATOM      7  C   UNL     1       3.394   2.320  20.601  0.00  0.00    +0.000 A 
ATOM      8  C   UNL     1       2.521   2.533  21.669  0.00  0.00    +0.000 A 
ATOM      9  C   UNL     1       1.304   3.171  21.455  0.00  0.00    +0.000 A 
ATOM     10  C   UNL     1       0.966   3.606  20.176  0.00  0.00    +0.000 A 
ATOM     11  C   UNL     1       1.841   3.396  19.103  0.00  0.00    +0.000 A 
ATOM     12 BR   UNL     1       1.294   4.071  17.412  0.00  0.00    +0.000 Br
ENDBRANCH   5   6
ENDBRANCH   3   5
ENDBRANCH   2   3
BRANCH   2  13
ATOM     13  N   UNL     1       5.395   5.653  17.978  0.00  0.00    +0.000 N 
ATOM     14  H   UNL     1       6.260   5.914  18.435  0.00  0.00    +0.000 HD
BRANCH  13  15
ATOM     15  C   UNL     1       4.272   6.438  18.310  0.00  0.00    +0.000 A 
ATOM     16  C   UNL     1       3.820   7.371  17.371  0.00  0.00    +0.000 A 
ATOM     17  C   UNL     1       2.681   8.140  17.629  0.00  0.00    +0.000 A 
ATOM     18  C   UNL     1       1.967   7.952  18.812  0.00  0.00    +0.000 A 
ATOM     19  C   UNL     1       2.396   7.003  19.737  0.00  0.00    +0.000 A 
ATOM     20  C   UNL     1       3.546   6.251  19.489  0.00  0.00    +0.000 A 
ENDBRANCH  13  15
ENDBRANCH   2  13
TORSDOF 5
ENDMDL
MODEL 5
REMARK VINA RESULT:      -6.0      2.776      4.023
REMARK  Name = 
REMARK  5 active torsions:
REMARK  status: ('A' for Active; 'I' for Inactive)
REMARK    1  A    between atoms: C_2  and  N_3
REMARK    2  A    between atoms: C_2  and  N_12
REMARK    3  A    between atoms: N_3  and  C_4
REMARK    4  A    between atoms: C_4  and  C_5
REMARK    5  A    between atoms: N_12  and  C_13
REMARK                            x       y       z     vdW  Elec       q    Type
REMARK                         _______ _______ _______ _____ _____    ______ ____
ROOT
ATOM      1  S   UNL     1       5.503   6.263  16.830  0.00  0.00    +0.000 S 
ATOM      2  C   UNL     1       5.902   4.645  16.952  0.00  0.00    +0.000 C 
ENDROOT
BRANCH   2   3
ATOM      3  N   UNL     1       6.067   4.135  18.214  0.00  0.00    +0.000 N 
ATOM      4  H   UNL     1       7.044   4.043  18.470  0.00  0.00    +0.000 HD
BRANCH   3   5
ATOM      5  C   UNL     1       5.136   4.324  19.319  0.00  0.00    +0.000 C 
BRANCH   5   6
ATOM      6  C   UNL     1       3.767   3.733  19.083  0.00  0.00    +0.000 A 
ATOM      7  C   UNL     1       3.631   2.348  18.860  0.00  0.00    +0.000 A 
ATOM      8  C   UNL     1       2.378   1.766  18.656  0.00  0.00    +0.000 A 
ATOM      9  C   UNL     1       1.233   2.554  18.687  0.00  0.00    +0.000 A 
ATOM     10  C   UNL     1       1.339   3.921  18.933  0.00  0.00    +0.000 A 
ATOM     11  C   UNL     1       2.594   4.506  19.141  0.00  0.00    +0.000 A 
ATOM     12 BR   UNL     1       2.613   6.371  19.512  0.00  0.00    +0.000 Br
ENDBRANCH   5   6
ENDBRANCH   3   5
ENDBRANCH   2   3
BRANCH   2  13
ATOM     13  N   UNL     1       6.145   3.761  15.932  0.00  0.00    +0.000 N 
ATOM     14  H   UNL     1       6.350   2.821  16.247  0.00  0.00    +0.000 HD
BRANCH  13  15
ATOM     15  C   UNL     1       6.446   4.029  14.582  0.00  0.00    +0.000 A 
ATOM     16  C   UNL     1       7.457   4.955  14.303  0.00  0.00    +0.000 A 
ATOM     17  C   UNL     1       7.828   5.220  12.982  0.00  0.00    +0.000 A 
ATOM     18  C   UNL     1       7.216   4.534  11.934  0.00  0.00    +0.000 A 
ATOM     19  C   UNL     1       6.229   3.588  12.208  0.00  0.00    +0.000 A 
ATOM     20  C   UNL     1       5.843   3.340  13.527  0.00  0.00    +0.000 A 
ENDBRANCH  13  15
ENDBRANCH   2  13
TORSDOF 5
ENDMDL
MODEL 6
REMARK VINA RESULT:      -6.0      2.646      4.921
REMARK  Name = 
REMARK  5 active torsions:
REMARK  status: ('A' for Active; 'I' for Inactive)
REMARK    1  A    between atoms: C_2  and  N_3
REMARK    2  A    between atoms: C_2  and  N_12
REMARK    3  A    between atoms: N_3  and  C_4
REMARK    4  A    between atoms: C_4  and  C_5
REMARK    5  A    between atoms: N_12  and  C_13
REMARK                            x       y       z     vdW  Elec       q    Type
REMARK                         _______ _______ _______ _____ _____    ______ ____
ROOT
ATOM      1  S   UNL     1       2.021   3.313  21.175  0.00  0.00    +0.000 S 
ATOM      2  C   UNL     1       2.649   4.573  20.275  0.00  0.00    +0.000 C 
ENDROOT
BRANCH   2   3
ATOM      3  N   UNL     1       3.336   4.245  19.134  0.00  0.00    +0.000 N 
ATOM      4  H   UNL     1       2.918   4.644  18.302  0.00  0.00    +0.000 HD
BRANCH   3   5
ATOM      5  C   UNL     1       4.770   3.993  19.068  0.00  0.00    +0.000 C 
BRANCH   5   6
ATOM      6  C   UNL     1       5.400   4.352  17.743  0.00  0.00    +0.000 A 
ATOM      7  C   UNL     1       4.753   3.999  16.542  0.00  0.00    +0.000 A 
ATOM      8  C   UNL     1       5.299   4.331  15.300  0.00  0.00    +0.000 A 
ATOM      9  C   UNL     1       6.495   5.037  15.233  0.00  0.00    +0.000 A 
ATOM     10  C   UNL     1       7.139   5.421  16.407  0.00  0.00    +0.000 A 
ATOM     11  C   UNL     1       6.592   5.092  17.653  0.00  0.00    +0.000 A 
ATOM     12 BR   UNL     1       7.535   5.708  19.186  0.00  0.00    +0.000 Br
ENDBRANCH   5   6
ENDBRANCH   3   5
ENDBRANCH   2   3
BRANCH   2  13
ATOM     13  N   UNL     1       2.614   5.912  20.566  0.00  0.00    +0.000 N 
ATOM     14  H   UNL     1       2.588   6.113  21.558  0.00  0.00    +0.000 HD
BRANCH  13  15
ATOM     15  C   UNL     1       2.306   6.995  19.717  0.00  0.00    +0.000 A 
ATOM     16  C   UNL     1       1.619   8.084  20.261  0.00  0.00    +0.000 A 
ATOM     17  C   UNL     1       1.334   9.205  19.476  0.00  0.00    +0.000 A 
ATOM     18  C   UNL     1       1.767   9.257  18.152  0.00  0.00    +0.000 A 
ATOM     19  C   UNL     1       2.479   8.187  17.614  0.00  0.00    +0.000 A 
ATOM     20  C   UNL     1       2.744   7.058  18.392  0.00  0.00    +0.000 A 
ENDBRANCH  13  15
ENDBRANCH   2  13
TORSDOF 5
ENDMDL
MODEL 7
REMARK VINA RESULT:      -6.0      2.661      3.642
REMARK  Name = 
REMARK  5 active torsions:
REMARK  status: ('A' for Active; 'I' for Inactive)
REMARK    1  A    between atoms: C_2  and  N_3
REMARK    2  A    between atoms: C_2  and  N_12
REMARK    3  A    between atoms: N_3  and  C_4
REMARK    4  A    between atoms: C_4  and  C_5
REMARK    5  A    between atoms: N_12  and  C_13
REMARK                            x       y       z     vdW  Elec       q    Type
REMARK                         _______ _______ _______ _____ _____    ______ ____
ROOT
ATOM      1  S   UNL     1       7.558   4.786  17.843  0.00  0.00    +0.000 S 
ATOM      2  C   UNL     1       6.070   4.490  17.141  0.00  0.00    +0.000 C 
ENDROOT
BRANCH   2   3
ATOM      3  N   UNL     1       4.962   4.945  17.809  0.00  0.00    +0.000 N 
ATOM      4  H   UNL     1       5.178   5.703  18.446  0.00  0.00    +0.000 HD
BRANCH   3   5
ATOM      5  C   UNL     1       3.604   4.926  17.281  0.00  0.00    +0.000 C 
BRANCH   5   6
ATOM      6  C   UNL     1       2.605   4.220  18.167  0.00  0.00    +0.000 A 
ATOM      7  C   UNL     1       2.303   2.863  17.939  0.00  0.00    +0.000 A 
ATOM      8  C   UNL     1       1.399   2.176  18.751  0.00  0.00    +0.000 A 
ATOM      9  C   UNL     1       0.789   2.826  19.818  0.00  0.00    +0.000 A 
ATOM     10  C   UNL     1       1.093   4.160  20.080  0.00  0.00    +0.000 A 
ATOM     11  C   UNL     1       2.002   4.851  19.270  0.00  0.00    +0.000 A 
ATOM     12 BR   UNL     1       2.372   6.653  19.750  0.00  0.00    +0.000 Br
ENDBRANCH   5   6
ENDBRANCH   3   5
ENDBRANCH   2   3
BRANCH   2  13
ATOM     13  N   UNL     1       5.809   3.789  15.993  0.00  0.00    +0.000 N 
ATOM     14  H   UNL     1       5.384   2.884  16.155  0.00  0.00    +0.000 HD
BRANCH  13  15
ATOM     15  C   UNL     1       6.308   4.002  14.692  0.00  0.00    +0.000 A 
ATOM     16  C   UNL     1       5.706   3.313  13.634  0.00  0.00    +0.000 A 
ATOM     17  C   UNL     1       6.130   3.526  12.319  0.00  0.00    +0.000 A 
ATOM     18  C   UNL     1       7.134   4.456  12.052  0.00  0.00    +0.000 A 
ATOM     19  C   UNL     1       7.716   5.167  13.100  0.00  0.00    +0.000 A 
ATOM     20  C   UNL     1       7.308   4.938  14.416  0.00  0.00    +0.000 A 
ENDBRANCH  13  15
ENDBRANCH   2  13
TORSDOF 5
ENDMDL
MODEL 8
REMARK VINA RESULT:      -5.9      2.165      3.891
REMARK  Name = 
REMARK  5 active torsions:
REMARK  status: ('A' for Active; 'I' for Inactive)
REMARK    1  A    between atoms: C_2  and  N_3
REMARK    2  A    between atoms: C_2  and  N_12
REMARK    3  A    between atoms: N_3  and  C_4
REMARK    4  A    between atoms: C_4  and  C_5
REMARK    5  A    between atoms: N_12  and  C_13
REMARK                            x       y       z     vdW  Elec       q    Type
REMARK                         _______ _______ _______ _____ _____    ______ ____
ROOT
ATOM      1  S   UNL     1       5.856   5.074  18.601  0.00  0.00    +0.000 S 
ATOM      2  C   UNL     1       4.494   5.243  17.647  0.00  0.00    +0.000 C 
ENDROOT
BRANCH   2   3
ATOM      3  N   UNL     1       4.020   4.114  17.030  0.00  0.00    +0.000 N 
ATOM      4  H   UNL     1       4.323   4.044  16.065  0.00  0.00    +0.000 HD
BRANCH   3   5
ATOM      5  C   UNL     1       3.739   2.851  17.702  0.00  0.00    +0.000 C 
BRANCH   5   6
ATOM      6  C   UNL     1       2.843   2.979  18.910  0.00  0.00    +0.000 A 
ATOM      7  C   UNL     1       1.530   3.470  18.760  0.00  0.00    +0.000 A 
ATOM      8  C   UNL     1       0.670   3.584  19.854  0.00  0.00    +0.000 A 
ATOM      9  C   UNL     1       1.097   3.194  21.119  0.00  0.00    +0.000 A 
ATOM     10  C   UNL     1       2.381   2.680  21.287  0.00  0.00    +0.000 A 
ATOM     11  C   UNL     1       3.245   2.562  20.192  0.00  0.00    +0.000 A 
ATOM     12 BR   UNL     1       4.955   1.806  20.534  0.00  0.00    +0.000 Br
ENDBRANCH   5   6
ENDBRANCH   3   5
ENDBRANCH   2   3
BRANCH   2  13
ATOM     13  N   UNL     1       3.814   6.396  17.352  0.00  0.00    +0.000 N 
ATOM     14  H   UNL     1       4.154   6.870  16.524  0.00  0.00    +0.000 HD
BRANCH  13  15
ATOM     15  C   UNL     1       2.950   7.148  18.172  0.00  0.00    +0.000 A 
ATOM     16  C   UNL     1       2.695   6.680  19.465  0.00  0.00    +0.000 A 
ATOM     17  C   UNL     1       1.886   7.414  20.337  0.00  0.00    +0.000 A 
ATOM     18  C   UNL     1       1.356   8.639  19.932  0.00  0.00    +0.000 A 
ATOM     19  C   UNL     1       1.631   9.124  18.655  0.00  0.00    +0.000 A 
ATOM     20  C   UNL     1       2.422   8.380  17.777  0.00  0.00    +0.000 A 
ENDBRANCH  13  15
ENDBRANCH   2  13
TORSDOF 5
ENDMDL
MODEL 9
REMARK VINA RESULT:      -5.9      2.797      3.886
REMARK  Name = 
REMARK  5 active torsions:
REMARK  status: ('A' for Active; 'I' for Inactive)
REMARK    1  A    between atoms: C_2  and  N_3
REMARK    2  A    between atoms: C_2  and  N_12
REMARK    3  A    between atoms: N_3  and  C_4
REMARK    4  A    between atoms: C_4  and  C_5
REMARK    5  A    between atoms: N_12  and  C_13
REMARK                            x       y       z     vdW  Elec       q    Type
REMARK                         _______ _______ _______ _____ _____    ______ ____
ROOT
ATOM      1  S   UNL     1       7.551   4.625  17.605  0.00  0.00    +0.000 S 
ATOM      2  C   UNL     1       6.136   5.212  16.937  0.00  0.00    +0.000 C 
ENDROOT
BRANCH   2   3
ATOM      3  N   UNL     1       5.010   5.167  17.718  0.00  0.00    +0.000 N 
ATOM      4  H   UNL     1       4.158   5.176  17.170  0.00  0.00    +0.000 HD
BRANCH   3   5
ATOM      5  C   UNL     1       4.923   4.515  19.019  0.00  0.00    +0.000 C 
BRANCH   5   6
ATOM      6  C   UNL     1       3.511   4.243  19.481  0.00  0.00    +0.000 A 
ATOM      7  C   UNL     1       2.796   5.240  20.173  0.00  0.00    +0.000 A 
ATOM      8  C   UNL     1       1.483   5.027  20.598  0.00  0.00    +0.000 A 
ATOM      9  C   UNL     1       0.851   3.819  20.325  0.00  0.00    +0.000 A 
ATOM     10  C   UNL     1       1.528   2.828  19.618  0.00  0.00    +0.000 A 
ATOM     11  C   UNL     1       2.844   3.040  19.188  0.00  0.00    +0.000 A 
ATOM     12 BR   UNL     1       3.651   1.635  18.193  0.00  0.00    +0.000 Br
ENDBRANCH   5   6
ENDBRANCH   3   5
ENDBRANCH   2   3
BRANCH   2  13
ATOM     13  N   UNL     1       5.942   5.686  15.665  0.00  0.00    +0.000 N 
ATOM     14  H   UNL     1       5.327   6.490  15.619  0.00  0.00    +0.000 HD
BRANCH  13  15
ATOM     15  C   UNL     1       6.213   5.056  14.434  0.00  0.00    +0.000 A 
ATOM     16  C   UNL     1       7.411   5.368  13.783  0.00  0.00    +0.000 A 
ATOM     17  C   UNL     1       7.752   4.734  12.585  0.00  0.00    +0.000 A 
ATOM     18  C   UNL     1       6.913   3.757  12.051  0.00  0.00    +0.000 A 
ATOM     19  C   UNL     1       5.733   3.420  12.711  0.00  0.00    +0.000 A 
ATOM     20  C   UNL     1       5.382   4.070  13.896  0.00  0.00    +0.000 A 
ENDBRANCH  13  15
ENDBRANCH   2  13
TORSDOF 5
ENDMDL
