MODEL 1
REMARK VINA RESULT:      -7.5      0.000      0.000
REMARK  Name = 
REMARK  4 active torsions:
REMARK  status: ('A' for Active; 'I' for Inactive)
REMARK    1  A    between atoms: C_1  and  O_2
REMARK    2  A    between atoms: O_2  and  C_3
REMARK    3  A    between atoms: C_5  and  C_6
REMARK    4  A    between atoms: N_14  and  C_15
REMARK                            x       y       z     vdW  Elec       q    Type
REMARK                         _______ _______ _______ _____ _____    ______ ____
ROOT
ATOM      1  C   UNL     1       7.131   6.402  16.621  0.00  0.00    +0.000 A 
ATOM      2  C   UNL     1       6.146   6.442  17.575  0.00  0.00    +0.000 A 
ATOM      3  C   UNL     1       5.189   5.451  17.504  0.00  0.00    +0.000 A 
ATOM      4  N   UNL     1       5.232   4.506  16.536  0.00  0.00    +0.000 NA
ATOM      5  C   UNL     1       6.225   4.573  15.647  0.00  0.00    +0.000 A 
ATOM      6  N   UNL     1       6.274   3.613  14.659  0.00  0.00    +0.000 N 
ATOM      7  N   UNL     1       7.200   5.475  15.658  0.00  0.00    +0.000 NA
ATOM      8  H   UNL     1       5.798   2.777  14.961  0.00  0.00    +0.000 HD
ATOM      9  H   UNL     1       7.221   3.518  14.322  0.00  0.00    +0.000 HD
ENDROOT
BRANCH   3  10
ATOM     10  C   UNL     1       4.066   5.378  18.453  0.00  0.00    +0.000 A 
ATOM     11  C   UNL     1       3.162   6.443  18.634  0.00  0.00    +0.000 A 
ATOM     12  C   UNL     1       2.140   6.341  19.567  0.00  0.00    +0.000 A 
ATOM     13  N   UNL     1       1.908   5.277  20.357  0.00  0.00    +0.000 NA
ATOM     14  C   UNL     1       2.775   4.266  20.155  0.00  0.00    +0.000 A 
ATOM     15  C   UNL     1       3.841   4.231  19.254  0.00  0.00    +0.000 A 
ATOM     16  C   UNL     1       4.454   2.951  19.422  0.00  0.00    +0.000 A 
ATOM     17  C   UNL     1       3.758   2.260  20.392  0.00  0.00    +0.000 A 
ATOM     18  N   UNL     1       2.746   3.072  20.829  0.00  0.00    +0.000 N 
ATOM     19  C   UNL     1       1.781   2.742  21.851  0.00  0.00    +0.000 C 
ENDBRANCH   3  10
BRANCH   1  21
ATOM     20  C   UNL     1       7.843   8.335  17.729  0.00  0.00    +0.000 C 
ATOM     21  O   UNL     1       8.085   7.400  16.680  0.00  0.00    +0.000 OA
ENDBRANCH   1  21
TORSDOF 2
ENDMDL
MODEL 2
REMARK VINA RESULT:      -7.4      1.422      2.341
REMARK  Name = 
REMARK  4 active torsions:
REMARK  status: ('A' for Active; 'I' for Inactive)
REMARK    1  A    between atoms: C_1  and  O_2
REMARK    2  A    between atoms: O_2  and  C_3
REMARK    3  A    between atoms: C_5  and  C_6
REMARK    4  A    between atoms: N_14  and  C_15
REMARK                            x       y       z     vdW  Elec       q    Type
REMARK                         _______ _______ _______ _____ _____    ______ ____
ROOT
ATOM      1  C   UNL     1       6.523   4.939  15.876  0.00  0.00    +0.000 A 
ATOM      2  C   UNL     1       5.417   4.695  16.651  0.00  0.00    +0.000 A 
ATOM      3  C   UNL     1       5.156   5.614  17.646  0.00  0.00    +0.000 A 
ATOM      4  N   UNL     1       5.960   6.685  17.837  0.00  0.00    +0.000 NA
ATOM      5  C   UNL     1       7.020   6.816  17.037  0.00  0.00    +0.000 A 
ATOM      6  N   UNL     1       7.843   7.906  17.226  0.00  0.00    +0.000 N 
ATOM      7  N   UNL     1       7.331   5.994  16.040  0.00  0.00    +0.000 NA
ATOM      8  H   UNL     1       7.334   8.655  17.670  0.00  0.00    +0.000 HD
ATOM      9  H   UNL     1       8.334   8.116  16.369  0.00  0.00    +0.000 HD
ENDROOT
BRANCH   3  10
ATOM     10  C   UNL     1       4.012   5.472  18.562  0.00  0.00    +0.000 A 
ATOM     11  C   UNL     1       3.060   6.494  18.744  0.00  0.00    +0.000 A 
ATOM     12  C   UNL     1       2.020   6.326  19.646  0.00  0.00    +0.000 A 
ATOM     13  N   UNL     1       1.812   5.235  20.404  0.00  0.00    +0.000 NA
ATOM     14  C   UNL     1       2.725   4.265  20.201  0.00  0.00    +0.000 A 
ATOM     15  C   UNL     1       3.815   4.296  19.329  0.00  0.00    +0.000 A 
ATOM     16  C   UNL     1       4.475   3.039  19.483  0.00  0.00    +0.000 A 
ATOM     17  C   UNL     1       3.784   2.296  20.417  0.00  0.00    +0.000 A 
ATOM     18  N   UNL     1       2.728   3.054  20.845  0.00  0.00    +0.000 N 
ATOM     19  C   UNL     1       1.751   2.659  21.832  0.00  0.00    +0.000 C 
ENDBRANCH   3  10
BRANCH   1  21
ATOM     20  C   UNL     1       5.842   4.042  13.827  0.00  0.00    +0.000 C 
ATOM     21  O   UNL     1       6.797   4.016  14.886  0.00  0.00    +0.000 OA
ENDBRANCH   1  21
TORSDOF 2
ENDMDL
MODEL 3
REMARK VINA RESULT:      -7.4      2.790      4.301
REMARK  Name = 
REMARK  4 active torsions:
REMARK  status: ('A' for Active; 'I' for Inactive)
REMARK    1  A    between atoms: C_1  and  O_2
REMARK    2  A    between atoms: O_2  and  C_3
REMARK    3  A    between atoms: C_5  and  C_6
REMARK    4  A    between atoms: N_14  and  C_15
REMARK                            x       y       z     vdW  Elec       q    Type
REMARK                         _______ _______ _______ _____ _____    ______ ____
ROOT
ATOM      1  C   UNL     1       6.278   3.621  12.873  0.00  0.00    +0.000 A 
ATOM      2  C   UNL     1       5.964   3.611  14.208  0.00  0.00    +0.000 A 
ATOM      3  C   UNL     1       6.635   4.522  14.999  0.00  0.00    +0.000 A 
ATOM      4  N   UNL     1       7.552   5.364  14.470  0.00  0.00    +0.000 NA
ATOM      5  C   UNL     1       7.793   5.276  13.161  0.00  0.00    +0.000 A 
ATOM      6  N   UNL     1       8.727   6.133  12.615  0.00  0.00    +0.000 N 
ATOM      7  N   UNL     1       7.176   4.449  12.324  0.00  0.00    +0.000 NA
ATOM      8  H   UNL     1       8.815   6.961  13.185  0.00  0.00    +0.000 HD
ATOM      9  H   UNL     1       8.541   6.258  11.631  0.00  0.00    +0.000 HD
ENDROOT
BRANCH   3  10
ATOM     10  C   UNL     1       6.410   4.613  16.451  0.00  0.00    +0.000 A 
ATOM     11  C   UNL     1       7.432   4.973  17.351  0.00  0.00    +0.000 A 
ATOM     12  C   UNL     1       7.180   5.011  18.715  0.00  0.00    +0.000 A 
ATOM     13  N   UNL     1       6.003   4.725  19.300  0.00  0.00    +0.000 NA
ATOM     14  C   UNL     1       5.037   4.399  18.418  0.00  0.00    +0.000 A 
ATOM     15  C   UNL     1       5.148   4.324  17.029  0.00  0.00    +0.000 A 
ATOM     16  C   UNL     1       3.858   3.937  16.553  0.00  0.00    +0.000 A 
ATOM     17  C   UNL     1       3.019   3.794  17.639  0.00  0.00    +0.000 A 
ATOM     18  N   UNL     1       3.750   4.074  18.762  0.00  0.00    +0.000 N 
ATOM     19  C   UNL     1       3.259   4.035  20.119  0.00  0.00    +0.000 C 
ENDBRANCH   3  10
BRANCH   1  21
ATOM     20  C   UNL     1       4.426   3.228  11.502  0.00  0.00    +0.000 C 
ATOM     21  O   UNL     1       5.619   2.703  12.079  0.00  0.00    +0.000 OA
ENDBRANCH   1  21
TORSDOF 2
ENDMDL
MODEL 4
REMARK VINA RESULT:      -7.3      2.476      6.173
REMARK  Name = 
REMARK  4 active torsions:
REMARK  status: ('A' for Active; 'I' for Inactive)
REMARK    1  A    between atoms: C_1  and  O_2
REMARK    2  A    between atoms: O_2  and  C_3
REMARK    3  A    between atoms: C_5  and  C_6
REMARK    4  A    between atoms: N_14  and  C_15
REMARK                            x       y       z     vdW  Elec       q    Type
REMARK                         _______ _______ _______ _____ _____    ______ ____
ROOT
ATOM      1  C   UNL     1       2.672   3.560  19.337  0.00  0.00    +0.000 A 
ATOM      2  C   UNL     1       3.462   4.327  18.519  0.00  0.00    +0.000 A 
ATOM      3  C   UNL     1       4.819   4.092  18.588  0.00  0.00    +0.000 A 
ATOM      4  N   UNL     1       5.325   3.159  19.427  0.00  0.00    +0.000 NA
ATOM      5  C   UNL     1       4.466   2.482  20.192  0.00  0.00    +0.000 A 
ATOM      6  N   UNL     1       4.976   1.529  21.050  0.00  0.00    +0.000 N 
ATOM      7  N   UNL     1       3.146   2.627  20.171  0.00  0.00    +0.000 NA
ATOM      8  H   UNL     1       5.866   1.196  20.711  0.00  0.00    +0.000 HD
ATOM      9  H   UNL     1       4.265   0.842  21.257  0.00  0.00    +0.000 HD
ENDROOT
BRANCH   3  10
ATOM     10  C   UNL     1       5.788   4.851  17.779  0.00  0.00    +0.000 A 
ATOM     11  C   UNL     1       6.513   5.941  18.297  0.00  0.00    +0.000 A 
ATOM     12  C   UNL     1       7.388   6.647  17.484  0.00  0.00    +0.000 A 
ATOM     13  N   UNL     1       7.630   6.388  16.187  0.00  0.00    +0.000 NA
ATOM     14  C   UNL     1       6.938   5.331  15.718  0.00  0.00    +0.000 A 
ATOM     15  C   UNL     1       6.032   4.533  16.419  0.00  0.00    +0.000 A 
ATOM     16  C   UNL     1       5.566   3.557  15.486  0.00  0.00    +0.000 A 
ATOM     17  C   UNL     1       6.189   3.781  14.276  0.00  0.00    +0.000 A 
ATOM     18  N   UNL     1       7.014   4.861  14.432  0.00  0.00    +0.000 N 
ATOM     19  C   UNL     1       7.849   5.441  13.407  0.00  0.00    +0.000 C 
ENDBRANCH   3  10
BRANCH   1  21
ATOM     20  C   UNL     1       0.560   2.636  18.945  0.00  0.00    +0.000 C 
ATOM     21  O   UNL     1       1.313   3.800  19.281  0.00  0.00    +0.000 OA
ENDBRANCH   1  21
TORSDOF 2
ENDMDL
MODEL 5
REMARK VINA RESULT:      -7.2      2.267      2.895
REMARK  Name = 
REMARK  4 active torsions:
REMARK  status: ('A' for Active; 'I' for Inactive)
REMARK    1  A    between atoms: C_1  and  O_2
REMARK    2  A    between atoms: O_2  and  C_3
REMARK    3  A    between atoms: C_5  and  C_6
REMARK    4  A    between atoms: N_14  and  C_15
REMARK                            x       y       z     vdW  Elec       q    Type
REMARK                         _______ _______ _______ _____ _____    ______ ____
ROOT
ATOM      1  C   UNL     1       7.312   7.126  17.787  0.00  0.00    +0.000 A 
ATOM      2  C   UNL     1       6.142   6.491  17.459  0.00  0.00    +0.000 A 
ATOM      3  C   UNL     1       5.825   5.375  18.207  0.00  0.00    +0.000 A 
ATOM      4  N   UNL     1       6.639   4.944  19.198  0.00  0.00    +0.000 NA
ATOM      5  C   UNL     1       7.763   5.628  19.419  0.00  0.00    +0.000 A 
ATOM      6  N   UNL     1       8.597   5.193  20.429  0.00  0.00    +0.000 N 
ATOM      7  N   UNL     1       8.132   6.724  18.766  0.00  0.00    +0.000 NA
ATOM      8  H   UNL     1       8.073   4.667  21.111  0.00  0.00    +0.000 HD
ATOM      9  H   UNL     1       9.161   5.962  20.760  0.00  0.00    +0.000 HD
ENDROOT
BRANCH   3  10
ATOM     10  C   UNL     1       4.607   4.586  17.957  0.00  0.00    +0.000 A 
ATOM     11  C   UNL     1       4.392   3.895  16.749  0.00  0.00    +0.000 A 
ATOM     12  C   UNL     1       3.212   3.193  16.547  0.00  0.00    +0.000 A 
ATOM     13  N   UNL     1       2.200   3.097  17.428  0.00  0.00    +0.000 NA
ATOM     14  C   UNL     1       2.436   3.752  18.581  0.00  0.00    +0.000 A 
ATOM     15  C   UNL     1       3.571   4.491  18.920  0.00  0.00    +0.000 A 
ATOM     16  C   UNL     1       3.337   4.987  20.239  0.00  0.00    +0.000 A 
ATOM     17  C   UNL     1       2.099   4.544  20.656  0.00  0.00    +0.000 A 
ATOM     18  N   UNL     1       1.564   3.800  19.639  0.00  0.00    +0.000 N 
ATOM     19  C   UNL     1       0.273   3.156  19.654  0.00  0.00    +0.000 C 
ENDBRANCH   3  10
BRANCH   1  21
ATOM     20  C   UNL     1       8.120   9.320  17.827  0.00  0.00    +0.000 C 
ATOM     21  O   UNL     1       7.641   8.237  17.033  0.00  0.00    +0.000 OA
ENDBRANCH   1  21
TORSDOF 2
ENDMDL
MODEL 6
REMARK VINA RESULT:      -7.2      2.137      2.641
REMARK  Name = 
REMARK  4 active torsions:
REMARK  status: ('A' for Active; 'I' for Inactive)
REMARK    1  A    between atoms: C_1  and  O_2
REMARK    2  A    between atoms: O_2  and  C_3
REMARK    3  A    between atoms: C_5  and  C_6
REMARK    4  A    between atoms: N_14  and  C_15
REMARK                            x       y       z     vdW  Elec       q    Type
REMARK                         _______ _______ _______ _____ _____    ______ ____
ROOT
ATOM      1  C   UNL     1       7.102   5.812  17.055  0.00  0.00    +0.000 A 
ATOM      2  C   UNL     1       5.767   5.611  17.298  0.00  0.00    +0.000 A 
ATOM      3  C   UNL     1       5.421   5.333  18.605  0.00  0.00    +0.000 A 
ATOM      4  N   UNL     1       6.361   5.260  19.576  0.00  0.00    +0.000 NA
ATOM      5  C   UNL     1       7.633   5.455  19.225  0.00  0.00    +0.000 A 
ATOM      6  N   UNL     1       8.595   5.383  20.210  0.00  0.00    +0.000 N 
ATOM      7  N   UNL     1       8.050   5.752  17.999  0.00  0.00    +0.000 NA
ATOM      8  H   UNL     1       8.187   5.581  21.111  0.00  0.00    +0.000 HD
ATOM      9  H   UNL     1       9.406   5.917  19.935  0.00  0.00    +0.000 HD
ENDROOT
BRANCH   3  10
ATOM     10  C   UNL     1       4.028   5.080  19.009  0.00  0.00    +0.000 A 
ATOM     11  C   UNL     1       3.290   5.996  19.785  0.00  0.00    +0.000 A 
ATOM     12  C   UNL     1       1.992   5.696  20.171  0.00  0.00    +0.000 A 
ATOM     13  N   UNL     1       1.328   4.567  19.867  0.00  0.00    +0.000 NA
ATOM     14  C   UNL     1       2.048   3.714  19.112  0.00  0.00    +0.000 A 
ATOM     15  C   UNL     1       3.354   3.885  18.651  0.00  0.00    +0.000 A 
ATOM     16  C   UNL     1       3.663   2.709  17.903  0.00  0.00    +0.000 A 
ATOM     17  C   UNL     1       2.563   1.877  17.926  0.00  0.00    +0.000 A 
ATOM     18  N   UNL     1       1.593   2.499  18.665  0.00  0.00    +0.000 N 
ATOM     19  C   UNL     1       0.280   1.971  18.950  0.00  0.00    +0.000 C 
ENDBRANCH   3  10
BRANCH   1  21
ATOM     20  C   UNL     1       7.078   5.036  14.850  0.00  0.00    +0.000 C 
ATOM     21  O   UNL     1       7.455   6.078  15.747  0.00  0.00    +0.000 OA
ENDBRANCH   1  21
TORSDOF 2
ENDMDL
MODEL 7
REMARK VINA RESULT:      -7.1      1.940      3.422
REMARK  Name = 
REMARK  4 active torsions:
REMARK  status: ('A' for Active; 'I' for Inactive)
REMARK    1  A    between atoms: C_1  and  O_2
REMARK    2  A    between atoms: O_2  and  C_3
REMARK    3  A    between atoms: C_5  and  C_6
REMARK    4  A    between atoms: N_14  and  C_15
REMARK                            x       y       z     vdW  Elec       q    Type
REMARK                         _______ _______ _______ _____ _____    ______ ____
ROOT
ATOM      1  C   UNL     1       6.611   4.598  14.474  0.00  0.00    +0.000 A 
ATOM      2  C   UNL     1       5.629   3.929  15.158  0.00  0.00    +0.000 A 
ATOM      3  C   UNL     1       5.387   4.356  16.448  0.00  0.00    +0.000 A 
ATOM      4  N   UNL     1       6.093   5.374  16.992  0.00  0.00    +0.000 NA
ATOM      5  C   UNL     1       7.039   5.943  16.242  0.00  0.00    +0.000 A 
ATOM      6  N   UNL     1       7.762   6.981  16.790  0.00  0.00    +0.000 N 
ATOM      7  N   UNL     1       7.320   5.612  14.986  0.00  0.00    +0.000 NA
ATOM      8  H   UNL     1       7.231   7.428  17.522  0.00  0.00    +0.000 HD
ATOM      9  H   UNL     1       8.131   7.566  16.054  0.00  0.00    +0.000 HD
ENDROOT
BRANCH   3  10
ATOM     10  C   UNL     1       4.372   3.720  17.305  0.00  0.00    +0.000 A 
ATOM     11  C   UNL     1       4.148   2.330  17.303  0.00  0.00    +0.000 A 
ATOM     12  C   UNL     1       3.156   1.782  18.103  0.00  0.00    +0.000 A 
ATOM     13  N   UNL     1       2.343   2.472  18.922  0.00  0.00    +0.000 NA
ATOM     14  C   UNL     1       2.587   3.798  18.919  0.00  0.00    +0.000 A 
ATOM     15  C   UNL     1       3.548   4.481  18.172  0.00  0.00    +0.000 A 
ATOM     16  C   UNL     1       3.405   5.860  18.516  0.00  0.00    +0.000 A 
ATOM     17  C   UNL     1       2.388   5.973  19.442  0.00  0.00    +0.000 A 
ATOM     18  N   UNL     1       1.900   4.715  19.673  0.00  0.00    +0.000 N 
ATOM     19  C   UNL     1       0.820   4.381  20.570  0.00  0.00    +0.000 C 
ENDBRANCH   3  10
BRANCH   1  21
ATOM     20  C   UNL     1       5.771   3.456  12.615  0.00  0.00    +0.000 C 
ATOM     21  O   UNL     1       6.867   4.167  13.187  0.00  0.00    +0.000 OA
ENDBRANCH   1  21
TORSDOF 2
ENDMDL
MODEL 8
REMARK VINA RESULT:      -7.1      1.364      2.415
REMARK  Name = 
REMARK  4 active torsions:
REMARK  status: ('A' for Active; 'I' for Inactive)
REMARK    1  A    between atoms: C_1  and  O_2
REMARK    2  A    between atoms: O_2  and  C_3
REMARK    3  A    between atoms: C_5  and  C_6
REMARK    4  A    between atoms: N_14  and  C_15
REMARK                            x       y       z     vdW  Elec       q    Type
REMARK                         _______ _______ _______ _____ _____    ______ ____
ROOT
ATOM      1  C   UNL     1       7.082   5.716  15.996  0.00  0.00    +0.000 A 
ATOM      2  C   UNL     1       6.178   5.264  16.924  0.00  0.00    +0.000 A 
ATOM      3  C   UNL     1       5.397   4.193  16.541  0.00  0.00    +0.000 A 
ATOM      4  N   UNL     1       5.526   3.637  15.314  0.00  0.00    +0.000 NA
ATOM      5  C   UNL     1       6.425   4.168  14.484  0.00  0.00    +0.000 A 
ATOM      6  N   UNL     1       6.561   3.606  13.231  0.00  0.00    +0.000 N 
ATOM      7  N   UNL     1       7.233   5.180  14.779  0.00  0.00    +0.000 NA
ATOM      8  H   UNL     1       6.255   2.645  13.246  0.00  0.00    +0.000 HD
ATOM      9  H   UNL     1       7.483   3.800  12.869  0.00  0.00    +0.000 HD
ENDROOT
BRANCH   3  10
ATOM     10  C   UNL     1       4.375   3.612  17.428  0.00  0.00    +0.000 A 
ATOM     11  C   UNL     1       4.134   2.226  17.495  0.00  0.00    +0.000 A 
ATOM     12  C   UNL     1       3.135   1.730  18.321  0.00  0.00    +0.000 A 
ATOM     13  N   UNL     1       2.331   2.471  19.104  0.00  0.00    +0.000 NA
ATOM     14  C   UNL     1       2.591   3.791  19.036  0.00  0.00    +0.000 A 
ATOM     15  C   UNL     1       3.560   4.425  18.257  0.00  0.00    +0.000 A 
ATOM     16  C   UNL     1       3.434   5.821  18.532  0.00  0.00    +0.000 A 
ATOM     17  C   UNL     1       2.419   5.992  19.450  0.00  0.00    +0.000 A 
ATOM     18  N   UNL     1       1.916   4.753  19.743  0.00  0.00    +0.000 N 
ATOM     19  C   UNL     1       0.832   4.476  20.655  0.00  0.00    +0.000 C 
ENDBRANCH   3  10
BRANCH   1  21
ATOM     20  C   UNL     1       7.494   7.323  17.644  0.00  0.00    +0.000 C 
ATOM     21  O   UNL     1       7.857   6.797  16.369  0.00  0.00    +0.000 OA
ENDBRANCH   1  21
TORSDOF 2
ENDMDL
MODEL 9
REMARK VINA RESULT:      -7.0      2.698      3.834
REMARK  Name = 
REMARK  4 active torsions:
REMARK  status: ('A' for Active; 'I' for Inactive)
REMARK    1  A    between atoms: C_1  and  O_2
REMARK    2  A    between atoms: O_2  and  C_3
REMARK    3  A    between atoms: C_5  and  C_6
REMARK    4  A    between atoms: N_14  and  C_15
REMARK                            x       y       z     vdW  Elec       q    Type
REMARK                         _______ _______ _______ _____ _____    ______ ____
ROOT
ATOM      1  C   UNL     1       6.041   3.711  12.910  0.00  0.00    +0.000 A 
ATOM      2  C   UNL     1       5.253   4.010  13.992  0.00  0.00    +0.000 A 
ATOM      3  C   UNL     1       5.737   4.978  14.848  0.00  0.00    +0.000 A 
ATOM      4  N   UNL     1       6.928   5.580  14.622  0.00  0.00    +0.000 NA
ATOM      5  C   UNL     1       7.621   5.198  13.548  0.00  0.00    +0.000 A 
ATOM      6  N   UNL     1       8.835   5.809  13.311  0.00  0.00    +0.000 N 
ATOM      7  N   UNL     1       7.219   4.296  12.659  0.00  0.00    +0.000 NA
ATOM      8  H   UNL     1       8.858   6.719  13.745  0.00  0.00    +0.000 HD
ATOM      9  H   UNL     1       9.060   5.751  12.328  0.00  0.00    +0.000 HD
ENDROOT
BRANCH   3  10
ATOM     10  C   UNL     1       5.005   5.389  16.058  0.00  0.00    +0.000 A 
ATOM     11  C   UNL     1       4.817   6.743  16.401  0.00  0.00    +0.000 A 
ATOM     12  C   UNL     1       4.151   7.080  17.570  0.00  0.00    +0.000 A 
ATOM     13  N   UNL     1       3.639   6.208  18.457  0.00  0.00    +0.000 NA
ATOM     14  C   UNL     1       3.817   4.921  18.100  0.00  0.00    +0.000 A 
ATOM     15  C   UNL     1       4.461   4.439  16.959  0.00  0.00    +0.000 A 
ATOM     16  C   UNL     1       4.390   3.015  17.040  0.00  0.00    +0.000 A 
ATOM     17  C   UNL     1       3.719   2.679  18.198  0.00  0.00    +0.000 A 
ATOM     18  N   UNL     1       3.382   3.845  18.830  0.00  0.00    +0.000 N 
ATOM     19  C   UNL     1       2.675   3.950  20.084  0.00  0.00    +0.000 C 
ENDBRANCH   3  10
BRANCH   1  21
ATOM     20  C   UNL     1       4.357   3.112  11.402  0.00  0.00    +0.000 C 
ATOM     21  O   UNL     1       5.568   2.734  12.055  0.00  0.00    +0.000 OA
ENDBRANCH   1  21
TORSDOF 2
ENDMDL
