MODEL 1
REMARK VINA RESULT:      -8.5      0.000      0.000
REMARK  Name = 
REMARK  1 active torsions:
REMARK  status: ('A' for Active; 'I' for Inactive)
REMARK    1  A    between atoms: C_6  and  C_7
REMARK                            x       y       z     vdW  Elec       q    Type
REMARK                         _______ _______ _______ _____ _____    ______ ____
ROOT
ATOM      1  C   UNL     1       3.396   6.405  18.794  0.00  0.00    +0.000 C 
ATOM      2  C   UNL     1       4.472   6.757  17.723  0.00  0.00    +0.000 C 
ATOM      3  N   UNL     1       5.194   5.548  17.340  0.00  0.00    +0.000 NA
ATOM      4  C   UNL     1       6.368   5.739  16.502  0.00  0.00    +0.000 C 
ATOM      5  C   UNL     1       6.508   4.414  15.755  0.00  0.00    +0.000 C 
ATOM      6  C   UNL     1       5.280   3.594  16.139  0.00  0.00    +0.000 C 
ATOM      7  C   UNL     1       4.287   4.641  16.626  0.00  0.00    +0.000 C 
ATOM      8  C   UNL     1       3.184   4.174  17.548  0.00  0.00    +0.000 A 
ATOM      9  C   UNL     1       2.599   2.907  17.404  0.00  0.00    +0.000 A 
ATOM     10  C   UNL     1       1.632   2.467  18.309  0.00  0.00    +0.000 A 
ATOM     11  C   UNL     1       1.221   3.295  19.349  0.00  0.00    +0.000 A 
ATOM     12  C   UNL     1       1.755   4.576  19.476  0.00  0.00    +0.000 A 
ATOM     13  C   UNL     1       2.728   5.038  18.575  0.00  0.00    +0.000 A 
ENDROOT
BRANCH   1  19
ATOM     14 CL   UNL     1       0.260   9.353  21.832  0.00  0.00    +0.000 Cl
ATOM     15  C   UNL     1       0.960   8.967  20.307  0.00  0.00    +0.000 A 
ATOM     16  C   UNL     1       0.629   9.726  19.185  0.00  0.00    +0.000 A 
ATOM     17  C   UNL     1       1.191   9.416  17.951  0.00  0.00    +0.000 A 
ATOM     18  C   UNL     1       2.085   8.350  17.840  0.00  0.00    +0.000 A 
ATOM     19  C   UNL     1       2.438   7.581  18.964  0.00  0.00    +0.000 A 
ATOM     20  C   UNL     1       1.851   7.896  20.203  0.00  0.00    +0.000 A 
ENDBRANCH   1  19
TORSDOF 1
ENDMDL
MODEL 2
REMARK VINA RESULT:      -8.3      2.935      5.716
REMARK  Name = 
REMARK  1 active torsions:
REMARK  status: ('A' for Active; 'I' for Inactive)
REMARK    1  A    between atoms: C_6  and  C_7
REMARK                            x       y       z     vdW  Elec       q    Type
REMARK                         _______ _______ _______ _____ _____    ______ ____
ROOT
ATOM      1  C   UNL     1       3.304   5.621  17.640  0.00  0.00    +0.000 C 
ATOM      2  C   UNL     1       3.335   7.137  17.997  0.00  0.00    +0.000 C 
ATOM      3  N   UNL     1       2.153   7.480  18.781  0.00  0.00    +0.000 NA
ATOM      4  C   UNL     1       1.928   8.897  19.019  0.00  0.00    +0.000 C 
ATOM      5  C   UNL     1       1.112   8.930  20.310  0.00  0.00    +0.000 C 
ATOM      6  C   UNL     1       1.051   7.484  20.794  0.00  0.00    +0.000 C 
ATOM      7  C   UNL     1       2.228   6.820  20.091  0.00  0.00    +0.000 C 
ATOM      8  C   UNL     1       2.176   5.318  19.923  0.00  0.00    +0.000 A 
ATOM      9  C   UNL     1       1.601   4.494  20.900  0.00  0.00    +0.000 A 
ATOM     10  C   UNL     1       1.500   3.117  20.695  0.00  0.00    +0.000 A 
ATOM     11  C   UNL     1       1.993   2.548  19.524  0.00  0.00    +0.000 A 
ATOM     12  C   UNL     1       2.613   3.347  18.565  0.00  0.00    +0.000 A 
ATOM     13  C   UNL     1       2.726   4.734  18.754  0.00  0.00    +0.000 A 
ENDROOT
BRANCH   1  19
ATOM     14 CL   UNL     1       6.317   3.807  13.717  0.00  0.00    +0.000 Cl
ATOM     15  C   UNL     1       6.107   4.337  15.342  0.00  0.00    +0.000 A 
ATOM     16  C   UNL     1       7.201   4.354  16.207  0.00  0.00    +0.000 A 
ATOM     17  C   UNL     1       7.035   4.780  17.521  0.00  0.00    +0.000 A 
ATOM     18  C   UNL     1       5.778   5.192  17.967  0.00  0.00    +0.000 A 
ATOM     19  C   UNL     1       4.667   5.191  17.104  0.00  0.00    +0.000 A 
ATOM     20  C   UNL     1       4.846   4.745  15.782  0.00  0.00    +0.000 A 
ENDBRANCH   1  19
TORSDOF 1
ENDMDL
MODEL 3
REMARK VINA RESULT:      -7.9      3.203      6.295
REMARK  Name = 
REMARK  1 active torsions:
REMARK  status: ('A' for Active; 'I' for Inactive)
REMARK    1  A    between atoms: C_6  and  C_7
REMARK                            x       y       z     vdW  Elec       q    Type
REMARK                         _______ _______ _______ _____ _____    ______ ____
ROOT
ATOM      1  C   UNL     1       4.900   4.469  17.143  0.00  0.00    +0.000 C 
ATOM      2  C   UNL     1       4.250   3.070  17.368  0.00  0.00    +0.000 C 
ATOM      3  N   UNL     1       3.331   3.135  18.500  0.00  0.00    +0.000 NA
ATOM      4  C   UNL     1       2.799   1.865  18.969  0.00  0.00    +0.000 C 
ATOM      5  C   UNL     1       1.473   2.241  19.627  0.00  0.00    +0.000 C 
ATOM      6  C   UNL     1       1.284   3.729  19.350  0.00  0.00    +0.000 C 
ATOM      7  C   UNL     1       2.189   3.989  18.153  0.00  0.00    +0.000 C 
ATOM      8  C   UNL     1       2.649   5.412  17.929  0.00  0.00    +0.000 A 
ATOM      9  C   UNL     1       1.817   6.503  18.219  0.00  0.00    +0.000 A 
ATOM     10  C   UNL     1       2.286   7.809  18.073  0.00  0.00    +0.000 A 
ATOM     11  C   UNL     1       3.579   8.039  17.611  0.00  0.00    +0.000 A 
ATOM     12  C   UNL     1       4.401   6.966  17.269  0.00  0.00    +0.000 A 
ATOM     13  C   UNL     1       3.947   5.645  17.409  0.00  0.00    +0.000 A 
ENDROOT
BRANCH   1  19
ATOM     14 CL   UNL     1       5.017   3.273  12.013  0.00  0.00    +0.000 Cl
ATOM     15  C   UNL     1       5.732   3.953  13.424  0.00  0.00    +0.000 A 
ATOM     16  C   UNL     1       7.002   4.523  13.345  0.00  0.00    +0.000 A 
ATOM     17  C   UNL     1       7.584   5.072  14.484  0.00  0.00    +0.000 A 
ATOM     18  C   UNL     1       6.894   5.056  15.697  0.00  0.00    +0.000 A 
ATOM     19  C   UNL     1       5.607   4.494  15.790  0.00  0.00    +0.000 A 
ATOM     20  C   UNL     1       5.037   3.929  14.635  0.00  0.00    +0.000 A 
ENDBRANCH   1  19
TORSDOF 1
ENDMDL
MODEL 4
REMARK VINA RESULT:      -7.9      1.297      1.827
REMARK  Name = 
REMARK  1 active torsions:
REMARK  status: ('A' for Active; 'I' for Inactive)
REMARK    1  A    between atoms: C_6  and  C_7
REMARK                            x       y       z     vdW  Elec       q    Type
REMARK                         _______ _______ _______ _____ _____    ______ ____
ROOT
ATOM      1  C   UNL     1       2.800   6.593  19.583  0.00  0.00    +0.000 C 
ATOM      2  C   UNL     1       3.620   6.992  18.320  0.00  0.00    +0.000 C 
ATOM      3  N   UNL     1       4.313   5.819  17.796  0.00  0.00    +0.000 NA
ATOM      4  C   UNL     1       5.284   6.065  16.741  0.00  0.00    +0.000 C 
ATOM      5  C   UNL     1       5.340   4.743  15.977  0.00  0.00    +0.000 C 
ATOM      6  C   UNL     1       4.258   3.864  16.597  0.00  0.00    +0.000 C 
ATOM      7  C   UNL     1       3.329   4.863  17.276  0.00  0.00    +0.000 C 
ATOM      8  C   UNL     1       2.459   4.346  18.398  0.00  0.00    +0.000 A 
ATOM      9  C   UNL     1       1.924   3.050  18.370  0.00  0.00    +0.000 A 
ATOM     10  C   UNL     1       1.181   2.567  19.448  0.00  0.00    +0.000 A 
ATOM     11  C   UNL     1       0.943   3.380  20.552  0.00  0.00    +0.000 A 
ATOM     12  C   UNL     1       1.425   4.688  20.574  0.00  0.00    +0.000 A 
ATOM     13  C   UNL     1       2.173   5.193  19.498  0.00  0.00    +0.000 A 
ENDROOT
BRANCH   1  19
ATOM     14 CL   UNL     1       0.289  11.052  18.329  0.00  0.00    +0.000 Cl
ATOM     15  C   UNL     1       0.663   9.788  19.436  0.00  0.00    +0.000 A 
ATOM     16  C   UNL     1       0.095   9.797  20.709  0.00  0.00    +0.000 A 
ATOM     17  C   UNL     1       0.397   8.778  21.607  0.00  0.00    +0.000 A 
ATOM     18  C   UNL     1       1.262   7.749  21.230  0.00  0.00    +0.000 A 
ATOM     19  C   UNL     1       1.835   7.720  19.945  0.00  0.00    +0.000 A 
ATOM     20  C   UNL     1       1.533   8.764  19.052  0.00  0.00    +0.000 A 
ENDBRANCH   1  19
TORSDOF 1
ENDMDL
MODEL 5
REMARK VINA RESULT:      -7.8      2.633      5.479
REMARK  Name = 
REMARK  1 active torsions:
REMARK  status: ('A' for Active; 'I' for Inactive)
REMARK    1  A    between atoms: C_6  and  C_7
REMARK                            x       y       z     vdW  Elec       q    Type
REMARK                         _______ _______ _______ _____ _____    ______ ____
ROOT
ATOM      1  C   UNL     1       3.192   5.525  17.637  0.00  0.00    +0.000 C 
ATOM      2  C   UNL     1       3.283   7.023  18.057  0.00  0.00    +0.000 C 
ATOM      3  N   UNL     1       2.109   7.381  18.847  0.00  0.00    +0.000 NA
ATOM      4  C   UNL     1       1.941   8.796  19.143  0.00  0.00    +0.000 C 
ATOM      5  C   UNL     1       1.115   8.809  20.428  0.00  0.00    +0.000 C 
ATOM      6  C   UNL     1       0.991   7.348  20.851  0.00  0.00    +0.000 C 
ATOM      7  C   UNL     1       2.146   6.665  20.128  0.00  0.00    +0.000 C 
ATOM      8  C   UNL     1       2.034   5.175  19.898  0.00  0.00    +0.000 A 
ATOM      9  C   UNL     1       1.418   4.336  20.836  0.00  0.00    +0.000 A 
ATOM     10  C   UNL     1       1.261   2.974  20.573  0.00  0.00    +0.000 A 
ATOM     11  C   UNL     1       1.741   2.434  19.383  0.00  0.00    +0.000 A 
ATOM     12  C   UNL     1       2.402   3.246  18.462  0.00  0.00    +0.000 A 
ATOM     13  C   UNL     1       2.570   4.618  18.710  0.00  0.00    +0.000 A 
ENDROOT
BRANCH   1  19
ATOM     14 CL   UNL     1       8.335   4.606  18.321  0.00  0.00    +0.000 Cl
ATOM     15  C   UNL     1       6.922   4.638  17.337  0.00  0.00    +0.000 A 
ATOM     16  C   UNL     1       7.007   4.257  15.999  0.00  0.00    +0.000 A 
ATOM     17  C   UNL     1       5.868   4.283  15.200  0.00  0.00    +0.000 A 
ATOM     18  C   UNL     1       4.645   4.685  15.741  0.00  0.00    +0.000 A 
ATOM     19  C   UNL     1       4.542   5.062  17.093  0.00  0.00    +0.000 A 
ATOM     20  C   UNL     1       5.704   5.045  17.885  0.00  0.00    +0.000 A 
ENDBRANCH   1  19
TORSDOF 1
ENDMDL
MODEL 6
REMARK VINA RESULT:      -7.8      1.421      3.394
REMARK  Name = 
REMARK  1 active torsions:
REMARK  status: ('A' for Active; 'I' for Inactive)
REMARK    1  A    between atoms: C_6  and  C_7
REMARK                            x       y       z     vdW  Elec       q    Type
REMARK                         _______ _______ _______ _____ _____    ______ ____
ROOT
ATOM      1  C   UNL     1       2.762   6.206  17.882  0.00  0.00    +0.000 C 
ATOM      2  C   UNL     1       2.001   4.973  18.454  0.00  0.00    +0.000 C 
ATOM      3  N   UNL     1       2.709   3.750  18.091  0.00  0.00    +0.000 NA
ATOM      4  C   UNL     1       2.019   2.500  18.374  0.00  0.00    +0.000 C 
ATOM      5  C   UNL     1       3.147   1.482  18.527  0.00  0.00    +0.000 C 
ATOM      6  C   UNL     1       4.441   2.288  18.452  0.00  0.00    +0.000 C 
ATOM      7  C   UNL     1       4.000   3.707  18.789  0.00  0.00    +0.000 C 
ATOM      8  C   UNL     1       4.886   4.838  18.317  0.00  0.00    +0.000 A 
ATOM      9  C   UNL     1       6.281   4.704  18.280  0.00  0.00    +0.000 A 
ATOM     10  C   UNL     1       7.077   5.734  17.775  0.00  0.00    +0.000 A 
ATOM     11  C   UNL     1       6.491   6.914  17.327  0.00  0.00    +0.000 A 
ATOM     12  C   UNL     1       5.109   7.082  17.405  0.00  0.00    +0.000 A 
ATOM     13  C   UNL     1       4.292   6.059  17.911  0.00  0.00    +0.000 A 
ENDROOT
BRANCH   1  19
ATOM     14 CL   UNL     1       1.139   8.889  22.116  0.00  0.00    +0.000 Cl
ATOM     15  C   UNL     1       1.437   8.770  20.424  0.00  0.00    +0.000 A 
ATOM     16  C   UNL     1       1.152   9.855  19.597  0.00  0.00    +0.000 A 
ATOM     17  C   UNL     1       1.390   9.761  18.229  0.00  0.00    +0.000 A 
ATOM     18  C   UNL     1       1.915   8.585  17.691  0.00  0.00    +0.000 A 
ATOM     19  C   UNL     1       2.218   7.485  18.514  0.00  0.00    +0.000 A 
ATOM     20  C   UNL     1       1.959   7.588  19.893  0.00  0.00    +0.000 A 
ENDBRANCH   1  19
TORSDOF 1
ENDMDL
MODEL 7
REMARK VINA RESULT:      -7.4      2.489      5.380
REMARK  Name = 
REMARK  1 active torsions:
REMARK  status: ('A' for Active; 'I' for Inactive)
REMARK    1  A    between atoms: C_6  and  C_7
REMARK                            x       y       z     vdW  Elec       q    Type
REMARK                         _______ _______ _______ _____ _____    ______ ____
ROOT
ATOM      1  C   UNL     1       2.964   6.158  17.882  0.00  0.00    +0.000 C 
ATOM      2  C   UNL     1       2.883   7.611  18.440  0.00  0.00    +0.000 C 
ATOM      3  N   UNL     1       1.688   7.751  19.266  0.00  0.00    +0.000 NA
ATOM      4  C   UNL     1       1.358   9.102  19.694  0.00  0.00    +0.000 C 
ATOM      5  C   UNL     1       0.557   8.896  20.979  0.00  0.00    +0.000 C 
ATOM      6  C   UNL     1       0.614   7.398  21.264  0.00  0.00    +0.000 C 
ATOM      7  C   UNL     1       1.830   6.929  20.474  0.00  0.00    +0.000 C 
ATOM      8  C   UNL     1       1.892   5.464  20.105  0.00  0.00    +0.000 A 
ATOM      9  C   UNL     1       1.394   4.473  20.963  0.00  0.00    +0.000 A 
ATOM     10  C   UNL     1       1.397   3.133  20.574  0.00  0.00    +0.000 A 
ATOM     11  C   UNL     1       1.918   2.767  19.336  0.00  0.00    +0.000 A 
ATOM     12  C   UNL     1       2.463   3.734  18.493  0.00  0.00    +0.000 A 
ATOM     13  C   UNL     1       2.471   5.087  18.867  0.00  0.00    +0.000 A 
ENDROOT
BRANCH   1  19
ATOM     14 CL   UNL     1       8.024   7.526  17.347  0.00  0.00    +0.000 Cl
ATOM     15  C   UNL     1       6.688   6.502  16.985  0.00  0.00    +0.000 A 
ATOM     16  C   UNL     1       6.859   5.431  16.108  0.00  0.00    +0.000 A 
ATOM     17  C   UNL     1       5.781   4.603  15.812  0.00  0.00    +0.000 A 
ATOM     18  C   UNL     1       4.536   4.843  16.395  0.00  0.00    +0.000 A 
ATOM     19  C   UNL     1       4.350   5.912  17.290  0.00  0.00    +0.000 A 
ATOM     20  C   UNL     1       5.444   6.751  17.570  0.00  0.00    +0.000 A 
ENDBRANCH   1  19
TORSDOF 1
ENDMDL
MODEL 8
REMARK VINA RESULT:      -7.1      3.348      6.475
REMARK  Name = 
REMARK  1 active torsions:
REMARK  status: ('A' for Active; 'I' for Inactive)
REMARK    1  A    between atoms: C_6  and  C_7
REMARK                            x       y       z     vdW  Elec       q    Type
REMARK                         _______ _______ _______ _____ _____    ______ ____
ROOT
ATOM      1  C   UNL     1       5.301   4.224  16.623  0.00  0.00    +0.000 C 
ATOM      2  C   UNL     1       4.645   2.839  16.908  0.00  0.00    +0.000 C 
ATOM      3  N   UNL     1       3.861   2.913  18.137  0.00  0.00    +0.000 NA
ATOM      4  C   UNL     1       3.353   1.651  18.652  0.00  0.00    +0.000 C 
ATOM      5  C   UNL     1       2.119   2.051  19.459  0.00  0.00    +0.000 C 
ATOM      6  C   UNL     1       1.938   3.547  19.218  0.00  0.00    +0.000 C 
ATOM      7  C   UNL     1       2.709   3.799  17.928  0.00  0.00    +0.000 C 
ATOM      8  C   UNL     1       3.177   5.212  17.666  0.00  0.00    +0.000 A 
ATOM      9  C   UNL     1       2.411   6.319  18.057  0.00  0.00    +0.000 A 
ATOM     10  C   UNL     1       2.893   7.616  17.870  0.00  0.00    +0.000 A 
ATOM     11  C   UNL     1       4.131   7.819  17.267  0.00  0.00    +0.000 A 
ATOM     12  C   UNL     1       4.882   6.731  16.826  0.00  0.00    +0.000 A 
ATOM     13  C   UNL     1       4.414   5.419  17.004  0.00  0.00    +0.000 A 
ENDROOT
BRANCH   1  19
ATOM     14 CL   UNL     1       8.896   5.847  13.131  0.00  0.00    +0.000 Cl
ATOM     15  C   UNL     1       7.466   4.978  13.535  0.00  0.00    +0.000 A 
ATOM     16  C   UNL     1       6.770   4.295  12.539  0.00  0.00    +0.000 A 
ATOM     17  C   UNL     1       5.613   3.593  12.862  0.00  0.00    +0.000 A 
ATOM     18  C   UNL     1       5.155   3.572  14.181  0.00  0.00    +0.000 A 
ATOM     19  C   UNL     1       5.852   4.247  15.199  0.00  0.00    +0.000 A 
ATOM     20  C   UNL     1       7.012   4.965  14.857  0.00  0.00    +0.000 A 
ENDBRANCH   1  19
TORSDOF 1
ENDMDL
MODEL 9
REMARK VINA RESULT:      -7.0      3.266      6.235
REMARK  Name = 
REMARK  1 active torsions:
REMARK  status: ('A' for Active; 'I' for Inactive)
REMARK    1  A    between atoms: C_6  and  C_7
REMARK                            x       y       z     vdW  Elec       q    Type
REMARK                         _______ _______ _______ _____ _____    ______ ____
ROOT
ATOM      1  C   UNL     1       5.358   4.756  17.329  0.00  0.00    +0.000 C 
ATOM      2  C   UNL     1       5.057   3.367  17.969  0.00  0.00    +0.000 C 
ATOM      3  N   UNL     1       4.378   3.554  19.247  0.00  0.00    +0.000 NA
ATOM      4  C   UNL     1       4.211   2.363  20.066  0.00  0.00    +0.000 C 
ATOM      5  C   UNL     1       2.988   2.676  20.926  0.00  0.00    +0.000 C 
ATOM      6  C   UNL     1       2.456   4.011  20.414  0.00  0.00    +0.000 C 
ATOM      7  C   UNL     1       3.043   4.118  19.013  0.00  0.00    +0.000 C 
ATOM      8  C   UNL     1       3.158   5.501  18.414  0.00  0.00    +0.000 A 
ATOM      9  C   UNL     1       2.196   6.489  18.669  0.00  0.00    +0.000 A 
ATOM     10  C   UNL     1       2.357   7.781  18.165  0.00  0.00    +0.000 A 
ATOM     11  C   UNL     1       3.464   8.091  17.380  0.00  0.00    +0.000 A 
ATOM     12  C   UNL     1       4.403   7.106  17.075  0.00  0.00    +0.000 A 
ATOM     13  C   UNL     1       4.258   5.801  17.572  0.00  0.00    +0.000 A 
ENDROOT
BRANCH   1  19
ATOM     14 CL   UNL     1       8.663   5.745  13.348  0.00  0.00    +0.000 Cl
ATOM     15  C   UNL     1       7.247   5.005  13.989  0.00  0.00    +0.000 A 
ATOM     16  C   UNL     1       6.436   4.234  13.156  0.00  0.00    +0.000 A 
ATOM     17  C   UNL     1       5.290   3.636  13.671  0.00  0.00    +0.000 A 
ATOM     18  C   UNL     1       4.958   3.805  15.016  0.00  0.00    +0.000 A 
ATOM     19  C   UNL     1       5.772   4.571  15.871  0.00  0.00    +0.000 A 
ATOM     20  C   UNL     1       6.920   5.182  15.335  0.00  0.00    +0.000 A 
ENDBRANCH   1  19
TORSDOF 1
ENDMDL
