MODEL 1
REMARK VINA RESULT:      -7.9      0.000      0.000
REMARK  Name = 
REMARK  7 active torsions:
REMARK  status: ('A' for Active; 'I' for Inactive)
REMARK    1  A    between atoms: C_2  and  C_3
REMARK    2  A    between atoms: C_3  and  C_4
REMARK    3  A    between atoms: C_4  and  P_5
REMARK    4  A    between atoms: P_5  and  O_7
REMARK    5  A    between atoms: P_5  and  O_8
REMARK    6  A    between atoms: N_9  and  C_10
REMARK    7  A    between atoms: C_10  and  C_11
REMARK                            x       y       z     vdW  Elec       q    Type
REMARK                         _______ _______ _______ _____ _____    ______ ____
ROOT
ATOM      1  O   UNL     1       4.786   4.610  16.469  0.00  0.00    +0.000 OA
ATOM      2  C   UNL     1       4.394   5.570  17.129  0.00  0.00    +0.000 C 
ATOM      3  N   UNL     1       3.157   5.585  17.777  0.00  0.00    +0.000 N 
ATOM      4  C   UNL     1       2.590   6.760  18.315  0.00  0.00    +0.000 A 
ATOM      5  C   UNL     1       2.285   7.814  17.459  0.00  0.00    +0.000 A 
ATOM      6  C   UNL     1       1.788   8.998  17.996  0.00  0.00    +0.000 A 
ATOM      7  C   UNL     1       1.604   9.090  19.369  0.00  0.00    +0.000 A 
ATOM      8  C   UNL     1       1.894   7.979  20.143  0.00  0.00    +0.000 A 
ATOM      9  N   UNL     1       2.363   6.814  19.641  0.00  0.00    +0.000 NA
ENDROOT
BRANCH   2  10
ATOM     10  C   UNL     1       5.277   6.801  17.324  0.00  0.00    +0.000 C 
BRANCH  10  11
ATOM     11  C   UNL     1       6.779   6.517  17.289  0.00  0.00    +0.000 C 
BRANCH  11  12
ATOM     12  P   UNL     1       7.327   5.883  18.915  0.00  0.00    +0.000 P 
ATOM     13  O   UNL     1       8.031   4.697  18.253  0.00  0.00    +0.000 OA
BRANCH  12  14
ATOM     14  O   UNL     1       8.493   7.029  19.004  0.00  0.00    +0.000 OA
ATOM     15  H   UNL     1       8.237   7.713  19.652  0.00  0.00    +0.000 HD
ENDBRANCH  12  14
BRANCH  12  16
ATOM     16  O   UNL     1       7.846   5.283  20.453  0.00  0.00    +0.000 OA
ATOM     17  H   UNL     1       7.099   4.737  20.773  0.00  0.00    +0.000 HD
ENDBRANCH  12  16
ENDBRANCH  11  12
ENDBRANCH  10  11
ENDBRANCH   2  10
BRANCH   3  18
ATOM     18  C   UNL     1       2.302   4.401  17.786  0.00  0.00    +0.000 C 
BRANCH  18  19
ATOM     19  C   UNL     1       2.258   3.685  19.117  0.00  0.00    +0.000 A 
ATOM     20  C   UNL     1       1.050   3.553  19.818  0.00  0.00    +0.000 A 
ATOM     21  C   UNL     1       1.018   2.932  21.067  0.00  0.00    +0.000 A 
ATOM     22  C   UNL     1       2.192   2.431  21.626  0.00  0.00    +0.000 A 
ATOM     23  C   UNL     1       3.394   2.536  20.929  0.00  0.00    +0.000 A 
ATOM     24  C   UNL     1       3.429   3.158  19.681  0.00  0.00    +0.000 A 
ENDBRANCH  18  19
ENDBRANCH   3  18
TORSDOF 7
ENDMDL
MODEL 2
REMARK VINA RESULT:      -7.8      0.157      1.040
REMARK  Name = 
REMARK  7 active torsions:
REMARK  status: ('A' for Active; 'I' for Inactive)
REMARK    1  A    between atoms: C_2  and  C_3
REMARK    2  A    between atoms: C_3  and  C_4
REMARK    3  A    between atoms: C_4  and  P_5
REMARK    4  A    between atoms: P_5  and  O_7
REMARK    5  A    between atoms: P_5  and  O_8
REMARK    6  A    between atoms: N_9  and  C_10
REMARK    7  A    between atoms: C_10  and  C_11
REMARK                            x       y       z     vdW  Elec       q    Type
REMARK                         _______ _______ _______ _____ _____    ______ ____
ROOT
ATOM      1  O   UNL     1       4.635   4.592  16.612  0.00  0.00    +0.000 OA
ATOM      2  C   UNL     1       4.267   5.591  17.226  0.00  0.00    +0.000 C 
ATOM      3  N   UNL     1       3.030   5.669  17.869  0.00  0.00    +0.000 N 
ATOM      4  C   UNL     1       2.494   6.881  18.353  0.00  0.00    +0.000 A 
ATOM      5  C   UNL     1       2.219   7.904  17.449  0.00  0.00    +0.000 A 
ATOM      6  C   UNL     1       1.753   9.123  17.931  0.00  0.00    +0.000 A 
ATOM      7  C   UNL     1       1.569   9.282  19.298  0.00  0.00    +0.000 A 
ATOM      8  C   UNL     1       1.827   8.199  20.121  0.00  0.00    +0.000 A 
ATOM      9  N   UNL     1       2.265   7.001  19.674  0.00  0.00    +0.000 NA
ENDROOT
BRANCH   2  10
ATOM     10  C   UNL     1       5.183   6.806  17.369  0.00  0.00    +0.000 C 
BRANCH  10  11
ATOM     11  C   UNL     1       6.677   6.489  17.282  0.00  0.00    +0.000 C 
BRANCH  11  12
ATOM     12  P   UNL     1       7.281   5.904  18.907  0.00  0.00    +0.000 P 
ATOM     13  O   UNL     1       7.938   4.683  18.259  0.00  0.00    +0.000 OA
BRANCH  12  14
ATOM     14  O   UNL     1       8.467   7.032  18.906  0.00  0.00    +0.000 OA
ATOM     15  H   UNL     1       9.089   6.859  19.640  0.00  0.00    +0.000 HD
ENDBRANCH  12  14
BRANCH  12  16
ATOM     16  O   UNL     1       7.853   5.349  20.442  0.00  0.00    +0.000 OA
ATOM     17  H   UNL     1       7.244   5.750  21.095  0.00  0.00    +0.000 HD
ENDBRANCH  12  16
ENDBRANCH  11  12
ENDBRANCH  10  11
ENDBRANCH   2  10
BRANCH   3  18
ATOM     18  C   UNL     1       2.143   4.509  17.928  0.00  0.00    +0.000 C 
BRANCH  18  19
ATOM     19  C   UNL     1       2.180   3.775  19.250  0.00  0.00    +0.000 A 
ATOM     20  C   UNL     1       3.371   3.191  19.710  0.00  0.00    +0.000 A 
ATOM     21  C   UNL     1       3.394   2.476  20.907  0.00  0.00    +0.000 A 
ATOM     22  C   UNL     1       2.230   2.340  21.660  0.00  0.00    +0.000 A 
ATOM     23  C   UNL     1       1.047   2.935  21.225  0.00  0.00    +0.000 A 
ATOM     24  C   UNL     1       1.021   3.650  20.028  0.00  0.00    +0.000 A 
ENDBRANCH  18  19
ENDBRANCH   3  18
TORSDOF 7
ENDMDL
MODEL 3
REMARK VINA RESULT:      -7.6      3.974      6.088
REMARK  Name = 
REMARK  7 active torsions:
REMARK  status: ('A' for Active; 'I' for Inactive)
REMARK    1  A    between atoms: C_2  and  C_3
REMARK    2  A    between atoms: C_3  and  C_4
REMARK    3  A    between atoms: C_4  and  P_5
REMARK    4  A    between atoms: P_5  and  O_7
REMARK    5  A    between atoms: P_5  and  O_8
REMARK    6  A    between atoms: N_9  and  C_10
REMARK    7  A    between atoms: C_10  and  C_11
REMARK                            x       y       z     vdW  Elec       q    Type
REMARK                         _______ _______ _______ _____ _____    ______ ____
ROOT
ATOM      1  O   UNL     1       2.910   7.904  18.188  0.00  0.00    +0.000 OA
ATOM      2  C   UNL     1       2.629   7.015  18.989  0.00  0.00    +0.000 C 
ATOM      3  N   UNL     1       3.073   5.699  18.843  0.00  0.00    +0.000 N 
ATOM      4  C   UNL     1       2.555   4.629  19.602  0.00  0.00    +0.000 A 
ATOM      5  C   UNL     1       1.205   4.309  19.482  0.00  0.00    +0.000 A 
ATOM      6  C   UNL     1       0.677   3.297  20.278  0.00  0.00    +0.000 A 
ATOM      7  C   UNL     1       1.513   2.631  21.164  0.00  0.00    +0.000 A 
ATOM      8  C   UNL     1       2.852   2.985  21.189  0.00  0.00    +0.000 A 
ATOM      9  N   UNL     1       3.390   3.953  20.414  0.00  0.00    +0.000 NA
ENDROOT
BRANCH   2  10
ATOM     10  C   UNL     1       1.807   7.319  20.241  0.00  0.00    +0.000 C 
BRANCH  10  11
ATOM     11  C   UNL     1       1.277   8.751  20.320  0.00  0.00    +0.000 C 
BRANCH  11  12
ATOM     12  P   UNL     1       0.932   9.188  22.063  0.00  0.00    +0.000 P 
ATOM     13  O   UNL     1       0.804  10.669  21.701  0.00  0.00    +0.000 OA
BRANCH  12  14
ATOM     14  O   UNL     1      -0.598   8.621  21.935  0.00  0.00    +0.000 OA
ATOM     15  H   UNL     1      -1.234   9.343  22.104  0.00  0.00    +0.000 HD
ENDBRANCH  12  14
BRANCH  12  16
ATOM     16  O   UNL     1       0.606   9.602  23.711  0.00  0.00    +0.000 OA
ATOM     17  H   UNL     1      -0.219   9.123  23.931  0.00  0.00    +0.000 HD
ENDBRANCH  12  16
ENDBRANCH  11  12
ENDBRANCH  10  11
ENDBRANCH   2  10
BRANCH   3  18
ATOM     18  C   UNL     1       3.993   5.335  17.769  0.00  0.00    +0.000 C 
BRANCH  18  19
ATOM     19  C   UNL     1       5.411   5.814  17.985  0.00  0.00    +0.000 A 
ATOM     20  C   UNL     1       6.192   5.287  19.024  0.00  0.00    +0.000 A 
ATOM     21  C   UNL     1       7.484   5.761  19.252  0.00  0.00    +0.000 A 
ATOM     22  C   UNL     1       8.011   6.762  18.439  0.00  0.00    +0.000 A 
ATOM     23  C   UNL     1       7.254   7.278  17.389  0.00  0.00    +0.000 A 
ATOM     24  C   UNL     1       5.961   6.806  17.161  0.00  0.00    +0.000 A 
ENDBRANCH  18  19
ENDBRANCH   3  18
TORSDOF 7
ENDMDL
MODEL 4
REMARK VINA RESULT:      -7.5      3.978      6.081
REMARK  Name = 
REMARK  7 active torsions:
REMARK  status: ('A' for Active; 'I' for Inactive)
REMARK    1  A    between atoms: C_2  and  C_3
REMARK    2  A    between atoms: C_3  and  C_4
REMARK    3  A    between atoms: C_4  and  P_5
REMARK    4  A    between atoms: P_5  and  O_7
REMARK    5  A    between atoms: P_5  and  O_8
REMARK    6  A    between atoms: N_9  and  C_10
REMARK    7  A    between atoms: C_10  and  C_11
REMARK                            x       y       z     vdW  Elec       q    Type
REMARK                         _______ _______ _______ _____ _____    ______ ____
ROOT
ATOM      1  O   UNL     1       2.900   7.902  18.203  0.00  0.00    +0.000 OA
ATOM      2  C   UNL     1       2.608   7.010  18.997  0.00  0.00    +0.000 C 
ATOM      3  N   UNL     1       3.067   5.699  18.863  0.00  0.00    +0.000 N 
ATOM      4  C   UNL     1       2.542   4.624  19.609  0.00  0.00    +0.000 A 
ATOM      5  C   UNL     1       1.198   4.291  19.456  0.00  0.00    +0.000 A 
ATOM      6  C   UNL     1       0.661   3.274  20.240  0.00  0.00    +0.000 A 
ATOM      7  C   UNL     1       1.481   2.616  21.146  0.00  0.00    +0.000 A 
ATOM      8  C   UNL     1       2.816   2.982  21.204  0.00  0.00    +0.000 A 
ATOM      9  N   UNL     1       3.363   3.956  20.441  0.00  0.00    +0.000 NA
ENDROOT
BRANCH   2  10
ATOM     10  C   UNL     1       1.752   7.306  20.229  0.00  0.00    +0.000 C 
BRANCH  10  11
ATOM     11  C   UNL     1       1.248   8.747  20.320  0.00  0.00    +0.000 C 
BRANCH  11  12
ATOM     12  P   UNL     1       0.934   9.183  22.069  0.00  0.00    +0.000 P 
ATOM     13  O   UNL     1       0.821  10.667  21.713  0.00  0.00    +0.000 OA
BRANCH  12  14
ATOM     14  O   UNL     1      -0.605   8.638  21.961  0.00  0.00    +0.000 OA
ATOM     15  H   UNL     1      -1.202   9.228  22.460  0.00  0.00    +0.000 HD
ENDBRANCH  12  14
BRANCH  12  16
ATOM     16  O   UNL     1       0.637   9.597  23.723  0.00  0.00    +0.000 OA
ATOM     17  H   UNL     1      -0.128   9.044  23.985  0.00  0.00    +0.000 HD
ENDBRANCH  12  16
ENDBRANCH  11  12
ENDBRANCH  10  11
ENDBRANCH   2  10
BRANCH   3  18
ATOM     18  C   UNL     1       4.017   5.343  17.811  0.00  0.00    +0.000 C 
BRANCH  18  19
ATOM     19  C   UNL     1       5.420   5.855  18.051  0.00  0.00    +0.000 A 
ATOM     20  C   UNL     1       5.969   6.848  17.227  0.00  0.00    +0.000 A 
ATOM     21  C   UNL     1       7.279   7.288  17.421  0.00  0.00    +0.000 A 
ATOM     22  C   UNL     1       8.051   6.744  18.445  0.00  0.00    +0.000 A 
ATOM     23  C   UNL     1       7.509   5.774  19.285  0.00  0.00    +0.000 A 
ATOM     24  C   UNL     1       6.200   5.332  19.092  0.00  0.00    +0.000 A 
ENDBRANCH  18  19
ENDBRANCH   3  18
TORSDOF 7
ENDMDL
MODEL 5
REMARK VINA RESULT:      -7.3      2.667      4.765
REMARK  Name = 
REMARK  7 active torsions:
REMARK  status: ('A' for Active; 'I' for Inactive)
REMARK    1  A    between atoms: C_2  and  C_3
REMARK    2  A    between atoms: C_3  and  C_4
REMARK    3  A    between atoms: C_4  and  P_5
REMARK    4  A    between atoms: P_5  and  O_7
REMARK    5  A    between atoms: P_5  and  O_8
REMARK    6  A    between atoms: N_9  and  C_10
REMARK    7  A    between atoms: C_10  and  C_11
REMARK                            x       y       z     vdW  Elec       q    Type
REMARK                         _______ _______ _______ _____ _____    ______ ____
ROOT
ATOM      1  O   UNL     1       2.993   3.727  16.950  0.00  0.00    +0.000 OA
ATOM      2  C   UNL     1       4.133   4.116  17.194  0.00  0.00    +0.000 C 
ATOM      3  N   UNL     1       4.448   4.863  18.331  0.00  0.00    +0.000 N 
ATOM      4  C   UNL     1       5.682   5.527  18.493  0.00  0.00    +0.000 A 
ATOM      5  C   UNL     1       6.028   6.533  17.595  0.00  0.00    +0.000 A 
ATOM      6  C   UNL     1       7.273   7.143  17.712  0.00  0.00    +0.000 A 
ATOM      7  C   UNL     1       8.131   6.737  18.725  0.00  0.00    +0.000 A 
ATOM      8  C   UNL     1       7.690   5.758  19.600  0.00  0.00    +0.000 A 
ATOM      9  N   UNL     1       6.478   5.163  19.515  0.00  0.00    +0.000 NA
ENDROOT
BRANCH   2  10
ATOM     10  C   UNL     1       5.300   3.753  16.277  0.00  0.00    +0.000 C 
BRANCH  10  11
ATOM     11  C   UNL     1       5.124   4.191  14.822  0.00  0.00    +0.000 C 
BRANCH  11  12
ATOM     12  P   UNL     1       6.697   4.877  14.188  0.00  0.00    +0.000 P 
ATOM     13  O   UNL     1       7.432   4.460  15.464  0.00  0.00    +0.000 OA
BRANCH  12  14
ATOM     14  O   UNL     1       6.890   3.595  13.189  0.00  0.00    +0.000 OA
ATOM     15  H   UNL     1       7.818   3.547  12.886  0.00  0.00    +0.000 HD
ENDBRANCH  12  14
BRANCH  12  16
ATOM     16  O   UNL     1       8.186   5.526  13.590  0.00  0.00    +0.000 OA
ATOM     17  H   UNL     1       8.738   5.660  14.387  0.00  0.00    +0.000 HD
ENDBRANCH  12  16
ENDBRANCH  11  12
ENDBRANCH  10  11
ENDBRANCH   2  10
BRANCH   3  18
ATOM     18  C   UNL     1       3.438   5.132  19.353  0.00  0.00    +0.000 C 
BRANCH  18  19
ATOM     19  C   UNL     1       2.772   6.483  19.217  0.00  0.00    +0.000 A 
ATOM     20  C   UNL     1       2.183   7.103  20.329  0.00  0.00    +0.000 A 
ATOM     21  C   UNL     1       1.529   8.328  20.194  0.00  0.00    +0.000 A 
ATOM     22  C   UNL     1       1.462   8.949  18.949  0.00  0.00    +0.000 A 
ATOM     23  C   UNL     1       2.063   8.353  17.841  0.00  0.00    +0.000 A 
ATOM     24  C   UNL     1       2.716   7.128  17.974  0.00  0.00    +0.000 A 
ENDBRANCH  18  19
ENDBRANCH   3  18
TORSDOF 7
ENDMDL
MODEL 6
REMARK VINA RESULT:      -7.3      2.672      4.842
REMARK  Name = 
REMARK  7 active torsions:
REMARK  status: ('A' for Active; 'I' for Inactive)
REMARK    1  A    between atoms: C_2  and  C_3
REMARK    2  A    between atoms: C_3  and  C_4
REMARK    3  A    between atoms: C_4  and  P_5
REMARK    4  A    between atoms: P_5  and  O_7
REMARK    5  A    between atoms: P_5  and  O_8
REMARK    6  A    between atoms: N_9  and  C_10
REMARK    7  A    between atoms: C_10  and  C_11
REMARK                            x       y       z     vdW  Elec       q    Type
REMARK                         _______ _______ _______ _____ _____    ______ ____
ROOT
ATOM      1  O   UNL     1       2.718   3.947  17.270  0.00  0.00    +0.000 OA
ATOM      2  C   UNL     1       3.891   4.269  17.448  0.00  0.00    +0.000 C 
ATOM      3  N   UNL     1       4.303   5.055  18.526  0.00  0.00    +0.000 N 
ATOM      4  C   UNL     1       5.585   5.638  18.601  0.00  0.00    +0.000 A 
ATOM      5  C   UNL     1       5.962   6.564  17.632  0.00  0.00    +0.000 A 
ATOM      6  C   UNL     1       7.249   7.091  17.666  0.00  0.00    +0.000 A 
ATOM      7  C   UNL     1       8.118   6.684  18.669  0.00  0.00    +0.000 A 
ATOM      8  C   UNL     1       7.648   5.790  19.617  0.00  0.00    +0.000 A 
ATOM      9  N   UNL     1       6.397   5.277  19.613  0.00  0.00    +0.000 NA
ENDROOT
BRANCH   2  10
ATOM     10  C   UNL     1       4.992   3.772  16.511  0.00  0.00    +0.000 C 
BRANCH  10  11
ATOM     11  C   UNL     1       4.864   4.260  15.067  0.00  0.00    +0.000 C 
BRANCH  11  12
ATOM     12  P   UNL     1       6.499   4.801  14.449  0.00  0.00    +0.000 P 
ATOM     13  O   UNL     1       7.200   4.169  15.654  0.00  0.00    +0.000 OA
BRANCH  12  14
ATOM     14  O   UNL     1       6.504   3.612  13.326  0.00  0.00    +0.000 OA
ATOM     15  H   UNL     1       6.244   2.765  13.738  0.00  0.00    +0.000 HD
ENDBRANCH  12  14
BRANCH  12  16
ATOM     16  O   UNL     1       8.046   5.313  13.867  0.00  0.00    +0.000 OA
ATOM     17  H   UNL     1       7.960   6.281  13.747  0.00  0.00    +0.000 HD
ENDBRANCH  12  16
ENDBRANCH  11  12
ENDBRANCH  10  11
ENDBRANCH   2  10
BRANCH   3  18
ATOM     18  C   UNL     1       3.358   5.452  19.566  0.00  0.00    +0.000 C 
BRANCH  18  19
ATOM     19  C   UNL     1       2.657   6.763  19.292  0.00  0.00    +0.000 A 
ATOM     20  C   UNL     1       2.698   7.341  18.014  0.00  0.00    +0.000 A 
ATOM     21  C   UNL     1       2.089   8.573  17.773  0.00  0.00    +0.000 A 
ATOM     22  C   UNL     1       1.428   9.237  18.803  0.00  0.00    +0.000 A 
ATOM     23  C   UNL     1       1.361   8.663  20.071  0.00  0.00    +0.000 A 
ATOM     24  C   UNL     1       1.970   7.431  20.315  0.00  0.00    +0.000 A 
ENDBRANCH  18  19
ENDBRANCH   3  18
TORSDOF 7
ENDMDL
MODEL 7
REMARK VINA RESULT:      -7.1      2.679      3.931
REMARK  Name = 
REMARK  7 active torsions:
REMARK  status: ('A' for Active; 'I' for Inactive)
REMARK    1  A    between atoms: C_2  and  C_3
REMARK    2  A    between atoms: C_3  and  C_4
REMARK    3  A    between atoms: C_4  and  P_5
REMARK    4  A    between atoms: P_5  and  O_7
REMARK    5  A    between atoms: P_5  and  O_8
REMARK    6  A    between atoms: N_9  and  C_10
REMARK    7  A    between atoms: C_10  and  C_11
REMARK                            x       y       z     vdW  Elec       q    Type
REMARK                         _______ _______ _______ _____ _____    ______ ____
ROOT
ATOM      1  O   UNL     1       2.899   4.055  16.902  0.00  0.00    +0.000 OA
ATOM      2  C   UNL     1       4.060   4.352  17.178  0.00  0.00    +0.000 C 
ATOM      3  N   UNL     1       4.395   5.145  18.277  0.00  0.00    +0.000 N 
ATOM      4  C   UNL     1       5.680   5.699  18.457  0.00  0.00    +0.000 A 
ATOM      5  C   UNL     1       6.162   6.602  17.513  0.00  0.00    +0.000 A 
ATOM      6  C   UNL     1       7.454   7.099  17.652  0.00  0.00    +0.000 A 
ATOM      7  C   UNL     1       8.222   6.687  18.733  0.00  0.00    +0.000 A 
ATOM      8  C   UNL     1       7.649   5.819  19.647  0.00  0.00    +0.000 A 
ATOM      9  N   UNL     1       6.391   5.336  19.541  0.00  0.00    +0.000 NA
ENDROOT
BRANCH   2  10
ATOM     10  C   UNL     1       5.226   3.816  16.348  0.00  0.00    +0.000 C 
BRANCH  10  11
ATOM     11  C   UNL     1       5.094   4.053  14.842  0.00  0.00    +0.000 C 
BRANCH  11  12
ATOM     12  P   UNL     1       6.629   4.814  14.200  0.00  0.00    +0.000 P 
ATOM     13  O   UNL     1       7.414   4.346  15.426  0.00  0.00    +0.000 OA
BRANCH  12  14
ATOM     14  O   UNL     1       6.821   3.596  13.124  0.00  0.00    +0.000 OA
ATOM     15  H   UNL     1       6.218   2.860  13.345  0.00  0.00    +0.000 HD
ENDBRANCH  12  14
BRANCH  12  16
ATOM     16  O   UNL     1       8.080   5.535  13.593  0.00  0.00    +0.000 OA
ATOM     17  H   UNL     1       8.653   5.642  14.380  0.00  0.00    +0.000 HD
ENDBRANCH  12  16
ENDBRANCH  11  12
ENDBRANCH  10  11
ENDBRANCH   2  10
BRANCH   3  18
ATOM     18  C   UNL     1       3.373   5.580  19.226  0.00  0.00    +0.000 C 
BRANCH  18  19
ATOM     19  C   UNL     1       2.706   4.446  19.972  0.00  0.00    +0.000 A 
ATOM     20  C   UNL     1       1.309   4.319  19.978  0.00  0.00    +0.000 A 
ATOM     21  C   UNL     1       0.691   3.299  20.703  0.00  0.00    +0.000 A 
ATOM     22  C   UNL     1       1.464   2.393  21.426  0.00  0.00    +0.000 A 
ATOM     23  C   UNL     1       2.854   2.495  21.410  0.00  0.00    +0.000 A 
ATOM     24  C   UNL     1       3.473   3.515  20.686  0.00  0.00    +0.000 A 
ENDBRANCH  18  19
ENDBRANCH   3  18
TORSDOF 7
ENDMDL
MODEL 8
REMARK VINA RESULT:      -7.1      3.085      5.457
REMARK  Name = 
REMARK  7 active torsions:
REMARK  status: ('A' for Active; 'I' for Inactive)
REMARK    1  A    between atoms: C_2  and  C_3
REMARK    2  A    between atoms: C_3  and  C_4
REMARK    3  A    between atoms: C_4  and  P_5
REMARK    4  A    between atoms: P_5  and  O_7
REMARK    5  A    between atoms: P_5  and  O_8
REMARK    6  A    between atoms: N_9  and  C_10
REMARK    7  A    between atoms: C_10  and  C_11
REMARK                            x       y       z     vdW  Elec       q    Type
REMARK                         _______ _______ _______ _____ _____    ______ ____
ROOT
ATOM      1  O   UNL     1       1.355   4.848  17.467  0.00  0.00    +0.000 OA
ATOM      2  C   UNL     1       2.539   4.644  17.727  0.00  0.00    +0.000 C 
ATOM      3  N   UNL     1       3.503   5.655  17.700  0.00  0.00    +0.000 N 
ATOM      4  C   UNL     1       4.888   5.392  17.744  0.00  0.00    +0.000 A 
ATOM      5  C   UNL     1       5.467   4.655  16.715  0.00  0.00    +0.000 A 
ATOM      6  C   UNL     1       6.820   4.338  16.790  0.00  0.00    +0.000 A 
ATOM      7  C   UNL     1       7.555   4.773  17.884  0.00  0.00    +0.000 A 
ATOM      8  C   UNL     1       6.909   5.537  18.842  0.00  0.00    +0.000 A 
ATOM      9  N   UNL     1       5.600   5.871  18.782  0.00  0.00    +0.000 NA
ENDROOT
BRANCH   2  10
ATOM     10  C   UNL     1       3.022   3.259  18.154  0.00  0.00    +0.000 C 
BRANCH  10  11
ATOM     11  C   UNL     1       1.920   2.335  18.675  0.00  0.00    +0.000 C 
BRANCH  11  12
ATOM     12  P   UNL     1       1.760   2.524  20.488  0.00  0.00    +0.000 P 
ATOM     13  O   UNL     1       3.050   3.344  20.550  0.00  0.00    +0.000 OA
BRANCH  12  14
ATOM     14  O   UNL     1       0.588   3.651  20.299  0.00  0.00    +0.000 OA
ATOM     15  H   UNL     1       0.441   4.121  21.143  0.00  0.00    +0.000 HD
ENDBRANCH  12  14
BRANCH  12  16
ATOM     16  O   UNL     1       1.610   2.702  22.203  0.00  0.00    +0.000 OA
ATOM     17  H   UNL     1       1.402   1.803  22.530  0.00  0.00    +0.000 HD
ENDBRANCH  12  16
ENDBRANCH  11  12
ENDBRANCH  10  11
ENDBRANCH   2  10
BRANCH   3  18
ATOM     18  C   UNL     1       3.122   7.045  17.458  0.00  0.00    +0.000 C 
BRANCH  18  19
ATOM     19  C   UNL     1       2.378   7.687  18.607  0.00  0.00    +0.000 A 
ATOM     20  C   UNL     1       2.310   7.054  19.857  0.00  0.00    +0.000 A 
ATOM     21  C   UNL     1       1.585   7.625  20.903  0.00  0.00    +0.000 A 
ATOM     22  C   UNL     1       0.928   8.838  20.714  0.00  0.00    +0.000 A 
ATOM     23  C   UNL     1       1.007   9.489  19.484  0.00  0.00    +0.000 A 
ATOM     24  C   UNL     1       1.730   8.918  18.436  0.00  0.00    +0.000 A 
ENDBRANCH  18  19
ENDBRANCH   3  18
TORSDOF 7
ENDMDL
MODEL 9
REMARK VINA RESULT:      -7.1      3.092      5.438
REMARK  Name = 
REMARK  7 active torsions:
REMARK  status: ('A' for Active; 'I' for Inactive)
REMARK    1  A    between atoms: C_2  and  C_3
REMARK    2  A    between atoms: C_3  and  C_4
REMARK    3  A    between atoms: C_4  and  P_5
REMARK    4  A    between atoms: P_5  and  O_7
REMARK    5  A    between atoms: P_5  and  O_8
REMARK    6  A    between atoms: N_9  and  C_10
REMARK    7  A    between atoms: C_10  and  C_11
REMARK                            x       y       z     vdW  Elec       q    Type
REMARK                         _______ _______ _______ _____ _____    ______ ____
ROOT
ATOM      1  O   UNL     1       1.372   4.939  17.497  0.00  0.00    +0.000 OA
ATOM      2  C   UNL     1       2.553   4.712  17.748  0.00  0.00    +0.000 C 
ATOM      3  N   UNL     1       3.533   5.707  17.729  0.00  0.00    +0.000 N 
ATOM      4  C   UNL     1       4.914   5.420  17.762  0.00  0.00    +0.000 A 
ATOM      5  C   UNL     1       5.475   4.687  16.720  0.00  0.00    +0.000 A 
ATOM      6  C   UNL     1       6.823   4.346  16.783  0.00  0.00    +0.000 A 
ATOM      7  C   UNL     1       7.571   4.754  17.878  0.00  0.00    +0.000 A 
ATOM      8  C   UNL     1       6.944   5.516  18.850  0.00  0.00    +0.000 A 
ATOM      9  N   UNL     1       5.640   5.872  18.802  0.00  0.00    +0.000 NA
ENDROOT
BRANCH   2  10
ATOM     10  C   UNL     1       3.015   3.313  18.154  0.00  0.00    +0.000 C 
BRANCH  10  11
ATOM     11  C   UNL     1       1.896   2.394  18.648  0.00  0.00    +0.000 C 
BRANCH  11  12
ATOM     12  P   UNL     1       1.735   2.536  20.465  0.00  0.00    +0.000 P 
ATOM     13  O   UNL     1       3.045   3.323  20.552  0.00  0.00    +0.000 OA
BRANCH  12  14
ATOM     14  O   UNL     1       0.592   3.697  20.305  0.00  0.00    +0.000 OA
ATOM     15  H   UNL     1      -0.184   3.335  19.835  0.00  0.00    +0.000 HD
ENDBRANCH  12  14
BRANCH  12  16
ATOM     16  O   UNL     1       1.584   2.671  22.184  0.00  0.00    +0.000 OA
ATOM     17  H   UNL     1       1.843   1.791  22.527  0.00  0.00    +0.000 HD
ENDBRANCH  12  16
ENDBRANCH  11  12
ENDBRANCH  10  11
ENDBRANCH   2  10
BRANCH   3  18
ATOM     18  C   UNL     1       3.176   7.106  17.508  0.00  0.00    +0.000 C 
BRANCH  18  19
ATOM     19  C   UNL     1       2.367   7.718  18.629  0.00  0.00    +0.000 A 
ATOM     20  C   UNL     1       1.699   8.938  18.445  0.00  0.00    +0.000 A 
ATOM     21  C   UNL     1       0.990   9.524  19.493  0.00  0.00    +0.000 A 
ATOM     22  C   UNL     1       0.935   8.895  20.735  0.00  0.00    +0.000 A 
ATOM     23  C   UNL     1       1.575   7.671  20.924  0.00  0.00    +0.000 A 
ATOM     24  C   UNL     1       2.286   7.084  19.877  0.00  0.00    +0.000 A 
ENDBRANCH  18  19
ENDBRANCH   3  18
TORSDOF 7
ENDMDL
