MODEL 1
REMARK VINA RESULT:      -9.4      0.000      0.000
REMARK  Name = 
REMARK  5 active torsions:
REMARK  status: ('A' for Active; 'I' for Inactive)
REMARK    1  A    between atoms: C_1  and  O_2
REMARK    2  A    between atoms: O_2  and  C_3
REMARK    3  A    between atoms: C_3  and  C_5
REMARK    4  A    between atoms: C_5  and  C_6
REMARK    5  A    between atoms: N_20  and  C_21
REMARK                            x       y       z     vdW  Elec       q    Type
REMARK                         _______ _______ _______ _____ _____    ______ ____
ROOT
ATOM      1  C   UNL     1       2.205   5.424  20.256  0.00  0.00    +0.000 C 
ATOM      2  O   UNL     1       1.623   6.580  20.891  0.00  0.00    +0.000 OA
ATOM      3  C   UNL     1       1.517   7.744  20.187  0.00  0.00    +0.000 A 
ATOM      4  C   UNL     1       0.689   8.711  20.771  0.00  0.00    +0.000 A 
ATOM      5  C   UNL     1       0.486   9.935  20.139  0.00  0.00    +0.000 A 
ATOM      6  C   UNL     1       1.123  10.193  18.929  0.00  0.00    +0.000 A 
ATOM      7  C   UNL     1       1.966   9.227  18.362  0.00  0.00    +0.000 A 
ATOM      8  C   UNL     1       2.188   7.990  18.990  0.00  0.00    +0.000 A 
ATOM      9  C   UNL     1       3.067   6.950  18.439  0.00  0.00    +0.000 A 
ATOM     10  C   UNL     1       4.105   7.238  17.556  0.00  0.00    +0.000 A 
ATOM     11  C   UNL     1       4.912   6.189  17.169  0.00  0.00    +0.000 A 
ATOM     12  C   UNL     1       4.625   4.855  17.409  0.00  0.00    +0.000 A 
ATOM     13  C   UNL     1       3.659   4.558  18.344  0.00  0.00    +0.000 A 
ATOM     14  C   UNL     1       2.935   5.634  18.932  0.00  0.00    +0.000 A 
ATOM     15  N   UNL     1       5.705   3.993  17.043  0.00  0.00    +0.000 N 
ATOM     16  C   UNL     1       5.600   3.417  15.698  0.00  0.00    +0.000 C 
ATOM     17  C   UNL     1       6.848   4.812  17.076  0.00  0.00    +0.000 C 
ATOM     18  O   UNL     1       8.005   4.481  17.238  0.00  0.00    +0.000 OA
ATOM     19  C   UNL     1       6.337   6.254  16.871  0.00  0.00    +0.000 C 
ATOM     20  O   UNL     1       6.979   7.227  16.554  0.00  0.00    +0.000 OA
ENDROOT
BRANCH   1  21
ATOM     21  C   UNL     1       1.118   4.363  20.169  0.00  0.00    +0.000 C 
BRANCH  21  22
ATOM     22  C   UNL     1       1.562   3.109  20.879  0.00  0.00    +0.000 C 
ATOM     23  O   UNL     1       1.876   3.031  22.056  0.00  0.00    +0.000 OA
BRANCH  22  25
ATOM     24  C   UNL     1       0.848   2.253  18.816  0.00  0.00    +0.000 C 
ATOM     25  O   UNL     1       1.653   2.089  19.984  0.00  0.00    +0.000 OA
ENDBRANCH  22  25
ENDBRANCH  21  22
ENDBRANCH   1  21
TORSDOF 3
ENDMDL
MODEL 2
REMARK VINA RESULT:      -9.1      2.645      7.191
REMARK  Name = 
REMARK  5 active torsions:
REMARK  status: ('A' for Active; 'I' for Inactive)
REMARK    1  A    between atoms: C_1  and  O_2
REMARK    2  A    between atoms: O_2  and  C_3
REMARK    3  A    between atoms: C_3  and  C_5
REMARK    4  A    between atoms: C_5  and  C_6
REMARK    5  A    between atoms: N_20  and  C_21
REMARK                            x       y       z     vdW  Elec       q    Type
REMARK                         _______ _______ _______ _____ _____    ______ ____
ROOT
ATOM      1  C   UNL     1       6.849   6.039  17.024  0.00  0.00    +0.000 C 
ATOM      2  O   UNL     1       7.582   5.652  15.845  0.00  0.00    +0.000 OA
ATOM      3  C   UNL     1       6.931   4.992  14.843  0.00  0.00    +0.000 A 
ATOM      4  C   UNL     1       7.636   4.916  13.635  0.00  0.00    +0.000 A 
ATOM      5  C   UNL     1       7.070   4.283  12.532  0.00  0.00    +0.000 A 
ATOM      6  C   UNL     1       5.804   3.716  12.644  0.00  0.00    +0.000 A 
ATOM      7  C   UNL     1       5.115   3.779  13.863  0.00  0.00    +0.000 A 
ATOM      8  C   UNL     1       5.674   4.407  14.988  0.00  0.00    +0.000 A 
ATOM      9  C   UNL     1       4.994   4.492  16.288  0.00  0.00    +0.000 A 
ATOM     10  C   UNL     1       4.008   3.589  16.678  0.00  0.00    +0.000 A 
ATOM     11  C   UNL     1       3.499   3.722  17.952  0.00  0.00    +0.000 A 
ATOM     12  C   UNL     1       3.728   4.816  18.772  0.00  0.00    +0.000 A 
ATOM     13  C   UNL     1       4.757   5.669  18.441  0.00  0.00    +0.000 A 
ATOM     14  C   UNL     1       5.457   5.443  17.222  0.00  0.00    +0.000 A 
ATOM     15  N   UNL     1       3.214   4.621  20.092  0.00  0.00    +0.000 N 
ATOM     16  C   UNL     1       1.872   5.171  20.314  0.00  0.00    +0.000 C 
ATOM     17  C   UNL     1       3.143   3.226  20.250  0.00  0.00    +0.000 C 
ATOM     18  O   UNL     1       3.162   2.585  21.281  0.00  0.00    +0.000 OA
ATOM     19  C   UNL     1       3.043   2.646  18.822  0.00  0.00    +0.000 C 
ATOM     20  O   UNL     1       2.687   1.538  18.498  0.00  0.00    +0.000 OA
ENDROOT
BRANCH   1  21
ATOM     21  C   UNL     1       6.852   7.560  17.077  0.00  0.00    +0.000 C 
BRANCH  21  22
ATOM     22  C   UNL     1       7.935   8.042  18.009  0.00  0.00    +0.000 C 
ATOM     23  O   UNL     1       8.524   7.357  18.830  0.00  0.00    +0.000 OA
BRANCH  22  25
ATOM     24  C   UNL     1       8.986   9.981  18.806  0.00  0.00    +0.000 C 
ATOM     25  O   UNL     1       8.094   9.385  17.864  0.00  0.00    +0.000 OA
ENDBRANCH  22  25
ENDBRANCH  21  22
ENDBRANCH   1  21
TORSDOF 3
ENDMDL
MODEL 3
REMARK VINA RESULT:      -8.5      0.608      1.067
REMARK  Name = 
REMARK  5 active torsions:
REMARK  status: ('A' for Active; 'I' for Inactive)
REMARK    1  A    between atoms: C_1  and  O_2
REMARK    2  A    between atoms: O_2  and  C_3
REMARK    3  A    between atoms: C_3  and  C_5
REMARK    4  A    between atoms: C_5  and  C_6
REMARK    5  A    between atoms: N_20  and  C_21
REMARK                            x       y       z     vdW  Elec       q    Type
REMARK                         _______ _______ _______ _____ _____    ______ ____
ROOT
ATOM      1  C   UNL     1       2.238   5.110  19.861  0.00  0.00    +0.000 C 
ATOM      2  O   UNL     1       1.648   6.198  20.601  0.00  0.00    +0.000 OA
ATOM      3  C   UNL     1       1.594   7.438  20.032  0.00  0.00    +0.000 A 
ATOM      4  C   UNL     1       0.757   8.349  20.688  0.00  0.00    +0.000 A 
ATOM      5  C   UNL     1       0.604   9.642  20.195  0.00  0.00    +0.000 A 
ATOM      6  C   UNL     1       1.299  10.024  19.051  0.00  0.00    +0.000 A 
ATOM      7  C   UNL     1       2.151   9.111  18.413  0.00  0.00    +0.000 A 
ATOM      8  C   UNL     1       2.323   7.805  18.902  0.00  0.00    +0.000 A 
ATOM      9  C   UNL     1       3.208   6.816  18.272  0.00  0.00    +0.000 A 
ATOM     10  C   UNL     1       4.290   7.180  17.474  0.00  0.00    +0.000 A 
ATOM     11  C   UNL     1       5.095   6.166  17.003  0.00  0.00    +0.000 A 
ATOM     12  C   UNL     1       4.775   4.819  17.074  0.00  0.00    +0.000 A 
ATOM     13  C   UNL     1       3.762   4.438  17.926  0.00  0.00    +0.000 A 
ATOM     14  C   UNL     1       3.031   5.455  18.603  0.00  0.00    +0.000 A 
ATOM     15  N   UNL     1       5.855   3.981  16.657  0.00  0.00    +0.000 N 
ATOM     16  C   UNL     1       5.802   3.566  15.251  0.00  0.00    +0.000 C 
ATOM     17  C   UNL     1       7.010   4.765  16.834  0.00  0.00    +0.000 C 
ATOM     18  O   UNL     1       8.152   4.391  17.006  0.00  0.00    +0.000 OA
ATOM     19  C   UNL     1       6.533   6.232  16.776  0.00  0.00    +0.000 C 
ATOM     20  O   UNL     1       7.206   7.221  16.602  0.00  0.00    +0.000 OA
ENDROOT
BRANCH   1  21
ATOM     21  C   UNL     1       1.138   4.091  19.605  0.00  0.00    +0.000 C 
BRANCH  21  22
ATOM     22  C   UNL     1       1.695   2.693  19.706  0.00  0.00    +0.000 C 
ATOM     23  O   UNL     1       1.486   1.786  18.916  0.00  0.00    +0.000 OA
BRANCH  22  25
ATOM     24  C   UNL     1       1.583   2.494  22.039  0.00  0.00    +0.000 C 
ATOM     25  O   UNL     1       2.393   2.566  20.866  0.00  0.00    +0.000 OA
ENDBRANCH  22  25
ENDBRANCH  21  22
ENDBRANCH   1  21
TORSDOF 3
ENDMDL
MODEL 4
REMARK VINA RESULT:      -8.0      2.597      6.629
REMARK  Name = 
REMARK  5 active torsions:
REMARK  status: ('A' for Active; 'I' for Inactive)
REMARK    1  A    between atoms: C_1  and  O_2
REMARK    2  A    between atoms: O_2  and  C_3
REMARK    3  A    between atoms: C_3  and  C_5
REMARK    4  A    between atoms: C_5  and  C_6
REMARK    5  A    between atoms: N_20  and  C_21
REMARK                            x       y       z     vdW  Elec       q    Type
REMARK                         _______ _______ _______ _____ _____    ______ ____
ROOT
ATOM      1  C   UNL     1       4.099   6.740  18.224  0.00  0.00    +0.000 C 
ATOM      2  O   UNL     1       4.669   5.509  18.710  0.00  0.00    +0.000 OA
ATOM      3  C   UNL     1       3.911   4.687  19.493  0.00  0.00    +0.000 A 
ATOM      4  C   UNL     1       4.434   3.400  19.673  0.00  0.00    +0.000 A 
ATOM      5  C   UNL     1       3.744   2.463  20.438  0.00  0.00    +0.000 A 
ATOM      6  C   UNL     1       2.537   2.820  21.030  0.00  0.00    +0.000 A 
ATOM      7  C   UNL     1       2.032   4.117  20.862  0.00  0.00    +0.000 A 
ATOM      8  C   UNL     1       2.718   5.078  20.101  0.00  0.00    +0.000 A 
ATOM      9  C   UNL     1       2.233   6.450  19.900  0.00  0.00    +0.000 A 
ATOM     10  C   UNL     1       1.360   7.072  20.789  0.00  0.00    +0.000 A 
ATOM     11  C   UNL     1       1.037   8.388  20.538  0.00  0.00    +0.000 A 
ATOM     12  C   UNL     1       1.330   9.051  19.358  0.00  0.00    +0.000 A 
ATOM     13  C   UNL     1       2.258   8.486  18.510  0.00  0.00    +0.000 A 
ATOM     14  C   UNL     1       2.782   7.204  18.841  0.00  0.00    +0.000 A 
ATOM     15  N   UNL     1       1.026  10.446  19.428  0.00  0.00    +0.000 N 
ATOM     16  C   UNL     1      -0.294  10.812  18.902  0.00  0.00    +0.000 C 
ATOM     17  C   UNL     1       1.046  10.751  20.800  0.00  0.00    +0.000 C 
ATOM     18  O   UNL     1       1.246  11.827  21.328  0.00  0.00    +0.000 OA
ATOM     19  C   UNL     1       0.765   9.420  21.530  0.00  0.00    +0.000 C 
ATOM     20  O   UNL     1       0.419   9.265  22.677  0.00  0.00    +0.000 OA
ENDROOT
BRANCH   1  21
ATOM     21  C   UNL     1       4.037   6.640  16.707  0.00  0.00    +0.000 C 
BRANCH  21  22
ATOM     22  C   UNL     1       5.393   6.276  16.157  0.00  0.00    +0.000 C 
ATOM     23  O   UNL     1       6.419   6.918  16.314  0.00  0.00    +0.000 OA
BRANCH  22  25
ATOM     24  C   UNL     1       6.079   4.062  15.801  0.00  0.00    +0.000 C 
ATOM     25  O   UNL     1       5.283   5.169  15.376  0.00  0.00    +0.000 OA
ENDBRANCH  22  25
ENDBRANCH  21  22
ENDBRANCH   1  21
TORSDOF 3
ENDMDL
MODEL 5
REMARK VINA RESULT:      -7.9      2.389      5.592
REMARK  Name = 
REMARK  5 active torsions:
REMARK  status: ('A' for Active; 'I' for Inactive)
REMARK    1  A    between atoms: C_1  and  O_2
REMARK    2  A    between atoms: O_2  and  C_3
REMARK    3  A    between atoms: C_3  and  C_5
REMARK    4  A    between atoms: C_5  and  C_6
REMARK    5  A    between atoms: N_20  and  C_21
REMARK                            x       y       z     vdW  Elec       q    Type
REMARK                         _______ _______ _______ _____ _____    ______ ____
ROOT
ATOM      1  C   UNL     1       2.440   4.205  18.173  0.00  0.00    +0.000 C 
ATOM      2  O   UNL     1       3.188   3.623  17.087  0.00  0.00    +0.000 OA
ATOM      3  C   UNL     1       4.284   4.280  16.606  0.00  0.00    +0.000 A 
ATOM      4  C   UNL     1       5.105   3.517  15.766  0.00  0.00    +0.000 A 
ATOM      5  C   UNL     1       6.264   4.070  15.227  0.00  0.00    +0.000 A 
ATOM      6  C   UNL     1       6.592   5.390  15.521  0.00  0.00    +0.000 A 
ATOM      7  C   UNL     1       5.754   6.152  16.347  0.00  0.00    +0.000 A 
ATOM      8  C   UNL     1       4.577   5.613  16.893  0.00  0.00    +0.000 A 
ATOM      9  C   UNL     1       3.664   6.374  17.757  0.00  0.00    +0.000 A 
ATOM     10  C   UNL     1       3.592   7.764  17.729  0.00  0.00    +0.000 A 
ATOM     11  C   UNL     1       2.641   8.362  18.528  0.00  0.00    +0.000 A 
ATOM     12  C   UNL     1       1.924   7.702  19.514  0.00  0.00    +0.000 A 
ATOM     13  C   UNL     1       1.920   6.324  19.498  0.00  0.00    +0.000 A 
ATOM     14  C   UNL     1       2.735   5.656  18.541  0.00  0.00    +0.000 A 
ATOM     15  N   UNL     1       0.896   8.519  20.078  0.00  0.00    +0.000 N 
ATOM     16  C   UNL     1       1.278   9.220  21.309  0.00  0.00    +0.000 C 
ATOM     17  C   UNL     1       0.624   9.487  19.094  0.00  0.00    +0.000 C 
ATOM     18  O   UNL     1      -0.397  10.123  18.928  0.00  0.00    +0.000 OA
ATOM     19  C   UNL     1       1.903   9.584  18.235  0.00  0.00    +0.000 C 
ATOM     20  O   UNL     1       2.215  10.466  17.472  0.00  0.00    +0.000 OA
ENDROOT
BRANCH   1  21
ATOM     21  C   UNL     1       2.560   3.259  19.359  0.00  0.00    +0.000 C 
BRANCH  21  22
ATOM     22  C   UNL     1       1.209   2.679  19.696  0.00  0.00    +0.000 C 
ATOM     23  O   UNL     1       0.403   2.240  18.892  0.00  0.00    +0.000 OA
BRANCH  22  25
ATOM     24  C   UNL     1       2.136   3.147  21.799  0.00  0.00    +0.000 C 
ATOM     25  O   UNL     1       0.982   2.807  21.031  0.00  0.00    +0.000 OA
ENDBRANCH  22  25
ENDBRANCH  21  22
ENDBRANCH   1  21
TORSDOF 3
ENDMDL
MODEL 6
REMARK VINA RESULT:      -7.9      2.627      6.716
REMARK  Name = 
REMARK  5 active torsions:
REMARK  status: ('A' for Active; 'I' for Inactive)
REMARK    1  A    between atoms: C_1  and  O_2
REMARK    2  A    between atoms: O_2  and  C_3
REMARK    3  A    between atoms: C_3  and  C_5
REMARK    4  A    between atoms: C_5  and  C_6
REMARK    5  A    between atoms: N_20  and  C_21
REMARK                            x       y       z     vdW  Elec       q    Type
REMARK                         _______ _______ _______ _____ _____    ______ ____
ROOT
ATOM      1  C   UNL     1       4.070   6.456  18.377  0.00  0.00    +0.000 C 
ATOM      2  O   UNL     1       4.571   5.221  18.927  0.00  0.00    +0.000 OA
ATOM      3  C   UNL     1       3.757   4.467  19.721  0.00  0.00    +0.000 A 
ATOM      4  C   UNL     1       4.215   3.166  19.966  0.00  0.00    +0.000 A 
ATOM      5  C   UNL     1       3.464   2.294  20.748  0.00  0.00    +0.000 A 
ATOM      6  C   UNL     1       2.260   2.728  21.293  0.00  0.00    +0.000 A 
ATOM      7  C   UNL     1       1.818   4.038  21.060  0.00  0.00    +0.000 A 
ATOM      8  C   UNL     1       2.568   4.935  20.280  0.00  0.00    +0.000 A 
ATOM      9  C   UNL     1       2.150   6.318  20.012  0.00  0.00    +0.000 A 
ATOM     10  C   UNL     1       1.284   7.014  20.852  0.00  0.00    +0.000 A 
ATOM     11  C   UNL     1       1.028   8.332  20.540  0.00  0.00    +0.000 A 
ATOM     12  C   UNL     1       1.381   8.933  19.342  0.00  0.00    +0.000 A 
ATOM     13  C   UNL     1       2.304   8.292  18.544  0.00  0.00    +0.000 A 
ATOM     14  C   UNL     1       2.760   7.003  18.939  0.00  0.00    +0.000 A 
ATOM     15  N   UNL     1       1.139  10.342  19.348  0.00  0.00    +0.000 N 
ATOM     16  C   UNL     1      -0.149  10.744  18.773  0.00  0.00    +0.000 C 
ATOM     17  C   UNL     1       1.139  10.701  20.708  0.00  0.00    +0.000 C 
ATOM     18  O   UNL     1       1.374  11.787  21.198  0.00  0.00    +0.000 OA
ATOM     19  C   UNL     1       0.779   9.415  21.483  0.00  0.00    +0.000 C 
ATOM     20  O   UNL     1       0.397   9.323  22.625  0.00  0.00    +0.000 OA
ENDROOT
BRANCH   1  21
ATOM     21  C   UNL     1       4.042   6.297  16.864  0.00  0.00    +0.000 C 
BRANCH  21  22
ATOM     22  C   UNL     1       5.426   6.491  16.298  0.00  0.00    +0.000 C 
ATOM     23  O   UNL     1       5.902   5.876  15.357  0.00  0.00    +0.000 OA
BRANCH  22  25
ATOM     24  C   UNL     1       7.443   7.011  17.375  0.00  0.00    +0.000 C 
ATOM     25  O   UNL     1       6.104   7.392  17.058  0.00  0.00    +0.000 OA
ENDBRANCH  22  25
ENDBRANCH  21  22
ENDBRANCH   1  21
TORSDOF 3
ENDMDL
MODEL 7
REMARK VINA RESULT:      -7.9      2.667      5.752
REMARK  Name = 
REMARK  5 active torsions:
REMARK  status: ('A' for Active; 'I' for Inactive)
REMARK    1  A    between atoms: C_1  and  O_2
REMARK    2  A    between atoms: O_2  and  C_3
REMARK    3  A    between atoms: C_3  and  C_5
REMARK    4  A    between atoms: C_5  and  C_6
REMARK    5  A    between atoms: N_20  and  C_21
REMARK                            x       y       z     vdW  Elec       q    Type
REMARK                         _______ _______ _______ _____ _____    ______ ____
ROOT
ATOM      1  C   UNL     1       2.154   4.957  19.731  0.00  0.00    +0.000 C 
ATOM      2  O   UNL     1       2.727   4.177  18.662  0.00  0.00    +0.000 OA
ATOM      3  C   UNL     1       3.552   4.788  17.761  0.00  0.00    +0.000 A 
ATOM      4  C   UNL     1       4.283   3.913  16.948  0.00  0.00    +0.000 A 
ATOM      5  C   UNL     1       5.172   4.414  16.001  0.00  0.00    +0.000 A 
ATOM      6  C   UNL     1       5.320   5.790  15.863  0.00  0.00    +0.000 A 
ATOM      7  C   UNL     1       4.569   6.659  16.668  0.00  0.00    +0.000 A 
ATOM      8  C   UNL     1       3.661   6.171  17.622  0.00  0.00    +0.000 A 
ATOM      9  C   UNL     1       2.847   7.040  18.483  0.00  0.00    +0.000 A 
ATOM     10  C   UNL     1       2.525   8.349  18.135  0.00  0.00    +0.000 A 
ATOM     11  C   UNL     1       1.690   9.041  18.986  0.00  0.00    +0.000 A 
ATOM     12  C   UNL     1       1.344   8.612  20.257  0.00  0.00    +0.000 A 
ATOM     13  C   UNL     1       1.580   7.294  20.583  0.00  0.00    +0.000 A 
ATOM     14  C   UNL     1       2.263   6.476  19.638  0.00  0.00    +0.000 A 
ATOM     15  N   UNL     1       0.342   9.438  20.855  0.00  0.00    +0.000 N 
ATOM     16  C   UNL     1       0.862  10.496  21.729  0.00  0.00    +0.000 C 
ATOM     17  C   UNL     1      -0.313  10.052  19.773  0.00  0.00    +0.000 C 
ATOM     18  O   UNL     1      -1.441  10.499  19.733  0.00  0.00    +0.000 OA
ATOM     19  C   UNL     1       0.701  10.041  18.608  0.00  0.00    +0.000 C 
ATOM     20  O   UNL     1       0.670  10.701  17.596  0.00  0.00    +0.000 OA
ENDROOT
BRANCH   1  21
ATOM     21  C   UNL     1       2.705   4.404  21.037  0.00  0.00    +0.000 C 
BRANCH  21  22
ATOM     22  C   UNL     1       2.272   2.970  21.215  0.00  0.00    +0.000 C 
ATOM     23  O   UNL     1       1.128   2.556  21.113  0.00  0.00    +0.000 OA
BRANCH  22  25
ATOM     24  C   UNL     1       4.363   2.095  20.617  0.00  0.00    +0.000 C 
ATOM     25  O   UNL     1       3.337   2.220  21.603  0.00  0.00    +0.000 OA
ENDBRANCH  22  25
ENDBRANCH  21  22
ENDBRANCH   1  21
TORSDOF 3
ENDMDL
MODEL 8
REMARK VINA RESULT:      -7.9      2.644      6.960
REMARK  Name = 
REMARK  5 active torsions:
REMARK  status: ('A' for Active; 'I' for Inactive)
REMARK    1  A    between atoms: C_1  and  O_2
REMARK    2  A    between atoms: O_2  and  C_3
REMARK    3  A    between atoms: C_3  and  C_5
REMARK    4  A    between atoms: C_5  and  C_6
REMARK    5  A    between atoms: N_20  and  C_21
REMARK                            x       y       z     vdW  Elec       q    Type
REMARK                         _______ _______ _______ _____ _____    ______ ____
ROOT
ATOM      1  C   UNL     1       6.879   4.927  18.021  0.00  0.00    +0.000 C 
ATOM      2  O   UNL     1       7.538   4.558  16.793  0.00  0.00    +0.000 OA
ATOM      3  C   UNL     1       6.799   4.438  15.651  0.00  0.00    +0.000 A 
ATOM      4  C   UNL     1       7.550   4.366  14.471  0.00  0.00    +0.000 A 
ATOM      5  C   UNL     1       6.911   4.261  13.239  0.00  0.00    +0.000 A 
ATOM      6  C   UNL     1       5.521   4.217  13.191  0.00  0.00    +0.000 A 
ATOM      7  C   UNL     1       4.779   4.269  14.379  0.00  0.00    +0.000 A 
ATOM      8  C   UNL     1       5.407   4.367  15.632  0.00  0.00    +0.000 A 
ATOM      9  C   UNL     1       4.673   4.419  16.903  0.00  0.00    +0.000 A 
ATOM     10  C   UNL     1       3.387   3.904  17.046  0.00  0.00    +0.000 A 
ATOM     11  C   UNL     1       2.831   3.939  18.307  0.00  0.00    +0.000 A 
ATOM     12  C   UNL     1       3.359   4.649  19.373  0.00  0.00    +0.000 A 
ATOM     13  C   UNL     1       4.661   5.089  19.276  0.00  0.00    +0.000 A 
ATOM     14  C   UNL     1       5.353   4.886  18.048  0.00  0.00    +0.000 A 
ATOM     15  N   UNL     1       2.673   4.381  20.598  0.00  0.00    +0.000 N 
ATOM     16  C   UNL     1       1.615   5.342  20.930  0.00  0.00    +0.000 C 
ATOM     17  C   UNL     1       2.073   3.123  20.408  0.00  0.00    +0.000 C 
ATOM     18  O   UNL     1       1.742   2.314  21.251  0.00  0.00    +0.000 OA
ATOM     19  C   UNL     1       1.918   2.959  18.881  0.00  0.00    +0.000 C 
ATOM     20  O   UNL     1       1.213   2.175  18.290  0.00  0.00    +0.000 OA
ENDROOT
BRANCH   1  21
ATOM     21  C   UNL     1       7.440   6.276  18.445  0.00  0.00    +0.000 C 
BRANCH  21  22
ATOM     22  C   UNL     1       7.055   7.335  17.442  0.00  0.00    +0.000 C 
ATOM     23  O   UNL     1       5.971   7.430  16.891  0.00  0.00    +0.000 OA
BRANCH  22  25
ATOM     24  C   UNL     1       8.256   9.269  18.003  0.00  0.00    +0.000 C 
ATOM     25  O   UNL     1       8.135   8.115  17.170  0.00  0.00    +0.000 OA
ENDBRANCH  22  25
ENDBRANCH  21  22
ENDBRANCH   1  21
TORSDOF 3
ENDMDL
MODEL 9
REMARK VINA RESULT:      -7.7      2.489      5.580
REMARK  Name = 
REMARK  5 active torsions:
REMARK  status: ('A' for Active; 'I' for Inactive)
REMARK    1  A    between atoms: C_1  and  O_2
REMARK    2  A    between atoms: O_2  and  C_3
REMARK    3  A    between atoms: C_3  and  C_5
REMARK    4  A    between atoms: C_5  and  C_6
REMARK    5  A    between atoms: N_20  and  C_21
REMARK                            x       y       z     vdW  Elec       q    Type
REMARK                         _______ _______ _______ _____ _____    ______ ____
ROOT
ATOM      1  C   UNL     1       2.386   4.569  19.136  0.00  0.00    +0.000 C 
ATOM      2  O   UNL     1       3.004   3.936  17.998  0.00  0.00    +0.000 OA
ATOM      3  C   UNL     1       3.891   4.648  17.241  0.00  0.00    +0.000 A 
ATOM      4  C   UNL     1       4.650   3.880  16.349  0.00  0.00    +0.000 A 
ATOM      5  C   UNL     1       5.601   4.488  15.535  0.00  0.00    +0.000 A 
ATOM      6  C   UNL     1       5.783   5.865  15.607  0.00  0.00    +0.000 A 
ATOM      7  C   UNL     1       5.005   6.628  16.489  0.00  0.00    +0.000 A 
ATOM      8  C   UNL     1       4.034   6.033  17.311  0.00  0.00    +0.000 A 
ATOM      9  C   UNL     1       3.190   6.790  18.245  0.00  0.00    +0.000 A 
ATOM     10  C   UNL     1       2.914   8.145  18.075  0.00  0.00    +0.000 A 
ATOM     11  C   UNL     1       2.046   8.728  18.972  0.00  0.00    +0.000 A 
ATOM     12  C   UNL     1       1.619   8.130  20.146  0.00  0.00    +0.000 A 
ATOM     13  C   UNL     1       1.810   6.773  20.288  0.00  0.00    +0.000 A 
ATOM     14  C   UNL     1       2.530   6.082  19.272  0.00  0.00    +0.000 A 
ATOM     15  N   UNL     1       0.601   8.888  20.804  0.00  0.00    +0.000 N 
ATOM     16  C   UNL     1       1.091   9.794  21.849  0.00  0.00    +0.000 C 
ATOM     17  C   UNL     1       0.021   9.670  19.789  0.00  0.00    +0.000 C 
ATOM     18  O   UNL     1      -1.094  10.150  19.755  0.00  0.00    +0.000 OA
ATOM     19  C   UNL     1       1.099   9.800  18.692  0.00  0.00    +0.000 C 
ATOM     20  O   UNL     1       1.139  10.600  17.787  0.00  0.00    +0.000 OA
ENDROOT
BRANCH   1  21
ATOM     21  C   UNL     1       2.850   3.818  20.375  0.00  0.00    +0.000 C 
BRANCH  21  22
ATOM     22  C   UNL     1       1.689   3.090  21.005  0.00  0.00    +0.000 C 
ATOM     23  O   UNL     1       1.705   2.529  22.088  0.00  0.00    +0.000 OA
BRANCH  22  25
ATOM     24  C   UNL     1       0.641   1.963  19.235  0.00  0.00    +0.000 C 
ATOM     25  O   UNL     1       0.643   3.071  20.137  0.00  0.00    +0.000 OA
ENDBRANCH  22  25
ENDBRANCH  21  22
ENDBRANCH   1  21
TORSDOF 3
ENDMDL
