MODEL 1
REMARK VINA RESULT:      -7.6      0.000      0.000
REMARK  Name = 
REMARK  8 active torsions:
REMARK  status: ('A' for Active; 'I' for Inactive)
REMARK    1  A    between atoms: C_1  and  O_2
REMARK    2  A    between atoms: O_2  and  C_3
REMARK    3  A    between atoms: C_6  and  O_7
REMARK    4  A    between atoms: O_7  and  C_8
REMARK    5  A    between atoms: C_9  and  C_10
REMARK    6  A    between atoms: C_10  and  N_11
REMARK    7  A    between atoms: C_15  and  C_17
REMARK    8  A    between atoms: C_17  and  C_18
REMARK                            x       y       z     vdW  Elec       q    Type
REMARK                         _______ _______ _______ _____ _____    ______ ____
ROOT
ATOM      1  N   UNL     1       2.621   5.536  19.214  0.00  0.00    +0.000 NA
ATOM      2  C   UNL     1       1.828   5.705  20.445  0.00  0.00    +0.000 C 
ATOM      3  C   UNL     1       1.668   7.140  20.999  0.00  0.00    +0.000 C 
ATOM      4  N   UNL     1       1.426   8.169  19.983  0.00  0.00    +0.000 N 
ATOM      5  C   UNL     1       0.872   9.373  20.418  0.00  0.00    +0.000 C 
ATOM      6  O   UNL     1       0.447   9.507  21.572  0.00  0.00    +0.000 OA
ATOM      7  C   UNL     1       2.193   8.021  18.749  0.00  0.00    +0.000 C 
ATOM      8  C   UNL     1       2.240   6.568  18.235  0.00  0.00    +0.000 C 
ENDROOT
BRANCH   1   9
ATOM      9  C   UNL     1       4.069   5.426  19.419  0.00  0.00    +0.000 C 
BRANCH   9  14
ATOM     10  C   UNL     1       6.730   5.903  16.705  0.00  0.00    +0.000 A 
ATOM     11  C   UNL     1       6.455   4.886  15.803  0.00  0.00    +0.000 A 
ATOM     12  C   UNL     1       5.392   4.012  16.057  0.00  0.00    +0.000 A 
ATOM     13  C   UNL     1       4.600   4.117  17.219  0.00  0.00    +0.000 A 
ATOM     14  C   UNL     1       4.853   5.140  18.143  0.00  0.00    +0.000 A 
ATOM     15  C   UNL     1       5.927   6.024  17.850  0.00  0.00    +0.000 A 
BRANCH  10  17
ATOM     16  C   UNL     1       7.742   7.893  17.542  0.00  0.00    +0.000 C 
ATOM     17  O   UNL     1       7.723   6.835  16.591  0.00  0.00    +0.000 OA
ENDBRANCH  10  17
BRANCH  13  18
ATOM     18  O   UNL     1       3.569   3.219  17.230  0.00  0.00    +0.000 OA
ATOM     19  C   UNL     1       3.683   2.105  18.100  0.00  0.00    +0.000 C 
ENDBRANCH  13  18
ENDBRANCH   9  14
ENDBRANCH   1   9
BRANCH   5  20
ATOM     20  C   UNL     1       0.794  10.555  19.453  0.00  0.00    +0.000 C 
BRANCH  20  21
ATOM     21  C   UNL     1      -0.544  10.705  18.767  0.00  0.00    +0.000 A 
ATOM     22  C   UNL     1      -0.872   9.906  17.662  0.00  0.00    +0.000 A 
ATOM     23  C   UNL     1      -2.115  10.031  17.037  0.00  0.00    +0.000 A 
ATOM     24  C   UNL     1      -3.045  10.953  17.509  0.00  0.00    +0.000 A 
ATOM     25  C   UNL     1      -2.739  11.743  18.616  0.00  0.00    +0.000 A 
ATOM     26  C   UNL     1      -1.498  11.616  19.245  0.00  0.00    +0.000 A 
ENDBRANCH  20  21
ENDBRANCH   5  20
TORSDOF 6
ENDMDL
MODEL 2
REMARK VINA RESULT:      -7.3      3.442      9.562
REMARK  Name = 
REMARK  8 active torsions:
REMARK  status: ('A' for Active; 'I' for Inactive)
REMARK    1  A    between atoms: C_1  and  O_2
REMARK    2  A    between atoms: O_2  and  C_3
REMARK    3  A    between atoms: C_6  and  O_7
REMARK    4  A    between atoms: O_7  and  C_8
REMARK    5  A    between atoms: C_9  and  C_10
REMARK    6  A    between atoms: C_10  and  N_11
REMARK    7  A    between atoms: C_15  and  C_17
REMARK    8  A    between atoms: C_17  and  C_18
REMARK                            x       y       z     vdW  Elec       q    Type
REMARK                         _______ _______ _______ _____ _____    ______ ____
ROOT
ATOM      1  N   UNL     1      -0.504  10.037  21.256  0.00  0.00    +0.000 NA
ATOM      2  C   UNL     1      -0.403  10.211  19.796  0.00  0.00    +0.000 C 
ATOM      3  C   UNL     1       0.902   9.742  19.112  0.00  0.00    +0.000 C 
ATOM      4  N   UNL     1       1.431   8.466  19.603  0.00  0.00    +0.000 N 
ATOM      5  C   UNL     1       2.334   7.793  18.780  0.00  0.00    +0.000 C 
ATOM      6  O   UNL     1       2.549   8.166  17.620  0.00  0.00    +0.000 OA
ATOM      7  C   UNL     1       1.335   8.264  21.047  0.00  0.00    +0.000 C 
ATOM      8  C   UNL     1      -0.026   8.696  21.630  0.00  0.00    +0.000 C 
ENDROOT
BRANCH   1   9
ATOM      9  C   UNL     1       0.089  11.116  22.053  0.00  0.00    +0.000 C 
BRANCH   9  14
ATOM     10  C   UNL     1      -3.107  12.539  23.613  0.00  0.00    +0.000 A 
ATOM     11  C   UNL     1      -2.982  13.906  23.412  0.00  0.00    +0.000 A 
ATOM     12  C   UNL     1      -1.847  14.403  22.762  0.00  0.00    +0.000 A 
ATOM     13  C   UNL     1      -0.808  13.558  22.322  0.00  0.00    +0.000 A 
ATOM     14  C   UNL     1      -0.913  12.172  22.508  0.00  0.00    +0.000 A 
ATOM     15  C   UNL     1      -2.085  11.694  23.154  0.00  0.00    +0.000 A 
BRANCH  10  17
ATOM     16  C   UNL     1      -5.369  12.638  24.361  0.00  0.00    +0.000 C 
ATOM     17  O   UNL     1      -4.156  11.907  24.220  0.00  0.00    +0.000 OA
ENDBRANCH  10  17
BRANCH  13  18
ATOM     18  O   UNL     1       0.165  14.237  21.642  0.00  0.00    +0.000 OA
ATOM     19  C   UNL     1       0.684  15.410  22.244  0.00  0.00    +0.000 C 
ENDBRANCH  13  18
ENDBRANCH   9  14
ENDBRANCH   1   9
BRANCH   5  20
ATOM     20  C   UNL     1       3.080   6.574  19.321  0.00  0.00    +0.000 C 
BRANCH  20  21
ATOM     21  C   UNL     1       2.286   5.290  19.268  0.00  0.00    +0.000 A 
ATOM     22  C   UNL     1       2.063   4.641  18.044  0.00  0.00    +0.000 A 
ATOM     23  C   UNL     1       1.344   3.444  17.994  0.00  0.00    +0.000 A 
ATOM     24  C   UNL     1       0.843   2.880  19.164  0.00  0.00    +0.000 A 
ATOM     25  C   UNL     1       1.070   3.506  20.389  0.00  0.00    +0.000 A 
ATOM     26  C   UNL     1       1.792   4.701  20.441  0.00  0.00    +0.000 A 
ENDBRANCH  20  21
ENDBRANCH   5  20
TORSDOF 6
ENDMDL
MODEL 3
REMARK VINA RESULT:      -6.9      1.511      2.192
REMARK  Name = 
REMARK  8 active torsions:
REMARK  status: ('A' for Active; 'I' for Inactive)
REMARK    1  A    between atoms: C_1  and  O_2
REMARK    2  A    between atoms: O_2  and  C_3
REMARK    3  A    between atoms: C_6  and  O_7
REMARK    4  A    between atoms: O_7  and  C_8
REMARK    5  A    between atoms: C_9  and  C_10
REMARK    6  A    between atoms: C_10  and  N_11
REMARK    7  A    between atoms: C_15  and  C_17
REMARK    8  A    between atoms: C_17  and  C_18
REMARK                            x       y       z     vdW  Elec       q    Type
REMARK                         _______ _______ _______ _____ _____    ______ ____
ROOT
ATOM      1  N   UNL     1       2.536   5.633  19.272  0.00  0.00    +0.000 NA
ATOM      2  C   UNL     1       1.784   6.143  20.431  0.00  0.00    +0.000 C 
ATOM      3  C   UNL     1       1.760   7.674  20.648  0.00  0.00    +0.000 C 
ATOM      4  N   UNL     1       1.590   8.466  19.426  0.00  0.00    +0.000 N 
ATOM      5  C   UNL     1       1.151   9.782  19.577  0.00  0.00    +0.000 C 
ATOM      6  O   UNL     1       0.761  10.209  20.670  0.00  0.00    +0.000 OA
ATOM      7  C   UNL     1       2.318   7.977  18.258  0.00  0.00    +0.000 C 
ATOM      8  C   UNL     1       2.229   6.447  18.085  0.00  0.00    +0.000 C 
ENDROOT
BRANCH   1   9
ATOM      9  C   UNL     1       3.972   5.442  19.498  0.00  0.00    +0.000 C 
BRANCH   9  14
ATOM     10  C   UNL     1       6.643   5.784  16.774  0.00  0.00    +0.000 A 
ATOM     11  C   UNL     1       6.361   4.733  15.914  0.00  0.00    +0.000 A 
ATOM     12  C   UNL     1       5.291   3.879  16.202  0.00  0.00    +0.000 A 
ATOM     13  C   UNL     1       4.498   4.038  17.356  0.00  0.00    +0.000 A 
ATOM     14  C   UNL     1       4.757   5.097  18.238  0.00  0.00    +0.000 A 
ATOM     15  C   UNL     1       5.839   5.960  17.911  0.00  0.00    +0.000 A 
BRANCH  10  17
ATOM     16  C   UNL     1       7.680   7.790  17.541  0.00  0.00    +0.000 C 
ATOM     17  O   UNL     1       7.644   6.703  16.623  0.00  0.00    +0.000 OA
ENDBRANCH  10  17
BRANCH  13  18
ATOM     18  O   UNL     1       3.459   3.150  17.402  0.00  0.00    +0.000 OA
ATOM     19  C   UNL     1       3.632   1.984  18.191  0.00  0.00    +0.000 C 
ENDBRANCH  13  18
ENDBRANCH   9  14
ENDBRANCH   1   9
BRANCH   5  20
ATOM     20  C   UNL     1       1.159  10.719  18.370  0.00  0.00    +0.000 C 
BRANCH  20  21
ATOM     21  C   UNL     1       1.058  12.184  18.725  0.00  0.00    +0.000 A 
ATOM     22  C   UNL     1      -0.178  12.845  18.675  0.00  0.00    +0.000 A 
ATOM     23  C   UNL     1      -0.278  14.196  19.020  0.00  0.00    +0.000 A 
ATOM     24  C   UNL     1       0.854  14.900  19.420  0.00  0.00    +0.000 A 
ATOM     25  C   UNL     1       2.087  14.252  19.488  0.00  0.00    +0.000 A 
ATOM     26  C   UNL     1       2.186  12.901  19.149  0.00  0.00    +0.000 A 
ENDBRANCH  20  21
ENDBRANCH   5  20
TORSDOF 6
ENDMDL
MODEL 4
REMARK VINA RESULT:      -6.9      1.582      2.560
REMARK  Name = 
REMARK  8 active torsions:
REMARK  status: ('A' for Active; 'I' for Inactive)
REMARK    1  A    between atoms: C_1  and  O_2
REMARK    2  A    between atoms: O_2  and  C_3
REMARK    3  A    between atoms: C_6  and  O_7
REMARK    4  A    between atoms: O_7  and  C_8
REMARK    5  A    between atoms: C_9  and  C_10
REMARK    6  A    between atoms: C_10  and  N_11
REMARK    7  A    between atoms: C_15  and  C_17
REMARK    8  A    between atoms: C_17  and  C_18
REMARK                            x       y       z     vdW  Elec       q    Type
REMARK                         _______ _______ _______ _____ _____    ______ ____
ROOT
ATOM      1  N   UNL     1       2.710   4.112  18.789  0.00  0.00    +0.000 NA
ATOM      2  C   UNL     1       1.781   4.216  19.930  0.00  0.00    +0.000 C 
ATOM      3  C   UNL     1       1.768   5.546  20.718  0.00  0.00    +0.000 C 
ATOM      4  N   UNL     1       1.839   6.754  19.890  0.00  0.00    +0.000 N 
ATOM      5  C   UNL     1       1.422   7.950  20.474  0.00  0.00    +0.000 C 
ATOM      6  O   UNL     1       0.860   7.967  21.576  0.00  0.00    +0.000 OA
ATOM      7  C   UNL     1       2.746   6.675  18.747  0.00  0.00    +0.000 C 
ATOM      8  C   UNL     1       2.641   5.341  17.981  0.00  0.00    +0.000 C 
ENDROOT
BRANCH   1   9
ATOM      9  C   UNL     1       4.077   3.712  19.136  0.00  0.00    +0.000 C 
BRANCH   9  14
ATOM     10  C   UNL     1       5.787   4.157  15.738  0.00  0.00    +0.000 A 
ATOM     11  C   UNL     1       6.950   4.845  16.051  0.00  0.00    +0.000 A 
ATOM     12  C   UNL     1       7.208   5.186  17.383  0.00  0.00    +0.000 A 
ATOM     13  C   UNL     1       6.309   4.873  18.422  0.00  0.00    +0.000 A 
ATOM     14  C   UNL     1       5.129   4.172  18.133  0.00  0.00    +0.000 A 
ATOM     15  C   UNL     1       4.902   3.822  16.774  0.00  0.00    +0.000 A 
BRANCH  10  17
ATOM     16  C   UNL     1       6.337   3.918  13.430  0.00  0.00    +0.000 C 
ATOM     17  O   UNL     1       5.404   3.749  14.491  0.00  0.00    +0.000 OA
ENDBRANCH  10  17
BRANCH  13  18
ATOM     18  O   UNL     1       6.791   5.222  19.653  0.00  0.00    +0.000 OA
ATOM     19  C   UNL     1       8.087   5.792  19.709  0.00  0.00    +0.000 C 
ENDBRANCH  13  18
ENDBRANCH   9  14
ENDBRANCH   1   9
BRANCH   5  20
ATOM     20  C   UNL     1       1.670   9.269  19.743  0.00  0.00    +0.000 C 
BRANCH  20  21
ATOM     21  C   UNL     1       0.411   9.988  19.320  0.00  0.00    +0.000 A 
ATOM     22  C   UNL     1      -0.178   9.721  18.076  0.00  0.00    +0.000 A 
ATOM     23  C   UNL     1      -1.353  10.372  17.690  0.00  0.00    +0.000 A 
ATOM     24  C   UNL     1      -1.954  11.293  18.542  0.00  0.00    +0.000 A 
ATOM     25  C   UNL     1      -1.388  11.557  19.789  0.00  0.00    +0.000 A 
ATOM     26  C   UNL     1      -0.216  10.904  20.178  0.00  0.00    +0.000 A 
ENDBRANCH  20  21
ENDBRANCH   5  20
TORSDOF 6
ENDMDL
MODEL 5
REMARK VINA RESULT:      -6.8      3.211      9.419
REMARK  Name = 
REMARK  8 active torsions:
REMARK  status: ('A' for Active; 'I' for Inactive)
REMARK    1  A    between atoms: C_1  and  O_2
REMARK    2  A    between atoms: O_2  and  C_3
REMARK    3  A    between atoms: C_6  and  O_7
REMARK    4  A    between atoms: O_7  and  C_8
REMARK    5  A    between atoms: C_9  and  C_10
REMARK    6  A    between atoms: C_10  and  N_11
REMARK    7  A    between atoms: C_15  and  C_17
REMARK    8  A    between atoms: C_17  and  C_18
REMARK                            x       y       z     vdW  Elec       q    Type
REMARK                         _______ _______ _______ _____ _____    ______ ____
ROOT
ATOM      1  N   UNL     1      -0.556  10.331  20.787  0.00  0.00    +0.000 NA
ATOM      2  C   UNL     1      -0.400  10.362  19.321  0.00  0.00    +0.000 C 
ATOM      3  C   UNL     1       0.926   9.828  18.734  0.00  0.00    +0.000 C 
ATOM      4  N   UNL     1       1.430   8.605  19.365  0.00  0.00    +0.000 N 
ATOM      5  C   UNL     1       2.360   7.854  18.644  0.00  0.00    +0.000 C 
ATOM      6  O   UNL     1       2.619   8.113  17.463  0.00  0.00    +0.000 OA
ATOM      7  C   UNL     1       1.281   8.543  20.817  0.00  0.00    +0.000 C 
ATOM      8  C   UNL     1      -0.098   9.032  21.305  0.00  0.00    +0.000 C 
ENDROOT
BRANCH   1   9
ATOM      9  C   UNL     1       0.013  11.481  21.496  0.00  0.00    +0.000 C 
BRANCH   9  14
ATOM     10  C   UNL     1      -2.690  13.546  23.258  0.00  0.00    +0.000 A 
ATOM     11  C   UNL     1      -2.932  14.583  22.370  0.00  0.00    +0.000 A 
ATOM     12  C   UNL     1      -2.216  14.640  21.169  0.00  0.00    +0.000 A 
ATOM     13  C   UNL     1      -1.234  13.684  20.840  0.00  0.00    +0.000 A 
ATOM     14  C   UNL     1      -0.975  12.621  21.717  0.00  0.00    +0.000 A 
ATOM     15  C   UNL     1      -1.730  12.580  22.921  0.00  0.00    +0.000 A 
BRANCH  10  17
ATOM     16  C   UNL     1      -4.342  12.371  24.513  0.00  0.00    +0.000 C 
ATOM     17  O   UNL     1      -3.313  13.353  24.460  0.00  0.00    +0.000 OA
ENDBRANCH  10  17
BRANCH  13  18
ATOM     18  O   UNL     1      -0.716  13.877  19.588  0.00  0.00    +0.000 OA
ATOM     19  C   UNL     1       0.503  14.595  19.491  0.00  0.00    +0.000 C 
ENDBRANCH  13  18
ENDBRANCH   9  14
ENDBRANCH   1   9
BRANCH   5  20
ATOM     20  C   UNL     1       3.079   6.693  19.328  0.00  0.00    +0.000 C 
BRANCH  20  21
ATOM     21  C   UNL     1       2.305   5.395  19.320  0.00  0.00    +0.000 A 
ATOM     22  C   UNL     1       1.790   4.866  20.512  0.00  0.00    +0.000 A 
ATOM     23  C   UNL     1       1.058   3.676  20.505  0.00  0.00    +0.000 A 
ATOM     24  C   UNL     1       0.831   3.003  19.308  0.00  0.00    +0.000 A 
ATOM     25  C   UNL     1       1.325   3.524  18.114  0.00  0.00    +0.000 A 
ATOM     26  C   UNL     1       2.052   4.717  18.119  0.00  0.00    +0.000 A 
ENDBRANCH  20  21
ENDBRANCH   5  20
TORSDOF 6
ENDMDL
MODEL 6
REMARK VINA RESULT:      -6.7      3.547      9.882
REMARK  Name = 
REMARK  8 active torsions:
REMARK  status: ('A' for Active; 'I' for Inactive)
REMARK    1  A    between atoms: C_1  and  O_2
REMARK    2  A    between atoms: O_2  and  C_3
REMARK    3  A    between atoms: C_6  and  O_7
REMARK    4  A    between atoms: O_7  and  C_8
REMARK    5  A    between atoms: C_9  and  C_10
REMARK    6  A    between atoms: C_10  and  N_11
REMARK    7  A    between atoms: C_15  and  C_17
REMARK    8  A    between atoms: C_17  and  C_18
REMARK                            x       y       z     vdW  Elec       q    Type
REMARK                         _______ _______ _______ _____ _____    ______ ____
ROOT
ATOM      1  N   UNL     1      -0.587  10.812  20.789  0.00  0.00    +0.000 NA
ATOM      2  C   UNL     1      -0.423  10.784  19.325  0.00  0.00    +0.000 C 
ATOM      3  C   UNL     1       0.862  10.131  18.764  0.00  0.00    +0.000 C 
ATOM      4  N   UNL     1       1.268   8.894  19.438  0.00  0.00    +0.000 N 
ATOM      5  C   UNL     1       2.141   8.051  18.748  0.00  0.00    +0.000 C 
ATOM      6  O   UNL     1       2.424   8.250  17.561  0.00  0.00    +0.000 OA
ATOM      7  C   UNL     1       1.108   8.891  20.890  0.00  0.00    +0.000 C 
ATOM      8  C   UNL     1      -0.231   9.500  21.353  0.00  0.00    +0.000 C 
ENDROOT
BRANCH   1   9
ATOM      9  C   UNL     1       0.065  11.938  21.465  0.00  0.00    +0.000 C 
BRANCH   9  14
ATOM     10  C   UNL     1      -3.053  12.698  23.557  0.00  0.00    +0.000 A 
ATOM     11  C   UNL     1      -2.796  13.961  24.068  0.00  0.00    +0.000 A 
ATOM     12  C   UNL     1      -1.595  14.601  23.747  0.00  0.00    +0.000 A 
ATOM     13  C   UNL     1      -0.618  13.992  22.933  0.00  0.00    +0.000 A 
ATOM     14  C   UNL     1      -0.856  12.717  22.397  0.00  0.00    +0.000 A 
ATOM     15  C   UNL     1      -2.093  12.099  22.726  0.00  0.00    +0.000 A 
BRANCH  10  17
ATOM     16  C   UNL     1      -5.066  12.391  24.797  0.00  0.00    +0.000 C 
ATOM     17  O   UNL     1      -4.179  11.954  23.773  0.00  0.00    +0.000 OA
ENDBRANCH  10  17
BRANCH  13  18
ATOM     18  O   UNL     1       0.440  14.820  22.678  0.00  0.00    +0.000 OA
ATOM     19  C   UNL     1       0.216  16.216  22.781  0.00  0.00    +0.000 C 
ENDBRANCH  13  18
ENDBRANCH   9  14
ENDBRANCH   1   9
BRANCH   5  20
ATOM     20  C   UNL     1       2.766   6.861  19.474  0.00  0.00    +0.000 C 
BRANCH  20  21
ATOM     21  C   UNL     1       2.997   5.653  18.596  0.00  0.00    +0.000 A 
ATOM     22  C   UNL     1       1.954   4.753  18.333  0.00  0.00    +0.000 A 
ATOM     23  C   UNL     1       2.161   3.646  17.507  0.00  0.00    +0.000 A 
ATOM     24  C   UNL     1       3.410   3.426  16.933  0.00  0.00    +0.000 A 
ATOM     25  C   UNL     1       4.452   4.320  17.174  0.00  0.00    +0.000 A 
ATOM     26  C   UNL     1       4.245   5.431  17.995  0.00  0.00    +0.000 A 
ENDBRANCH  20  21
ENDBRANCH   5  20
TORSDOF 6
ENDMDL
MODEL 7
REMARK VINA RESULT:      -6.6      3.002      8.262
REMARK  Name = 
REMARK  8 active torsions:
REMARK  status: ('A' for Active; 'I' for Inactive)
REMARK    1  A    between atoms: C_1  and  O_2
REMARK    2  A    between atoms: O_2  and  C_3
REMARK    3  A    between atoms: C_6  and  O_7
REMARK    4  A    between atoms: O_7  and  C_8
REMARK    5  A    between atoms: C_9  and  C_10
REMARK    6  A    between atoms: C_10  and  N_11
REMARK    7  A    between atoms: C_15  and  C_17
REMARK    8  A    between atoms: C_17  and  C_18
REMARK                            x       y       z     vdW  Elec       q    Type
REMARK                         _______ _______ _______ _____ _____    ______ ____
ROOT
ATOM      1  N   UNL     1      -0.265  10.282  20.558  0.00  0.00    +0.000 NA
ATOM      2  C   UNL     1      -0.062  10.242  19.099  0.00  0.00    +0.000 C 
ATOM      3  C   UNL     1       1.247   9.605  18.579  0.00  0.00    +0.000 C 
ATOM      4  N   UNL     1       1.656   8.381  19.276  0.00  0.00    +0.000 N 
ATOM      5  C   UNL     1       2.559   7.546  18.618  0.00  0.00    +0.000 C 
ATOM      6  O   UNL     1       2.870   7.738  17.436  0.00  0.00    +0.000 OA
ATOM      7  C   UNL     1       1.457   8.391  20.723  0.00  0.00    +0.000 C 
ATOM      8  C   UNL     1       0.097   8.982  21.145  0.00  0.00    +0.000 C 
ENDROOT
BRANCH   1   9
ATOM      9  C   UNL     1       0.350  11.426  21.239  0.00  0.00    +0.000 C 
BRANCH   9  14
ATOM     10  C   UNL     1       1.547  14.376  19.109  0.00  0.00    +0.000 A 
ATOM     11  C   UNL     1       0.412  15.163  18.984  0.00  0.00    +0.000 A 
ATOM     12  C   UNL     1      -0.780  14.751  19.591  0.00  0.00    +0.000 A 
ATOM     13  C   UNL     1      -0.872  13.543  20.310  0.00  0.00    +0.000 A 
ATOM     14  C   UNL     1       0.263  12.731  20.457  0.00  0.00    +0.000 A 
ATOM     15  C   UNL     1       1.463  13.184  19.846  0.00  0.00    +0.000 A 
BRANCH  10  17
ATOM     16  C   UNL     1       3.130  16.018  18.414  0.00  0.00    +0.000 C 
ATOM     17  O   UNL     1       2.779  14.649  18.583  0.00  0.00    +0.000 OA
ENDBRANCH  10  17
BRANCH  13  18
ATOM     18  O   UNL     1      -2.100  13.372  20.889  0.00  0.00    +0.000 OA
ATOM     19  C   UNL     1      -3.067  12.635  20.160  0.00  0.00    +0.000 C 
ENDBRANCH  13  18
ENDBRANCH   9  14
ENDBRANCH   1   9
BRANCH   5  20
ATOM     20  C   UNL     1       3.185   6.374  19.373  0.00  0.00    +0.000 C 
BRANCH  20  21
ATOM     21  C   UNL     1       2.332   5.127  19.394  0.00  0.00    +0.000 A 
ATOM     22  C   UNL     1       2.090   4.410  18.214  0.00  0.00    +0.000 A 
ATOM     23  C   UNL     1       1.316   3.246  18.234  0.00  0.00    +0.000 A 
ATOM     24  C   UNL     1       0.779   2.786  19.432  0.00  0.00    +0.000 A 
ATOM     25  C   UNL     1       1.024   3.480  20.616  0.00  0.00    +0.000 A 
ATOM     26  C   UNL     1       1.801   4.641  20.598  0.00  0.00    +0.000 A 
ENDBRANCH  20  21
ENDBRANCH   5  20
TORSDOF 6
ENDMDL
MODEL 8
REMARK VINA RESULT:      -6.6      3.018      9.250
REMARK  Name = 
REMARK  8 active torsions:
REMARK  status: ('A' for Active; 'I' for Inactive)
REMARK    1  A    between atoms: C_1  and  O_2
REMARK    2  A    between atoms: O_2  and  C_3
REMARK    3  A    between atoms: C_6  and  O_7
REMARK    4  A    between atoms: O_7  and  C_8
REMARK    5  A    between atoms: C_9  and  C_10
REMARK    6  A    between atoms: C_10  and  N_11
REMARK    7  A    between atoms: C_15  and  C_17
REMARK    8  A    between atoms: C_17  and  C_18
REMARK                            x       y       z     vdW  Elec       q    Type
REMARK                         _______ _______ _______ _____ _____    ______ ____
ROOT
ATOM      1  N   UNL     1       0.037  10.368  20.111  0.00  0.00    +0.000 NA
ATOM      2  C   UNL     1       0.298  10.234  18.667  0.00  0.00    +0.000 C 
ATOM      3  C   UNL     1       1.597   9.512  18.241  0.00  0.00    +0.000 C 
ATOM      4  N   UNL     1       1.922   8.315  19.023  0.00  0.00    +0.000 N 
ATOM      5  C   UNL     1       2.813   7.406  18.453  0.00  0.00    +0.000 C 
ATOM      6  O   UNL     1       3.181   7.516  17.277  0.00  0.00    +0.000 OA
ATOM      7  C   UNL     1       1.664   8.418  20.457  0.00  0.00    +0.000 C 
ATOM      8  C   UNL     1       0.315   9.089  20.785  0.00  0.00    +0.000 C 
ENDROOT
BRANCH   1   9
ATOM      9  C   UNL     1       0.674  11.522  20.753  0.00  0.00    +0.000 C 
BRANCH   9  14
ATOM     10  C   UNL     1      -2.713  13.164  21.462  0.00  0.00    +0.000 A 
ATOM     11  C   UNL     1      -2.371  14.329  22.131  0.00  0.00    +0.000 A 
ATOM     12  C   UNL     1      -1.022  14.612  22.373  0.00  0.00    +0.000 A 
ATOM     13  C   UNL     1       0.007  13.734  21.976  0.00  0.00    +0.000 A 
ATOM     14  C   UNL     1      -0.311  12.552  21.292  0.00  0.00    +0.000 A 
ATOM     15  C   UNL     1      -1.688  12.300  21.044  0.00  0.00    +0.000 A 
BRANCH  10  17
ATOM     16  C   UNL     1      -4.970  12.852  22.163  0.00  0.00    +0.000 C 
ATOM     17  O   UNL     1      -3.979  12.758  21.146  0.00  0.00    +0.000 OA
ENDBRANCH  10  17
BRANCH  13  18
ATOM     18  O   UNL     1       1.252  14.238  22.235  0.00  0.00    +0.000 OA
ATOM     19  C   UNL     1       1.705  15.307  21.422  0.00  0.00    +0.000 C 
ENDBRANCH  13  18
ENDBRANCH   9  14
ENDBRANCH   1   9
BRANCH   5  20
ATOM     20  C   UNL     1       3.354   6.255  19.299  0.00  0.00    +0.000 C 
BRANCH  20  21
ATOM     21  C   UNL     1       2.435   5.058  19.373  0.00  0.00    +0.000 A 
ATOM     22  C   UNL     1       2.100   4.343  18.214  0.00  0.00    +0.000 A 
ATOM     23  C   UNL     1       1.265   3.225  18.283  0.00  0.00    +0.000 A 
ATOM     24  C   UNL     1       0.757   2.807  19.509  0.00  0.00    +0.000 A 
ATOM     25  C   UNL     1       1.093   3.499  20.672  0.00  0.00    +0.000 A 
ATOM     26  C   UNL     1       1.932   4.613  20.605  0.00  0.00    +0.000 A 
ENDBRANCH  20  21
ENDBRANCH   5  20
TORSDOF 6
ENDMDL
MODEL 9
REMARK VINA RESULT:      -6.6      2.254      8.791
REMARK  Name = 
REMARK  8 active torsions:
REMARK  status: ('A' for Active; 'I' for Inactive)
REMARK    1  A    between atoms: C_1  and  O_2
REMARK    2  A    between atoms: O_2  and  C_3
REMARK    3  A    between atoms: C_6  and  O_7
REMARK    4  A    between atoms: O_7  and  C_8
REMARK    5  A    between atoms: C_9  and  C_10
REMARK    6  A    between atoms: C_10  and  N_11
REMARK    7  A    between atoms: C_15  and  C_17
REMARK    8  A    between atoms: C_17  and  C_18
REMARK                            x       y       z     vdW  Elec       q    Type
REMARK                         _______ _______ _______ _____ _____    ______ ____
ROOT
ATOM      1  N   UNL     1       0.982  10.092  19.015  0.00  0.00    +0.000 NA
ATOM      2  C   UNL     1       1.106   9.309  20.257  0.00  0.00    +0.000 C 
ATOM      3  C   UNL     1       1.373   7.792  20.120  0.00  0.00    +0.000 C 
ATOM      4  N   UNL     1       2.344   7.429  19.083  0.00  0.00    +0.000 N 
ATOM      5  C   UNL     1       2.933   6.168  19.177  0.00  0.00    +0.000 C 
ATOM      6  O   UNL     1       2.776   5.457  20.177  0.00  0.00    +0.000 OA
ATOM      7  C   UNL     1       2.249   8.196  17.843  0.00  0.00    +0.000 C 
ATOM      8  C   UNL     1       2.051   9.707  18.079  0.00  0.00    +0.000 C 
ENDROOT
BRANCH   1   9
ATOM      9  C   UNL     1      -0.354  10.093  18.412  0.00  0.00    +0.000 C 
BRANCH   9  14
ATOM     10  C   UNL     1      -1.535  12.905  20.730  0.00  0.00    +0.000 A 
ATOM     11  C   UNL     1      -2.872  13.060  20.392  0.00  0.00    +0.000 A 
ATOM     12  C   UNL     1      -3.426  12.250  19.394  0.00  0.00    +0.000 A 
ATOM     13  C   UNL     1      -2.660  11.292  18.700  0.00  0.00    +0.000 A 
ATOM     14  C   UNL     1      -1.309  11.111  19.026  0.00  0.00    +0.000 A 
ATOM     15  C   UNL     1      -0.778  11.935  20.056  0.00  0.00    +0.000 A 
BRANCH  10  17
ATOM     16  C   UNL     1      -1.169  13.337  23.046  0.00  0.00    +0.000 C 
ATOM     17  O   UNL     1      -0.859  13.612  21.684  0.00  0.00    +0.000 OA
ENDBRANCH  10  17
BRANCH  13  18
ATOM     18  O   UNL     1      -3.413  10.556  17.827  0.00  0.00    +0.000 OA
ATOM     19  C   UNL     1      -3.800  11.178  16.613  0.00  0.00    +0.000 C 
ENDBRANCH  13  18
ENDBRANCH   9  14
ENDBRANCH   1   9
BRANCH   5  20
ATOM     20  C   UNL     1       3.785   5.649  18.019  0.00  0.00    +0.000 C 
BRANCH  20  21
ATOM     21  C   UNL     1       5.254   5.979  18.137  0.00  0.00    +0.000 A 
ATOM     22  C   UNL     1       5.845   6.916  17.276  0.00  0.00    +0.000 A 
ATOM     23  C   UNL     1       7.200   7.236  17.394  0.00  0.00    +0.000 A 
ATOM     24  C   UNL     1       7.979   6.627  18.374  0.00  0.00    +0.000 A 
ATOM     25  C   UNL     1       7.402   5.705  19.246  0.00  0.00    +0.000 A 
ATOM     26  C   UNL     1       6.046   5.388  19.132  0.00  0.00    +0.000 A 
ENDBRANCH  20  21
ENDBRANCH   5  20
TORSDOF 6
ENDMDL
