MODEL 1
REMARK VINA RESULT:      -7.5      0.000      0.000
REMARK  Name = 
REMARK  5 active torsions:
REMARK  status: ('A' for Active; 'I' for Inactive)
REMARK    1  A    between atoms: C_1  and  C_2
REMARK    2  A    between atoms: C_5  and  C_6
REMARK    3  A    between atoms: N_8  and  C_9
REMARK    4  A    between atoms: C_13  and  C_14
REMARK    5  A    between atoms: C_21  and  N_22
REMARK                            x       y       z     vdW  Elec       q    Type
REMARK                         _______ _______ _______ _____ _____    ______ ____
ROOT
ATOM      1  C   UNL     1       1.706   8.386  19.712  0.00  0.00    +0.000 A 
ATOM      2  S   UNL     1       1.566   7.880  21.328  0.00  0.00    +0.000 S 
ATOM      3  C   UNL     1       0.558   9.172  21.734  0.00  0.00    +0.000 A 
ATOM      4  C   UNL     1       0.289   9.999  20.661  0.00  0.00    +0.000 A 
ATOM      5  C   UNL     1       0.952   9.531  19.451  0.00  0.00    +0.000 A 
ATOM      6  C   UNL     1      -0.582  11.216  20.836  0.00  0.00    +0.000 C 
ATOM      7  C   UNL     1      -0.730  11.623  22.311  0.00  0.00    +0.000 C 
ATOM      8  C   UNL     1      -1.038  10.411  23.197  0.00  0.00    +0.000 C 
ATOM      9  C   UNL     1       0.090   9.375  23.142  0.00  0.00    +0.000 C 
ENDROOT
BRANCH   5  10
ATOM     10  C   UNL     1       0.898  10.143  18.123  0.00  0.00    +0.000 C 
ATOM     11  N   UNL     1      -0.339  10.257  17.552  0.00  0.00    +0.000 N 
ATOM     12  O   UNL     1       1.901  10.496  17.506  0.00  0.00    +0.000 OA
ATOM     13  H   UNL     1      -1.121   9.723  17.888  0.00  0.00    +0.000 HD
ATOM     14  H   UNL     1      -0.374  10.600  16.602  0.00  0.00    +0.000 HD
ENDBRANCH   5  10
BRANCH   1  17
ATOM     15  C   UNL     1       2.678   6.305  18.748  0.00  0.00    +0.000 C 
ATOM     16  O   UNL     1       2.067   5.459  19.390  0.00  0.00    +0.000 OA
ATOM     17  N   UNL     1       2.527   7.685  18.830  0.00  0.00    +0.000 N 
ATOM     18  H   UNL     1       3.072   8.251  18.178  0.00  0.00    +0.000 HD
BRANCH  15  23
ATOM     19  C   UNL     1       5.777   3.726  15.622  0.00  0.00    +0.000 C 
ATOM     20  C   UNL     1       5.011   4.673  16.456  0.00  0.00    +0.000 A 
ATOM     21  O   UNL     1       5.388   5.979  16.409  0.00  0.00    +0.000 OA
ATOM     22  N   UNL     1       4.564   6.735  17.226  0.00  0.00    +0.000 NA
ATOM     23  C   UNL     1       3.687   5.872  17.774  0.00  0.00    +0.000 A 
ATOM     24  C   UNL     1       3.933   4.564  17.300  0.00  0.00    +0.000 A 
BRANCH  24  25
ATOM     25  N   UNL     1       3.240   3.362  17.580  0.00  0.00    +0.000 N 
ATOM     26  O   UNL     1       2.188   3.176  16.958  0.00  0.00    +0.000 OA
ATOM     27  O   UNL     1       3.692   2.661  18.492  0.00  0.00    +0.000 OA
ENDBRANCH  24  25
ENDBRANCH  15  23
ENDBRANCH   1  17
TORSDOF 4
ENDMDL
MODEL 2
REMARK VINA RESULT:      -7.3      4.661      8.097
REMARK  Name = 
REMARK  5 active torsions:
REMARK  status: ('A' for Active; 'I' for Inactive)
REMARK    1  A    between atoms: C_1  and  C_2
REMARK    2  A    between atoms: C_5  and  C_6
REMARK    3  A    between atoms: N_8  and  C_9
REMARK    4  A    between atoms: C_13  and  C_14
REMARK    5  A    between atoms: C_21  and  N_22
REMARK                            x       y       z     vdW  Elec       q    Type
REMARK                         _______ _______ _______ _____ _____    ______ ____
ROOT
ATOM      1  C   UNL     1       5.220   4.282  16.102  0.00  0.00    +0.000 A 
ATOM      2  S   UNL     1       4.718   3.399  14.739  0.00  0.00    +0.000 S 
ATOM      3  C   UNL     1       5.980   3.991  13.786  0.00  0.00    +0.000 A 
ATOM      4  C   UNL     1       6.816   4.848  14.474  0.00  0.00    +0.000 A 
ATOM      5  C   UNL     1       6.384   5.014  15.856  0.00  0.00    +0.000 A 
ATOM      6  C   UNL     1       7.990   5.488  13.781  0.00  0.00    +0.000 C 
ATOM      7  C   UNL     1       7.869   5.430  12.250  0.00  0.00    +0.000 C 
ATOM      8  C   UNL     1       7.457   4.032  11.775  0.00  0.00    +0.000 C 
ATOM      9  C   UNL     1       6.087   3.632  12.336  0.00  0.00    +0.000 C 
ENDROOT
BRANCH   5  10
ATOM     10  C   UNL     1       7.017   5.837  16.886  0.00  0.00    +0.000 C 
ATOM     11  N   UNL     1       6.730   7.173  16.863  0.00  0.00    +0.000 N 
ATOM     12  O   UNL     1       7.812   5.388  17.709  0.00  0.00    +0.000 OA
ATOM     13  H   UNL     1       6.335   7.610  16.048  0.00  0.00    +0.000 HD
ATOM     14  H   UNL     1       7.229   7.761  17.517  0.00  0.00    +0.000 HD
ENDBRANCH   5  10
BRANCH   1  17
ATOM     15  C   UNL     1       3.788   5.291  17.873  0.00  0.00    +0.000 C 
ATOM     16  O   UNL     1       3.667   6.428  17.436  0.00  0.00    +0.000 OA
ATOM     17  N   UNL     1       4.473   4.236  17.277  0.00  0.00    +0.000 N 
ATOM     18  H   UNL     1       4.426   3.329  17.745  0.00  0.00    +0.000 HD
BRANCH  15  23
ATOM     19  C   UNL     1       1.986   3.007  22.063  0.00  0.00    +0.000 C 
ATOM     20  C   UNL     1       2.395   3.872  20.940  0.00  0.00    +0.000 A 
ATOM     21  O   UNL     1       1.983   5.168  20.979  0.00  0.00    +0.000 OA
ATOM     22  N   UNL     1       2.463   5.847  19.872  0.00  0.00    +0.000 NA
ATOM     23  C   UNL     1       3.165   4.947  19.156  0.00  0.00    +0.000 A 
ATOM     24  C   UNL     1       3.153   3.693  19.809  0.00  0.00    +0.000 A 
BRANCH  24  25
ATOM     25  N   UNL     1       3.784   2.482  19.437  0.00  0.00    +0.000 N 
ATOM     26  O   UNL     1       4.912   2.284  19.902  0.00  0.00    +0.000 OA
ATOM     27  O   UNL     1       3.197   1.784  18.604  0.00  0.00    +0.000 OA
ENDBRANCH  24  25
ENDBRANCH  15  23
ENDBRANCH   1  17
TORSDOF 4
ENDMDL
MODEL 3
REMARK VINA RESULT:      -7.2      2.268      7.837
REMARK  Name = 
REMARK  5 active torsions:
REMARK  status: ('A' for Active; 'I' for Inactive)
REMARK    1  A    between atoms: C_1  and  C_2
REMARK    2  A    between atoms: C_5  and  C_6
REMARK    3  A    between atoms: N_8  and  C_9
REMARK    4  A    between atoms: C_13  and  C_14
REMARK    5  A    between atoms: C_21  and  N_22
REMARK                            x       y       z     vdW  Elec       q    Type
REMARK                         _______ _______ _______ _____ _____    ______ ____
ROOT
ATOM      1  C   UNL     1       2.855   6.748  18.685  0.00  0.00    +0.000 A 
ATOM      2  S   UNL     1       3.818   7.569  17.551  0.00  0.00    +0.000 S 
ATOM      3  C   UNL     1       4.382   6.134  16.865  0.00  0.00    +0.000 A 
ATOM      4  C   UNL     1       3.846   5.008  17.459  0.00  0.00    +0.000 A 
ATOM      5  C   UNL     1       2.924   5.362  18.530  0.00  0.00    +0.000 A 
ATOM      6  C   UNL     1       4.246   3.634  16.990  0.00  0.00    +0.000 C 
ATOM      7  C   UNL     1       5.544   3.652  16.165  0.00  0.00    +0.000 C 
ATOM      8  C   UNL     1       5.524   4.769  15.116  0.00  0.00    +0.000 C 
ATOM      9  C   UNL     1       5.405   6.150  15.771  0.00  0.00    +0.000 C 
ENDROOT
BRANCH   5  10
ATOM     10  C   UNL     1       2.164   4.445  19.380  0.00  0.00    +0.000 C 
ATOM     11  N   UNL     1       1.226   3.670  18.757  0.00  0.00    +0.000 N 
ATOM     12  O   UNL     1       2.303   4.390  20.600  0.00  0.00    +0.000 OA
ATOM     13  H   UNL     1       0.886   3.897  17.838  0.00  0.00    +0.000 HD
ATOM     14  H   UNL     1       0.640   3.097  19.348  0.00  0.00    +0.000 HD
ENDBRANCH   5  10
BRANCH   1  17
ATOM     15  C   UNL     1       1.557   8.720  19.479  0.00  0.00    +0.000 C 
ATOM     16  O   UNL     1       1.519   9.387  18.452  0.00  0.00    +0.000 OA
ATOM     17  N   UNL     1       2.136   7.466  19.639  0.00  0.00    +0.000 N 
ATOM     18  H   UNL     1       2.026   7.017  20.551  0.00  0.00    +0.000 HD
BRANCH  15  23
ATOM     19  C   UNL     1      -1.160  11.268  22.965  0.00  0.00    +0.000 C 
ATOM     20  C   UNL     1      -0.264  10.422  22.153  0.00  0.00    +0.000 A 
ATOM     21  O   UNL     1       0.590   9.605  22.827  0.00  0.00    +0.000 OA
ATOM     22  N   UNL     1       1.343   8.869  21.927  0.00  0.00    +0.000 NA
ATOM     23  C   UNL     1       0.941   9.253  20.700  0.00  0.00    +0.000 A 
ATOM     24  C   UNL     1      -0.081  10.224  20.806  0.00  0.00    +0.000 A 
BRANCH  24  25
ATOM     25  N   UNL     1      -0.813  10.872  19.783  0.00  0.00    +0.000 N 
ATOM     26  O   UNL     1      -1.597  10.168  19.136  0.00  0.00    +0.000 OA
ATOM     27  O   UNL     1      -0.527  12.054  19.560  0.00  0.00    +0.000 OA
ENDBRANCH  24  25
ENDBRANCH  15  23
ENDBRANCH   1  17
TORSDOF 4
ENDMDL
MODEL 4
REMARK VINA RESULT:      -7.1      4.872      8.135
REMARK  Name = 
REMARK  5 active torsions:
REMARK  status: ('A' for Active; 'I' for Inactive)
REMARK    1  A    between atoms: C_1  and  C_2
REMARK    2  A    between atoms: C_5  and  C_6
REMARK    3  A    between atoms: N_8  and  C_9
REMARK    4  A    between atoms: C_13  and  C_14
REMARK    5  A    between atoms: C_21  and  N_22
REMARK                            x       y       z     vdW  Elec       q    Type
REMARK                         _______ _______ _______ _____ _____    ______ ____
ROOT
ATOM      1  C   UNL     1       5.279   4.138  16.039  0.00  0.00    +0.000 A 
ATOM      2  S   UNL     1       4.791   3.273  14.660  0.00  0.00    +0.000 S 
ATOM      3  C   UNL     1       6.020   3.932  13.708  0.00  0.00    +0.000 A 
ATOM      4  C   UNL     1       6.834   4.800  14.408  0.00  0.00    +0.000 A 
ATOM      5  C   UNL     1       6.413   4.916  15.799  0.00  0.00    +0.000 A 
ATOM      6  C   UNL     1       7.976   5.498  13.719  0.00  0.00    +0.000 C 
ATOM      7  C   UNL     1       7.839   5.474  12.188  0.00  0.00    +0.000 C 
ATOM      8  C   UNL     1       7.469   4.075  11.682  0.00  0.00    +0.000 C 
ATOM      9  C   UNL     1       6.121   3.613  12.248  0.00  0.00    +0.000 C 
ENDROOT
BRANCH   5  10
ATOM     10  C   UNL     1       7.031   5.734  16.842  0.00  0.00    +0.000 C 
ATOM     11  N   UNL     1       7.778   5.072  17.776  0.00  0.00    +0.000 N 
ATOM     12  O   UNL     1       6.862   6.948  16.931  0.00  0.00    +0.000 OA
ATOM     13  H   UNL     1       7.695   4.079  17.905  0.00  0.00    +0.000 HD
ATOM     14  H   UNL     1       8.138   5.619  18.547  0.00  0.00    +0.000 HD
ENDBRANCH   5  10
BRANCH   1  17
ATOM     15  C   UNL     1       3.750   5.020  17.796  0.00  0.00    +0.000 C 
ATOM     16  O   UNL     1       3.496   6.125  17.332  0.00  0.00    +0.000 OA
ATOM     17  N   UNL     1       4.548   4.036  17.221  0.00  0.00    +0.000 N 
ATOM     18  H   UNL     1       4.609   3.142  17.711  0.00  0.00    +0.000 HD
BRANCH  15  23
ATOM     19  C   UNL     1       1.374   2.761  21.704  0.00  0.00    +0.000 C 
ATOM     20  C   UNL     1       2.103   3.601  20.735  0.00  0.00    +0.000 A 
ATOM     21  O   UNL     1       2.551   4.807  21.178  0.00  0.00    +0.000 OA
ATOM     22  N   UNL     1       3.226   5.459  20.161  0.00  0.00    +0.000 NA
ATOM     23  C   UNL     1       3.178   4.640  19.093  0.00  0.00    +0.000 A 
ATOM     24  C   UNL     1       2.486   3.453  19.424  0.00  0.00    +0.000 A 
BRANCH  24  25
ATOM     25  N   UNL     1       2.230   2.311  18.627  0.00  0.00    +0.000 N 
ATOM     26  O   UNL     1       1.059   2.141  18.270  0.00  0.00    +0.000 OA
ATOM     27  O   UNL     1       3.176   1.537  18.448  0.00  0.00    +0.000 OA
ENDBRANCH  24  25
ENDBRANCH  15  23
ENDBRANCH   1  17
TORSDOF 4
ENDMDL
MODEL 5
REMARK VINA RESULT:      -7.1      4.220      5.774
REMARK  Name = 
REMARK  5 active torsions:
REMARK  status: ('A' for Active; 'I' for Inactive)
REMARK    1  A    between atoms: C_1  and  C_2
REMARK    2  A    between atoms: C_5  and  C_6
REMARK    3  A    between atoms: N_8  and  C_9
REMARK    4  A    between atoms: C_13  and  C_14
REMARK    5  A    between atoms: C_21  and  N_22
REMARK                            x       y       z     vdW  Elec       q    Type
REMARK                         _______ _______ _______ _____ _____    ______ ____
ROOT
ATOM      1  C   UNL     1       4.138   4.332  17.039  0.00  0.00    +0.000 A 
ATOM      2  S   UNL     1       3.681   2.739  17.414  0.00  0.00    +0.000 S 
ATOM      3  C   UNL     1       2.802   3.221  18.773  0.00  0.00    +0.000 A 
ATOM      4  C   UNL     1       2.817   4.589  18.963  0.00  0.00    +0.000 A 
ATOM      5  C   UNL     1       3.593   5.261  17.928  0.00  0.00    +0.000 A 
ATOM      6  C   UNL     1       2.099   5.204  20.136  0.00  0.00    +0.000 C 
ATOM      7  C   UNL     1       1.778   4.174  21.231  0.00  0.00    +0.000 C 
ATOM      8  C   UNL     1       1.176   2.895  20.637  0.00  0.00    +0.000 C 
ATOM      9  C   UNL     1       2.152   2.214  19.670  0.00  0.00    +0.000 C 
ENDROOT
BRANCH   5  10
ATOM     10  C   UNL     1       3.829   6.698  17.795  0.00  0.00    +0.000 C 
ATOM     11  N   UNL     1       2.736   7.510  17.907  0.00  0.00    +0.000 N 
ATOM     12  O   UNL     1       4.933   7.176  17.544  0.00  0.00    +0.000 OA
ATOM     13  H   UNL     1       1.802   7.147  17.815  0.00  0.00    +0.000 HD
ATOM     14  H   UNL     1       2.877   8.496  17.732  0.00  0.00    +0.000 HD
ENDBRANCH   5  10
BRANCH   1  17
ATOM     15  C   UNL     1       6.372   4.455  15.943  0.00  0.00    +0.000 C 
ATOM     16  O   UNL     1       7.084   4.045  16.851  0.00  0.00    +0.000 OA
ATOM     17  N   UNL     1       4.986   4.579  15.961  0.00  0.00    +0.000 N 
ATOM     18  H   UNL     1       4.536   4.882  15.095  0.00  0.00    +0.000 HD
BRANCH  15  23
ATOM     19  C   UNL     1       7.823   5.083  11.093  0.00  0.00    +0.000 C 
ATOM     20  C   UNL     1       7.581   5.069  12.549  0.00  0.00    +0.000 A 
ATOM     21  O   UNL     1       8.369   5.874  13.312  0.00  0.00    +0.000 OA
ATOM     22  N   UNL     1       8.004   5.761  14.643  0.00  0.00    +0.000 NA
ATOM     23  C   UNL     1       6.991   4.874  14.681  0.00  0.00    +0.000 A 
ATOM     24  C   UNL     1       6.690   4.427  13.374  0.00  0.00    +0.000 A 
BRANCH  24  25
ATOM     25  N   UNL     1       5.686   3.528  12.942  0.00  0.00    +0.000 N 
ATOM     26  O   UNL     1       6.072   2.524  12.332  0.00  0.00    +0.000 OA
ATOM     27  O   UNL     1       4.515   3.878  13.121  0.00  0.00    +0.000 OA
ENDBRANCH  24  25
ENDBRANCH  15  23
ENDBRANCH   1  17
TORSDOF 4
ENDMDL
MODEL 6
REMARK VINA RESULT:      -7.1      1.218      1.264
REMARK  Name = 
REMARK  5 active torsions:
REMARK  status: ('A' for Active; 'I' for Inactive)
REMARK    1  A    between atoms: C_1  and  C_2
REMARK    2  A    between atoms: C_5  and  C_6
REMARK    3  A    between atoms: N_8  and  C_9
REMARK    4  A    between atoms: C_13  and  C_14
REMARK    5  A    between atoms: C_21  and  N_22
REMARK                            x       y       z     vdW  Elec       q    Type
REMARK                         _______ _______ _______ _____ _____    ______ ____
ROOT
ATOM      1  C   UNL     1       1.274   8.536  20.213  0.00  0.00    +0.000 A 
ATOM      2  S   UNL     1       0.973   8.417  21.881  0.00  0.00    +0.000 S 
ATOM      3  C   UNL     1       0.042   9.826  21.900  0.00  0.00    +0.000 A 
ATOM      4  C   UNL     1      -0.079  10.405  20.651  0.00  0.00    +0.000 A 
ATOM      5  C   UNL     1       0.634   9.637  19.639  0.00  0.00    +0.000 A 
ATOM      6  C   UNL     1      -0.861  11.680  20.475  0.00  0.00    +0.000 C 
ATOM      7  C   UNL     1      -1.087  12.417  21.805  0.00  0.00    +0.000 C 
ATOM      8  C   UNL     1      -1.557  11.457  22.903  0.00  0.00    +0.000 C 
ATOM      9  C   UNL     1      -0.513  10.369  23.180  0.00  0.00    +0.000 C 
ENDROOT
BRANCH   5  10
ATOM     10  C   UNL     1       0.730   9.934  18.210  0.00  0.00    +0.000 C 
ATOM     11  N   UNL     1      -0.450  10.060  17.532  0.00  0.00    +0.000 N 
ATOM     12  O   UNL     1       1.800  10.020  17.613  0.00  0.00    +0.000 OA
ATOM     13  H   UNL     1      -1.313   9.710  17.912  0.00  0.00    +0.000 HD
ATOM     14  H   UNL     1      -0.392  10.182  16.530  0.00  0.00    +0.000 HD
ENDBRANCH   5  10
BRANCH   1  17
ATOM     15  C   UNL     1       2.212   6.252  19.885  0.00  0.00    +0.000 C 
ATOM     16  O   UNL     1       1.556   5.624  20.706  0.00  0.00    +0.000 OA
ATOM     17  N   UNL     1       2.101   7.607  19.586  0.00  0.00    +0.000 N 
ATOM     18  H   UNL     1       2.684   7.964  18.826  0.00  0.00    +0.000 HD
BRANCH  15  23
ATOM     19  C   UNL     1       4.889   3.090  16.908  0.00  0.00    +0.000 C 
ATOM     20  C   UNL     1       4.334   4.117  17.812  0.00  0.00    +0.000 A 
ATOM     21  O   UNL     1       5.212   5.012  18.339  0.00  0.00    +0.000 OA
ATOM     22  N   UNL     1       4.535   5.914  19.143  0.00  0.00    +0.000 NA
ATOM     23  C   UNL     1       3.239   5.552  19.103  0.00  0.00    +0.000 A 
ATOM     24  C   UNL     1       3.075   4.428  18.262  0.00  0.00    +0.000 A 
BRANCH  24  25
ATOM     25  N   UNL     1       1.891   3.739  17.905  0.00  0.00    +0.000 N 
ATOM     26  O   UNL     1       1.095   4.351  17.183  0.00  0.00    +0.000 OA
ATOM     27  O   UNL     1       1.712   2.635  18.429  0.00  0.00    +0.000 OA
ENDBRANCH  24  25
ENDBRANCH  15  23
ENDBRANCH   1  17
TORSDOF 4
ENDMDL
MODEL 7
REMARK VINA RESULT:      -7.0      2.310      2.541
REMARK  Name = 
REMARK  5 active torsions:
REMARK  status: ('A' for Active; 'I' for Inactive)
REMARK    1  A    between atoms: C_1  and  C_2
REMARK    2  A    between atoms: C_5  and  C_6
REMARK    3  A    between atoms: N_8  and  C_9
REMARK    4  A    between atoms: C_13  and  C_14
REMARK    5  A    between atoms: C_21  and  N_22
REMARK                            x       y       z     vdW  Elec       q    Type
REMARK                         _______ _______ _______ _____ _____    ______ ____
ROOT
ATOM      1  C   UNL     1       1.401   8.453  20.531  0.00  0.00    +0.000 A 
ATOM      2  S   UNL     1       0.729   8.670  22.077  0.00  0.00    +0.000 S 
ATOM      3  C   UNL     1       0.065  10.168  21.670  0.00  0.00    +0.000 A 
ATOM      4  C   UNL     1       0.318  10.529  20.361  0.00  0.00    +0.000 A 
ATOM      5  C   UNL     1       1.096   9.508  19.670  0.00  0.00    +0.000 A 
ATOM      6  C   UNL     1      -0.183  11.843  19.822  0.00  0.00    +0.000 C 
ATOM      7  C   UNL     1      -0.566  12.827  20.940  0.00  0.00    +0.000 C 
ATOM      8  C   UNL     1      -1.417  12.145  22.017  0.00  0.00    +0.000 C 
ATOM      9  C   UNL     1      -0.656  10.996  22.689  0.00  0.00    +0.000 C 
ENDROOT
BRANCH   5  10
ATOM     10  C   UNL     1       1.548   9.535  18.280  0.00  0.00    +0.000 C 
ATOM     11  N   UNL     1       2.009  10.733  17.810  0.00  0.00    +0.000 N 
ATOM     12  O   UNL     1       1.481   8.561  17.534  0.00  0.00    +0.000 OA
ATOM     13  H   UNL     1       1.804  11.595  18.285  0.00  0.00    +0.000 HD
ATOM     14  H   UNL     1       2.244  10.780  16.828  0.00  0.00    +0.000 HD
ENDBRANCH   5  10
BRANCH   1  17
ATOM     15  C   UNL     1       1.776   5.998  20.338  0.00  0.00    +0.000 C 
ATOM     16  O   UNL     1       0.653   5.583  20.594  0.00  0.00    +0.000 OA
ATOM     17  N   UNL     1       2.177   7.328  20.261  0.00  0.00    +0.000 N 
ATOM     18  H   UNL     1       3.142   7.505  19.974  0.00  0.00    +0.000 HD
BRANCH  15  23
ATOM     19  C   UNL     1       4.787   1.896  19.972  0.00  0.00    +0.000 C 
ATOM     20  C   UNL     1       4.109   3.206  19.978  0.00  0.00    +0.000 A 
ATOM     21  O   UNL     1       4.814   4.267  19.501  0.00  0.00    +0.000 OA
ATOM     22  N   UNL     1       4.035   5.411  19.556  0.00  0.00    +0.000 NA
ATOM     23  C   UNL     1       2.852   5.034  20.077  0.00  0.00    +0.000 A 
ATOM     24  C   UNL     1       2.860   3.646  20.344  0.00  0.00    +0.000 A 
BRANCH  24  25
ATOM     25  N   UNL     1       1.828   2.825  20.858  0.00  0.00    +0.000 N 
ATOM     26  O   UNL     1       1.031   2.363  20.033  0.00  0.00    +0.000 OA
ATOM     27  O   UNL     1       1.756   2.729  22.087  0.00  0.00    +0.000 OA
ENDBRANCH  24  25
ENDBRANCH  15  23
ENDBRANCH   1  17
TORSDOF 4
ENDMDL
MODEL 8
REMARK VINA RESULT:      -6.9      2.692      3.760
REMARK  Name = 
REMARK  5 active torsions:
REMARK  status: ('A' for Active; 'I' for Inactive)
REMARK    1  A    between atoms: C_1  and  C_2
REMARK    2  A    between atoms: C_5  and  C_6
REMARK    3  A    between atoms: N_8  and  C_9
REMARK    4  A    between atoms: C_13  and  C_14
REMARK    5  A    between atoms: C_21  and  N_22
REMARK                            x       y       z     vdW  Elec       q    Type
REMARK                         _______ _______ _______ _____ _____    ______ ____
ROOT
ATOM      1  C   UNL     1       1.029   9.170  20.344  0.00  0.00    +0.000 A 
ATOM      2  S   UNL     1       0.974   9.936  18.828  0.00  0.00    +0.000 S 
ATOM      3  C   UNL     1       0.298  11.344  19.470  0.00  0.00    +0.000 A 
ATOM      4  C   UNL     1       0.116  11.276  20.838  0.00  0.00    +0.000 A 
ATOM      5  C   UNL     1       0.564   9.995  21.369  0.00  0.00    +0.000 A 
ATOM      6  C   UNL     1      -0.492  12.435  21.584  0.00  0.00    +0.000 C 
ATOM      7  C   UNL     1      -1.231  13.408  20.653  0.00  0.00    +0.000 C 
ATOM      8  C   UNL     1      -0.394  13.740  19.413  0.00  0.00    +0.000 C 
ATOM      9  C   UNL     1      -0.098  12.485  18.584  0.00  0.00    +0.000 C 
ENDROOT
BRANCH   5  10
ATOM     10  C   UNL     1       0.534   9.561  22.766  0.00  0.00    +0.000 C 
ATOM     11  N   UNL     1      -0.699   9.311  23.301  0.00  0.00    +0.000 N 
ATOM     12  O   UNL     1       1.543   9.468  23.461  0.00  0.00    +0.000 OA
ATOM     13  H   UNL     1      -1.538   9.655  22.868  0.00  0.00    +0.000 HD
ATOM     14  H   UNL     1      -0.734   9.093  24.288  0.00  0.00    +0.000 HD
ENDBRANCH   5  10
BRANCH   1  17
ATOM     15  C   UNL     1       2.269   7.170  19.527  0.00  0.00    +0.000 C 
ATOM     16  O   UNL     1       2.765   7.621  18.503  0.00  0.00    +0.000 OA
ATOM     17  N   UNL     1       1.478   7.854  20.444  0.00  0.00    +0.000 N 
ATOM     18  H   UNL     1       1.192   7.345  21.283  0.00  0.00    +0.000 HD
BRANCH  15  23
ATOM     19  C   UNL     1       4.053   2.423  20.088  0.00  0.00    +0.000 C 
ATOM     20  C   UNL     1       3.337   3.713  20.051  0.00  0.00    +0.000 A 
ATOM     21  O   UNL     1       2.112   3.755  20.641  0.00  0.00    +0.000 OA
ATOM     22  N   UNL     1       1.585   5.031  20.538  0.00  0.00    +0.000 NA
ATOM     23  C   UNL     1       2.501   5.762  19.874  0.00  0.00    +0.000 A 
ATOM     24  C   UNL     1       3.625   4.964  19.562  0.00  0.00    +0.000 A 
BRANCH  24  25
ATOM     25  N   UNL     1       4.827   5.324  18.908  0.00  0.00    +0.000 N 
ATOM     26  O   UNL     1       4.813   5.288  17.672  0.00  0.00    +0.000 OA
ATOM     27  O   UNL     1       5.808   5.539  19.629  0.00  0.00    +0.000 OA
ENDBRANCH  24  25
ENDBRANCH  15  23
ENDBRANCH   1  17
TORSDOF 4
ENDMDL
MODEL 9
REMARK VINA RESULT:      -6.8      2.396      7.509
REMARK  Name = 
REMARK  5 active torsions:
REMARK  status: ('A' for Active; 'I' for Inactive)
REMARK    1  A    between atoms: C_1  and  C_2
REMARK    2  A    between atoms: C_5  and  C_6
REMARK    3  A    between atoms: N_8  and  C_9
REMARK    4  A    between atoms: C_13  and  C_14
REMARK    5  A    between atoms: C_21  and  N_22
REMARK                            x       y       z     vdW  Elec       q    Type
REMARK                         _______ _______ _______ _____ _____    ______ ____
ROOT
ATOM      1  C   UNL     1       2.494   7.548  18.674  0.00  0.00    +0.000 A 
ATOM      2  S   UNL     1       3.471   8.050  17.377  0.00  0.00    +0.000 S 
ATOM      3  C   UNL     1       4.104   6.502  17.144  0.00  0.00    +0.000 A 
ATOM      4  C   UNL     1       3.581   5.571  18.021  0.00  0.00    +0.000 A 
ATOM      5  C   UNL     1       2.611   6.179  18.923  0.00  0.00    +0.000 A 
ATOM      6  C   UNL     1       4.040   4.137  17.974  0.00  0.00    +0.000 C 
ATOM      7  C   UNL     1       5.365   3.971  17.212  0.00  0.00    +0.000 C 
ATOM      8  C   UNL     1       5.348   4.742  15.887  0.00  0.00    +0.000 C 
ATOM      9  C   UNL     1       5.163   6.247  16.117  0.00  0.00    +0.000 C 
ENDROOT
BRANCH   5  10
ATOM     10  C   UNL     1       1.850   5.512  19.979  0.00  0.00    +0.000 C 
ATOM     11  N   UNL     1       2.029   5.982  21.251  0.00  0.00    +0.000 N 
ATOM     12  O   UNL     1       1.122   4.544  19.773  0.00  0.00    +0.000 OA
ATOM     13  H   UNL     1       2.819   6.556  21.490  0.00  0.00    +0.000 HD
ATOM     14  H   UNL     1       1.573   5.472  21.996  0.00  0.00    +0.000 HD
ENDBRANCH   5  10
BRANCH   1  17
ATOM     15  C   UNL     1       0.886   9.444  18.813  0.00  0.00    +0.000 C 
ATOM     16  O   UNL     1       0.632   9.606  17.626  0.00  0.00    +0.000 OA
ATOM     17  N   UNL     1       1.720   8.478  19.365  0.00  0.00    +0.000 N 
ATOM     18  H   UNL     1       1.776   8.440  20.384  0.00  0.00    +0.000 HD
BRANCH  15  23
ATOM     19  C   UNL     1      -1.201  11.590  22.944  0.00  0.00    +0.000 C 
ATOM     20  C   UNL     1      -0.647  11.187  21.637  0.00  0.00    +0.000 A 
ATOM     21  O   UNL     1      -0.706  12.104  20.634  0.00  0.00    +0.000 OA
ATOM     22  N   UNL     1      -0.132  11.582  19.487  0.00  0.00    +0.000 NA
ATOM     23  C   UNL     1       0.271  10.337  19.803  0.00  0.00    +0.000 A 
ATOM     24  C   UNL     1      -0.028  10.059  21.156  0.00  0.00    +0.000 A 
BRANCH  24  25
ATOM     25  N   UNL     1       0.245   8.896  21.915  0.00  0.00    +0.000 N 
ATOM     26  O   UNL     1       1.339   8.858  22.489  0.00  0.00    +0.000 OA
ATOM     27  O   UNL     1      -0.587   7.984  21.852  0.00  0.00    +0.000 OA
ENDBRANCH  24  25
ENDBRANCH  15  23
ENDBRANCH   1  17
TORSDOF 4
ENDMDL
