MODEL 1
REMARK VINA RESULT:      -8.9      0.000      0.000
REMARK  Name = 
REMARK  10 active torsions:
REMARK  status: ('A' for Active; 'I' for Inactive)
REMARK    1  A    between atoms: C_1  and  C_2
REMARK    2  A    between atoms: C_2  and  C_3
REMARK    3  A    between atoms: C_3  and  C_4
REMARK    4  A    between atoms: C_4  and  C_5
REMARK    5  A    between atoms: C_5  and  C_6
REMARK    6  A    between atoms: C_6  and  N_7
REMARK    7  A    between atoms: C_8  and  C_10
REMARK    8  A    between atoms: C_12  and  O_13
REMARK    9  A    between atoms: O_13  and  C_14
REMARK   10  A    between atoms: C_14  and  C_15
REMARK                            x       y       z     vdW  Elec       q    Type
REMARK                         _______ _______ _______ _____ _____    ______ ____
ROOT
ATOM      1  C   UNL     1       4.265   5.288  16.880  0.00  0.00    +0.000 A 
ATOM      2  C   UNL     1       3.870   6.315  17.744  0.00  0.00    +0.000 A 
ATOM      3  C   UNL     1       2.964   6.062  18.790  0.00  0.00    +0.000 A 
ATOM      4  C   UNL     1       2.369   4.776  18.939  0.00  0.00    +0.000 A 
ATOM      5  C   UNL     1       1.342   4.442  19.861  0.00  0.00    +0.000 A 
ATOM      6  C   UNL     1       0.938   3.128  20.087  0.00  0.00    +0.000 A 
ATOM      7  C   UNL     1       1.464   2.111  19.309  0.00  0.00    +0.000 A 
ATOM      8  C   UNL     1       2.368   2.424  18.298  0.00  0.00    +0.000 A 
ATOM      9  C   UNL     1       2.827   3.736  18.098  0.00  0.00    +0.000 A 
ATOM     10  C   UNL     1       3.743   4.007  17.069  0.00  0.00    +0.000 A 
ENDROOT
BRANCH   1  12
ATOM     11  N   UNL     1       5.903   4.511  15.238  0.00  0.00    +0.000 N 
ATOM     12  C   UNL     1       5.223   5.591  15.770  0.00  0.00    +0.000 C 
ATOM     13  O   UNL     1       5.381   6.743  15.382  0.00  0.00    +0.000 OA
ATOM     14  H   UNL     1       5.877   3.622  15.716  0.00  0.00    +0.000 HD
BRANCH  11  15
ATOM     15  C   UNL     1       6.824   4.638  14.124  0.00  0.00    +0.000 C 
BRANCH  15  16
ATOM     16  C   UNL     1       6.495   3.672  12.989  0.00  0.00    +0.000 C 
BRANCH  16  17
ATOM     17  C   UNL     1       4.993   3.663  12.690  0.00  0.00    +0.000 C 
BRANCH  17  18
ATOM     18  C   UNL     1       4.689   3.018  11.336  0.00  0.00    +0.000 C 
BRANCH  18  20
ATOM     19  C   UNL     1       3.132   4.044   9.636  0.00  0.00    +0.000 C 
ATOM     20  C   UNL     1       3.232   3.245  10.926  0.00  0.00    +0.000 C 
ENDBRANCH  18  20
ENDBRANCH  17  18
ENDBRANCH  16  17
ENDBRANCH  15  16
ENDBRANCH  11  15
ENDBRANCH   1  12
BRANCH   3  21
ATOM     21  O   UNL     1       2.754   7.149  19.609  0.00  0.00    +0.000 OA
BRANCH  21  22
ATOM     22  C   UNL     1       1.978   8.221  19.070  0.00  0.00    +0.000 C 
BRANCH  22  23
ATOM     23  C   UNL     1       1.141   8.885  20.125  0.00  0.00    +0.000 A 
ATOM     24  C   UNL     1       1.214   8.484  21.463  0.00  0.00    +0.000 A 
ATOM     25  C   UNL     1       0.458   9.147  22.428  0.00  0.00    +0.000 A 
ATOM     26  C   UNL     1      -0.371  10.209  22.061  0.00  0.00    +0.000 A 
ATOM     27  C   UNL     1      -0.441  10.617  20.733  0.00  0.00    +0.000 A 
ATOM     28  C   UNL     1       0.311   9.955  19.765  0.00  0.00    +0.000 A 
ENDBRANCH  22  23
ENDBRANCH  21  22
ENDBRANCH   3  21
TORSDOF 9
ENDMDL
MODEL 2
REMARK VINA RESULT:      -8.7      1.099      1.301
REMARK  Name = 
REMARK  10 active torsions:
REMARK  status: ('A' for Active; 'I' for Inactive)
REMARK    1  A    between atoms: C_1  and  C_2
REMARK    2  A    between atoms: C_2  and  C_3
REMARK    3  A    between atoms: C_3  and  C_4
REMARK    4  A    between atoms: C_4  and  C_5
REMARK    5  A    between atoms: C_5  and  C_6
REMARK    6  A    between atoms: C_6  and  N_7
REMARK    7  A    between atoms: C_8  and  C_10
REMARK    8  A    between atoms: C_12  and  O_13
REMARK    9  A    between atoms: O_13  and  C_14
REMARK   10  A    between atoms: C_14  and  C_15
REMARK                            x       y       z     vdW  Elec       q    Type
REMARK                         _______ _______ _______ _____ _____    ______ ____
ROOT
ATOM      1  C   UNL     1       5.167   4.609  16.599  0.00  0.00    +0.000 A 
ATOM      2  C   UNL     1       4.757   5.793  17.223  0.00  0.00    +0.000 A 
ATOM      3  C   UNL     1       3.639   5.802  18.076  0.00  0.00    +0.000 A 
ATOM      4  C   UNL     1       2.854   4.627  18.257  0.00  0.00    +0.000 A 
ATOM      5  C   UNL     1       1.632   4.552  18.975  0.00  0.00    +0.000 A 
ATOM      6  C   UNL     1       1.014   3.339  19.275  0.00  0.00    +0.000 A 
ATOM      7  C   UNL     1       1.535   2.165  18.760  0.00  0.00    +0.000 A 
ATOM      8  C   UNL     1       2.653   2.219  17.933  0.00  0.00    +0.000 A 
ATOM      9  C   UNL     1       3.319   3.428  17.671  0.00  0.00    +0.000 A 
ATOM     10  C   UNL     1       4.446   3.437  16.833  0.00  0.00    +0.000 A 
ENDROOT
BRANCH   1  12
ATOM     11  N   UNL     1       6.084   4.671  14.333  0.00  0.00    +0.000 N 
ATOM     12  C   UNL     1       6.355   4.634  15.688  0.00  0.00    +0.000 C 
ATOM     13  O   UNL     1       7.492   4.613  16.146  0.00  0.00    +0.000 OA
ATOM     14  H   UNL     1       5.143   4.497  14.008  0.00  0.00    +0.000 HD
BRANCH  11  15
ATOM     15  C   UNL     1       7.128   4.750  13.328  0.00  0.00    +0.000 C 
BRANCH  15  16
ATOM     16  C   UNL     1       6.847   3.846  12.130  0.00  0.00    +0.000 C 
BRANCH  16  17
ATOM     17  C   UNL     1       5.612   2.973  12.374  0.00  0.00    +0.000 C 
BRANCH  17  18
ATOM     18  C   UNL     1       4.799   2.771  11.094  0.00  0.00    +0.000 C 
BRANCH  18  20
ATOM     19  C   UNL     1       3.068   3.876   9.628  0.00  0.00    +0.000 C 
ATOM     20  C   UNL     1       3.593   3.712  11.046  0.00  0.00    +0.000 C 
ENDBRANCH  18  20
ENDBRANCH  17  18
ENDBRANCH  16  17
ENDBRANCH  15  16
ENDBRANCH  11  15
ENDBRANCH   1  12
BRANCH   3  21
ATOM     21  O   UNL     1       3.426   7.018  18.688  0.00  0.00    +0.000 OA
BRANCH  21  22
ATOM     22  C   UNL     1       2.770   8.023  17.912  0.00  0.00    +0.000 C 
BRANCH  22  23
ATOM     23  C   UNL     1       1.675   8.695  18.689  0.00  0.00    +0.000 A 
ATOM     24  C   UNL     1       1.515   8.466  20.060  0.00  0.00    +0.000 A 
ATOM     25  C   UNL     1       0.517   9.137  20.763  0.00  0.00    +0.000 A 
ATOM     26  C   UNL     1      -0.322  10.037  20.103  0.00  0.00    +0.000 A 
ATOM     27  C   UNL     1      -0.162  10.275  18.741  0.00  0.00    +0.000 A 
ATOM     28  C   UNL     1       0.832   9.604  18.034  0.00  0.00    +0.000 A 
ENDBRANCH  22  23
ENDBRANCH  21  22
ENDBRANCH   3  21
TORSDOF 9
ENDMDL
MODEL 3
REMARK VINA RESULT:      -8.7      2.240      4.403
REMARK  Name = 
REMARK  10 active torsions:
REMARK  status: ('A' for Active; 'I' for Inactive)
REMARK    1  A    between atoms: C_1  and  C_2
REMARK    2  A    between atoms: C_2  and  C_3
REMARK    3  A    between atoms: C_3  and  C_4
REMARK    4  A    between atoms: C_4  and  C_5
REMARK    5  A    between atoms: C_5  and  C_6
REMARK    6  A    between atoms: C_6  and  N_7
REMARK    7  A    between atoms: C_8  and  C_10
REMARK    8  A    between atoms: C_12  and  O_13
REMARK    9  A    between atoms: O_13  and  C_14
REMARK   10  A    between atoms: C_14  and  C_15
REMARK                            x       y       z     vdW  Elec       q    Type
REMARK                         _______ _______ _______ _____ _____    ______ ____
ROOT
ATOM      1  C   UNL     1       5.840   5.184  16.273  0.00  0.00    +0.000 A 
ATOM      2  C   UNL     1       5.969   4.351  17.390  0.00  0.00    +0.000 A 
ATOM      3  C   UNL     1       5.160   4.546  18.525  0.00  0.00    +0.000 A 
ATOM      4  C   UNL     1       4.254   5.643  18.591  0.00  0.00    +0.000 A 
ATOM      5  C   UNL     1       3.496   6.022  19.730  0.00  0.00    +0.000 A 
ATOM      6  C   UNL     1       2.490   6.984  19.673  0.00  0.00    +0.000 A 
ATOM      7  C   UNL     1       2.291   7.691  18.499  0.00  0.00    +0.000 A 
ATOM      8  C   UNL     1       3.115   7.443  17.405  0.00  0.00    +0.000 A 
ATOM      9  C   UNL     1       4.092   6.435  17.431  0.00  0.00    +0.000 A 
ATOM     10  C   UNL     1       4.899   6.216  16.303  0.00  0.00    +0.000 A 
ENDROOT
BRANCH   1  12
ATOM     11  N   UNL     1       6.302   3.994  14.187  0.00  0.00    +0.000 N 
ATOM     12  C   UNL     1       6.722   4.958  15.084  0.00  0.00    +0.000 C 
ATOM     13  O   UNL     1       7.757   5.600  14.946  0.00  0.00    +0.000 OA
ATOM     14  H   UNL     1       5.550   3.370  14.442  0.00  0.00    +0.000 HD
BRANCH  11  15
ATOM     15  C   UNL     1       7.021   3.699  12.962  0.00  0.00    +0.000 C 
BRANCH  15  16
ATOM     16  C   UNL     1       6.142   3.853  11.723  0.00  0.00    +0.000 C 
BRANCH  16  17
ATOM     17  C   UNL     1       4.714   3.373  11.996  0.00  0.00    +0.000 C 
BRANCH  17  18
ATOM     18  C   UNL     1       4.043   2.840  10.728  0.00  0.00    +0.000 C 
BRANCH  18  20
ATOM     19  C   UNL     1       2.979   4.428   9.082  0.00  0.00    +0.000 C 
ATOM     20  C   UNL     1       2.794   3.652  10.376  0.00  0.00    +0.000 C 
ENDBRANCH  18  20
ENDBRANCH  17  18
ENDBRANCH  16  17
ENDBRANCH  15  16
ENDBRANCH  11  15
ENDBRANCH   1  12
BRANCH   3  21
ATOM     21  O   UNL     1       5.337   3.585  19.495  0.00  0.00    +0.000 OA
BRANCH  21  22
ATOM     22  C   UNL     1       4.597   2.372  19.345  0.00  0.00    +0.000 C 
BRANCH  22  23
ATOM     23  C   UNL     1       3.127   2.588  19.567  0.00  0.00    +0.000 A 
ATOM     24  C   UNL     1       2.217   2.516  18.508  0.00  0.00    +0.000 A 
ATOM     25  C   UNL     1       0.855   2.678  18.751  0.00  0.00    +0.000 A 
ATOM     26  C   UNL     1       0.398   2.912  20.050  0.00  0.00    +0.000 A 
ATOM     27  C   UNL     1       1.299   2.977  21.109  0.00  0.00    +0.000 A 
ATOM     28  C   UNL     1       2.661   2.818  20.869  0.00  0.00    +0.000 A 
ENDBRANCH  22  23
ENDBRANCH  21  22
ENDBRANCH   3  21
TORSDOF 9
ENDMDL
MODEL 4
REMARK VINA RESULT:      -8.6      0.898      1.468
REMARK  Name = 
REMARK  10 active torsions:
REMARK  status: ('A' for Active; 'I' for Inactive)
REMARK    1  A    between atoms: C_1  and  C_2
REMARK    2  A    between atoms: C_2  and  C_3
REMARK    3  A    between atoms: C_3  and  C_4
REMARK    4  A    between atoms: C_4  and  C_5
REMARK    5  A    between atoms: C_5  and  C_6
REMARK    6  A    between atoms: C_6  and  N_7
REMARK    7  A    between atoms: C_8  and  C_10
REMARK    8  A    between atoms: C_12  and  O_13
REMARK    9  A    between atoms: O_13  and  C_14
REMARK   10  A    between atoms: C_14  and  C_15
REMARK                            x       y       z     vdW  Elec       q    Type
REMARK                         _______ _______ _______ _____ _____    ______ ____
ROOT
ATOM      1  C   UNL     1       4.532   4.829  16.450  0.00  0.00    +0.000 A 
ATOM      2  C   UNL     1       4.156   5.963  17.179  0.00  0.00    +0.000 A 
ATOM      3  C   UNL     1       3.190   5.872  18.198  0.00  0.00    +0.000 A 
ATOM      4  C   UNL     1       2.516   4.642  18.450  0.00  0.00    +0.000 A 
ATOM      5  C   UNL     1       1.431   4.464  19.348  0.00  0.00    +0.000 A 
ATOM      6  C   UNL     1       0.943   3.204  19.690  0.00  0.00    +0.000 A 
ATOM      7  C   UNL     1       1.445   2.083  19.051  0.00  0.00    +0.000 A 
ATOM      8  C   UNL     1       2.411   2.238  18.061  0.00  0.00    +0.000 A 
ATOM      9  C   UNL     1       2.953   3.495  17.749  0.00  0.00    +0.000 A 
ATOM     10  C   UNL     1       3.929   3.605  16.745  0.00  0.00    +0.000 A 
ENDROOT
BRANCH   1  12
ATOM     11  N   UNL     1       5.596   3.937  14.437  0.00  0.00    +0.000 N 
ATOM     12  C   UNL     1       5.555   4.961  15.365  0.00  0.00    +0.000 C 
ATOM     13  O   UNL     1       6.307   5.929  15.333  0.00  0.00    +0.000 OA
ATOM     14  H   UNL     1       5.089   3.082  14.616  0.00  0.00    +0.000 HD
BRANCH  11  15
ATOM     15  C   UNL     1       6.496   3.948  13.299  0.00  0.00    +0.000 C 
BRANCH  15  16
ATOM     16  C   UNL     1       5.913   3.215  12.093  0.00  0.00    +0.000 C 
BRANCH  16  17
ATOM     17  C   UNL     1       4.566   3.815  11.681  0.00  0.00    +0.000 C 
BRANCH  17  18
ATOM     18  C   UNL     1       3.605   2.745  11.158  0.00  0.00    +0.000 C 
BRANCH  18  20
ATOM     19  C   UNL     1       2.954   4.582   9.556  0.00  0.00    +0.000 C 
ATOM     20  C   UNL     1       3.109   3.082   9.750  0.00  0.00    +0.000 C 
ENDBRANCH  18  20
ENDBRANCH  17  18
ENDBRANCH  16  17
ENDBRANCH  15  16
ENDBRANCH  11  15
ENDBRANCH   1  12
BRANCH   3  21
ATOM     21  O   UNL     1       3.005   7.050  18.885  0.00  0.00    +0.000 OA
BRANCH  21  22
ATOM     22  C   UNL     1       2.686   8.207  18.108  0.00  0.00    +0.000 C 
BRANCH  22  23
ATOM     23  C   UNL     1       1.549   8.981  18.708  0.00  0.00    +0.000 A 
ATOM     24  C   UNL     1       0.692   9.745  17.909  0.00  0.00    +0.000 A 
ATOM     25  C   UNL     1      -0.381  10.419  18.488  0.00  0.00    +0.000 A 
ATOM     26  C   UNL     1      -0.603  10.331  19.863  0.00  0.00    +0.000 A 
ATOM     27  C   UNL     1       0.241   9.566  20.663  0.00  0.00    +0.000 A 
ATOM     28  C   UNL     1       1.316   8.894  20.088  0.00  0.00    +0.000 A 
ENDBRANCH  22  23
ENDBRANCH  21  22
ENDBRANCH   3  21
TORSDOF 9
ENDMDL
MODEL 5
REMARK VINA RESULT:      -8.5      2.394      4.593
REMARK  Name = 
REMARK  10 active torsions:
REMARK  status: ('A' for Active; 'I' for Inactive)
REMARK    1  A    between atoms: C_1  and  C_2
REMARK    2  A    between atoms: C_2  and  C_3
REMARK    3  A    between atoms: C_3  and  C_4
REMARK    4  A    between atoms: C_4  and  C_5
REMARK    5  A    between atoms: C_5  and  C_6
REMARK    6  A    between atoms: C_6  and  N_7
REMARK    7  A    between atoms: C_8  and  C_10
REMARK    8  A    between atoms: C_12  and  O_13
REMARK    9  A    between atoms: O_13  and  C_14
REMARK   10  A    between atoms: C_14  and  C_15
REMARK                            x       y       z     vdW  Elec       q    Type
REMARK                         _______ _______ _______ _____ _____    ______ ____
ROOT
ATOM      1  C   UNL     1       5.941   5.198  16.578  0.00  0.00    +0.000 A 
ATOM      2  C   UNL     1       5.999   4.384  17.715  0.00  0.00    +0.000 A 
ATOM      3  C   UNL     1       5.109   4.586  18.786  0.00  0.00    +0.000 A 
ATOM      4  C   UNL     1       4.190   5.674  18.770  0.00  0.00    +0.000 A 
ATOM      5  C   UNL     1       3.348   6.061  19.846  0.00  0.00    +0.000 A 
ATOM      6  C   UNL     1       2.339   7.011  19.701  0.00  0.00    +0.000 A 
ATOM      7  C   UNL     1       2.216   7.697  18.505  0.00  0.00    +0.000 A 
ATOM      8  C   UNL     1       3.119   7.442  17.476  0.00  0.00    +0.000 A 
ATOM      9  C   UNL     1       4.103   6.446  17.589  0.00  0.00    +0.000 A 
ATOM     10  C   UNL     1       4.990   6.218  16.524  0.00  0.00    +0.000 A 
ENDROOT
BRANCH   1  12
ATOM     11  N   UNL     1       6.416   5.142  14.180  0.00  0.00    +0.000 N 
ATOM     12  C   UNL     1       6.909   4.964  15.459  0.00  0.00    +0.000 C 
ATOM     13  O   UNL     1       8.063   4.626  15.695  0.00  0.00    +0.000 OA
ATOM     14  H   UNL     1       5.421   5.234  14.038  0.00  0.00    +0.000 HD
BRANCH  11  15
ATOM     15  C   UNL     1       7.245   5.003  12.997  0.00  0.00    +0.000 C 
BRANCH  15  16
ATOM     16  C   UNL     1       6.993   3.686  12.266  0.00  0.00    +0.000 C 
BRANCH  16  17
ATOM     17  C   UNL     1       5.519   3.544  11.876  0.00  0.00    +0.000 C 
BRANCH  17  18
ATOM     18  C   UNL     1       5.170   2.103  11.495  0.00  0.00    +0.000 C 
BRANCH  18  20
ATOM     19  C   UNL     1       6.214  -0.186  11.300  0.00  0.00    +0.000 C 
ATOM     20  C   UNL     1       6.422   1.309  11.114  0.00  0.00    +0.000 C 
ENDBRANCH  18  20
ENDBRANCH  17  18
ENDBRANCH  16  17
ENDBRANCH  15  16
ENDBRANCH  11  15
ENDBRANCH   1  12
BRANCH   3  21
ATOM     21  O   UNL     1       5.227   3.643  19.782  0.00  0.00    +0.000 OA
BRANCH  21  22
ATOM     22  C   UNL     1       4.537   2.407  19.585  0.00  0.00    +0.000 C 
BRANCH  22  23
ATOM     23  C   UNL     1       3.050   2.575  19.719  0.00  0.00    +0.000 A 
ATOM     24  C   UNL     1       2.207   2.459  18.610  0.00  0.00    +0.000 A 
ATOM     25  C   UNL     1       0.828   2.577  18.772  0.00  0.00    +0.000 A 
ATOM     26  C   UNL     1       0.288   2.809  20.038  0.00  0.00    +0.000 A 
ATOM     27  C   UNL     1       1.123   2.918  21.147  0.00  0.00    +0.000 A 
ATOM     28  C   UNL     1       2.502   2.804  20.989  0.00  0.00    +0.000 A 
ENDBRANCH  22  23
ENDBRANCH  21  22
ENDBRANCH   3  21
TORSDOF 9
ENDMDL
MODEL 6
REMARK VINA RESULT:      -8.2      1.440      1.698
REMARK  Name = 
REMARK  10 active torsions:
REMARK  status: ('A' for Active; 'I' for Inactive)
REMARK    1  A    between atoms: C_1  and  C_2
REMARK    2  A    between atoms: C_2  and  C_3
REMARK    3  A    between atoms: C_3  and  C_4
REMARK    4  A    between atoms: C_4  and  C_5
REMARK    5  A    between atoms: C_5  and  C_6
REMARK    6  A    between atoms: C_6  and  N_7
REMARK    7  A    between atoms: C_8  and  C_10
REMARK    8  A    between atoms: C_12  and  O_13
REMARK    9  A    between atoms: O_13  and  C_14
REMARK   10  A    between atoms: C_14  and  C_15
REMARK                            x       y       z     vdW  Elec       q    Type
REMARK                         _______ _______ _______ _____ _____    ______ ____
ROOT
ATOM      1  C   UNL     1       4.592   5.523  17.224  0.00  0.00    +0.000 A 
ATOM      2  C   UNL     1       3.791   6.612  17.588  0.00  0.00    +0.000 A 
ATOM      3  C   UNL     1       2.841   6.489  18.619  0.00  0.00    +0.000 A 
ATOM      4  C   UNL     1       2.618   5.233  19.254  0.00  0.00    +0.000 A 
ATOM      5  C   UNL     1       1.595   4.955  20.199  0.00  0.00    +0.000 A 
ATOM      6  C   UNL     1       1.550   3.765  20.922  0.00  0.00    +0.000 A 
ATOM      7  C   UNL     1       2.457   2.760  20.636  0.00  0.00    +0.000 A 
ATOM      8  C   UNL     1       3.383   2.947  19.614  0.00  0.00    +0.000 A 
ATOM      9  C   UNL     1       3.477   4.163  18.918  0.00  0.00    +0.000 A 
ATOM     10  C   UNL     1       4.430   4.310  17.896  0.00  0.00    +0.000 A 
ENDROOT
BRANCH   1  12
ATOM     11  N   UNL     1       5.785   4.577  15.311  0.00  0.00    +0.000 N 
ATOM     12  C   UNL     1       5.587   5.683  16.117  0.00  0.00    +0.000 C 
ATOM     13  O   UNL     1       6.183   6.743  15.964  0.00  0.00    +0.000 OA
ATOM     14  H   UNL     1       5.414   3.682  15.594  0.00  0.00    +0.000 HD
BRANCH  11  15
ATOM     15  C   UNL     1       6.677   4.593  14.167  0.00  0.00    +0.000 C 
BRANCH  15  16
ATOM     16  C   UNL     1       6.328   3.512  13.146  0.00  0.00    +0.000 C 
BRANCH  16  17
ATOM     17  C   UNL     1       4.871   3.635  12.688  0.00  0.00    +0.000 C 
BRANCH  17  18
ATOM     18  C   UNL     1       4.715   3.303  11.203  0.00  0.00    +0.000 C 
BRANCH  18  20
ATOM     19  C   UNL     1       2.961   4.107   9.577  0.00  0.00    +0.000 C 
ATOM     20  C   UNL     1       3.240   3.244  10.798  0.00  0.00    +0.000 C 
ENDBRANCH  18  20
ENDBRANCH  17  18
ENDBRANCH  16  17
ENDBRANCH  15  16
ENDBRANCH  11  15
ENDBRANCH   1  12
BRANCH   3  21
ATOM     21  O   UNL     1       2.206   7.672  18.923  0.00  0.00    +0.000 OA
BRANCH  21  22
ATOM     22  C   UNL     1       1.844   8.511  17.824  0.00  0.00    +0.000 C 
BRANCH  22  23
ATOM     23  C   UNL     1       1.354   9.852  18.287  0.00  0.00    +0.000 A 
ATOM     24  C   UNL     1       0.082  10.003  18.849  0.00  0.00    +0.000 A 
ATOM     25  C   UNL     1      -0.329  11.252  19.310  0.00  0.00    +0.000 A 
ATOM     26  C   UNL     1       0.527  12.351  19.214  0.00  0.00    +0.000 A 
ATOM     27  C   UNL     1       1.797  12.205  18.663  0.00  0.00    +0.000 A 
ATOM     28  C   UNL     1       2.210  10.959  18.198  0.00  0.00    +0.000 A 
ENDBRANCH  22  23
ENDBRANCH  21  22
ENDBRANCH   3  21
TORSDOF 9
ENDMDL
MODEL 7
REMARK VINA RESULT:      -8.2      1.567      1.906
REMARK  Name = 
REMARK  10 active torsions:
REMARK  status: ('A' for Active; 'I' for Inactive)
REMARK    1  A    between atoms: C_1  and  C_2
REMARK    2  A    between atoms: C_2  and  C_3
REMARK    3  A    between atoms: C_3  and  C_4
REMARK    4  A    between atoms: C_4  and  C_5
REMARK    5  A    between atoms: C_5  and  C_6
REMARK    6  A    between atoms: C_6  and  N_7
REMARK    7  A    between atoms: C_8  and  C_10
REMARK    8  A    between atoms: C_12  and  O_13
REMARK    9  A    between atoms: O_13  and  C_14
REMARK   10  A    between atoms: C_14  and  C_15
REMARK                            x       y       z     vdW  Elec       q    Type
REMARK                         _______ _______ _______ _____ _____    ______ ____
ROOT
ATOM      1  C   UNL     1       5.054   4.622  17.801  0.00  0.00    +0.000 A 
ATOM      2  C   UNL     1       4.079   5.592  17.542  0.00  0.00    +0.000 A 
ATOM      3  C   UNL     1       2.874   5.608  18.269  0.00  0.00    +0.000 A 
ATOM      4  C   UNL     1       2.590   4.590  19.224  0.00  0.00    +0.000 A 
ATOM      5  C   UNL     1       1.359   4.422  19.911  0.00  0.00    +0.000 A 
ATOM      6  C   UNL     1       1.208   3.527  20.968  0.00  0.00    +0.000 A 
ATOM      7  C   UNL     1       2.253   2.679  21.296  0.00  0.00    +0.000 A 
ATOM      8  C   UNL     1       3.425   2.721  20.547  0.00  0.00    +0.000 A 
ATOM      9  C   UNL     1       3.611   3.658  19.518  0.00  0.00    +0.000 A 
ATOM     10  C   UNL     1       4.812   3.668  18.790  0.00  0.00    +0.000 A 
ENDROOT
BRANCH   1  12
ATOM     11  N   UNL     1       6.184   4.828  15.642  0.00  0.00    +0.000 N 
ATOM     12  C   UNL     1       6.321   4.625  17.003  0.00  0.00    +0.000 C 
ATOM     13  O   UNL     1       7.402   4.447  17.551  0.00  0.00    +0.000 OA
ATOM     14  H   UNL     1       5.267   4.781  15.221  0.00  0.00    +0.000 HD
BRANCH  11  15
ATOM     15  C   UNL     1       7.321   4.909  14.745  0.00  0.00    +0.000 C 
BRANCH  15  16
ATOM     16  C   UNL     1       6.966   4.488  13.321  0.00  0.00    +0.000 C 
BRANCH  16  17
ATOM     17  C   UNL     1       5.645   3.713  13.288  0.00  0.00    +0.000 C 
BRANCH  17  18
ATOM     18  C   UNL     1       5.395   3.078  11.918  0.00  0.00    +0.000 C 
BRANCH  18  20
ATOM     19  C   UNL     1       6.316   0.878  11.093  0.00  0.00    +0.000 C 
ATOM     20  C   UNL     1       6.633   2.330  11.417  0.00  0.00    +0.000 C 
ENDBRANCH  18  20
ENDBRANCH  17  18
ENDBRANCH  16  17
ENDBRANCH  15  16
ENDBRANCH  11  15
ENDBRANCH   1  12
BRANCH   3  21
ATOM     21  O   UNL     1       2.065   6.680  17.965  0.00  0.00    +0.000 OA
BRANCH  21  22
ATOM     22  C   UNL     1       2.556   7.977  18.312  0.00  0.00    +0.000 C 
BRANCH  22  23
ATOM     23  C   UNL     1       1.498   8.811  18.975  0.00  0.00    +0.000 A 
ATOM     24  C   UNL     1       1.235   8.692  20.343  0.00  0.00    +0.000 A 
ATOM     25  C   UNL     1       0.277   9.510  20.940  0.00  0.00    +0.000 A 
ATOM     26  C   UNL     1      -0.418  10.447  20.174  0.00  0.00    +0.000 A 
ATOM     27  C   UNL     1      -0.155  10.576  18.814  0.00  0.00    +0.000 A 
ATOM     28  C   UNL     1       0.799   9.758  18.214  0.00  0.00    +0.000 A 
ENDBRANCH  22  23
ENDBRANCH  21  22
ENDBRANCH   3  21
TORSDOF 9
ENDMDL
MODEL 8
REMARK VINA RESULT:      -8.2      1.200      1.229
REMARK  Name = 
REMARK  10 active torsions:
REMARK  status: ('A' for Active; 'I' for Inactive)
REMARK    1  A    between atoms: C_1  and  C_2
REMARK    2  A    between atoms: C_2  and  C_3
REMARK    3  A    between atoms: C_3  and  C_4
REMARK    4  A    between atoms: C_4  and  C_5
REMARK    5  A    between atoms: C_5  and  C_6
REMARK    6  A    between atoms: C_6  and  N_7
REMARK    7  A    between atoms: C_8  and  C_10
REMARK    8  A    between atoms: C_12  and  O_13
REMARK    9  A    between atoms: O_13  and  C_14
REMARK   10  A    between atoms: C_14  and  C_15
REMARK                            x       y       z     vdW  Elec       q    Type
REMARK                         _______ _______ _______ _____ _____    ______ ____
ROOT
ATOM      1  C   UNL     1       4.733   4.609  17.364  0.00  0.00    +0.000 A 
ATOM      2  C   UNL     1       3.765   5.617  17.285  0.00  0.00    +0.000 A 
ATOM      3  C   UNL     1       2.711   5.672  18.215  0.00  0.00    +0.000 A 
ATOM      4  C   UNL     1       2.560   4.655  19.202  0.00  0.00    +0.000 A 
ATOM      5  C   UNL     1       1.465   4.527  20.096  0.00  0.00    +0.000 A 
ATOM      6  C   UNL     1       1.469   3.627  21.159  0.00  0.00    +0.000 A 
ATOM      7  C   UNL     1       2.521   2.737  21.294  0.00  0.00    +0.000 A 
ATOM      8  C   UNL     1       3.543   2.742  20.349  0.00  0.00    +0.000 A 
ATOM      9  C   UNL     1       3.580   3.682  19.306  0.00  0.00    +0.000 A 
ATOM     10  C   UNL     1       4.633   3.653  18.377  0.00  0.00    +0.000 A 
ENDROOT
BRANCH   1  12
ATOM     11  N   UNL     1       5.467   4.265  15.057  0.00  0.00    +0.000 N 
ATOM     12  C   UNL     1       5.837   4.572  16.353  0.00  0.00    +0.000 C 
ATOM     13  O   UNL     1       6.994   4.796  16.688  0.00  0.00    +0.000 OA
ATOM     14  H   UNL     1       4.541   3.907  14.874  0.00  0.00    +0.000 HD
BRANCH  11  15
ATOM     15  C   UNL     1       6.415   4.242  13.958  0.00  0.00    +0.000 C 
BRANCH  15  16
ATOM     16  C   UNL     1       6.209   3.037  13.043  0.00  0.00    +0.000 C 
BRANCH  16  17
ATOM     17  C   UNL     1       5.600   3.459  11.703  0.00  0.00    +0.000 C 
BRANCH  17  18
ATOM     18  C   UNL     1       4.072   3.510  11.767  0.00  0.00    +0.000 C 
BRANCH  18  20
ATOM     19  C   UNL     1       2.941   4.276   9.645  0.00  0.00    +0.000 C 
ATOM     20  C   UNL     1       3.444   3.080  10.439  0.00  0.00    +0.000 C 
ENDBRANCH  18  20
ENDBRANCH  17  18
ENDBRANCH  16  17
ENDBRANCH  15  16
ENDBRANCH  11  15
ENDBRANCH   1  12
BRANCH   3  21
ATOM     21  O   UNL     1       1.903   6.777  18.063  0.00  0.00    +0.000 OA
BRANCH  21  22
ATOM     22  C   UNL     1       2.433   8.028  18.508  0.00  0.00    +0.000 C 
BRANCH  22  23
ATOM     23  C   UNL     1       1.557   8.661  19.550  0.00  0.00    +0.000 A 
ATOM     24  C   UNL     1       1.408   8.086  20.817  0.00  0.00    +0.000 A 
ATOM     25  C   UNL     1       0.623   8.719  21.778  0.00  0.00    +0.000 A 
ATOM     26  C   UNL     1      -0.014   9.925  21.480  0.00  0.00    +0.000 A 
ATOM     27  C   UNL     1       0.137  10.505  20.224  0.00  0.00    +0.000 A 
ATOM     28  C   UNL     1       0.918   9.874  19.259  0.00  0.00    +0.000 A 
ENDBRANCH  22  23
ENDBRANCH  21  22
ENDBRANCH   3  21
TORSDOF 9
ENDMDL
MODEL 9
REMARK VINA RESULT:      -8.1      1.263      1.854
REMARK  Name = 
REMARK  10 active torsions:
REMARK  status: ('A' for Active; 'I' for Inactive)
REMARK    1  A    between atoms: C_1  and  C_2
REMARK    2  A    between atoms: C_2  and  C_3
REMARK    3  A    between atoms: C_3  and  C_4
REMARK    4  A    between atoms: C_4  and  C_5
REMARK    5  A    between atoms: C_5  and  C_6
REMARK    6  A    between atoms: C_6  and  N_7
REMARK    7  A    between atoms: C_8  and  C_10
REMARK    8  A    between atoms: C_12  and  O_13
REMARK    9  A    between atoms: O_13  and  C_14
REMARK   10  A    between atoms: C_14  and  C_15
REMARK                            x       y       z     vdW  Elec       q    Type
REMARK                         _______ _______ _______ _____ _____    ______ ____
ROOT
ATOM      1  C   UNL     1       4.496   5.107  17.102  0.00  0.00    +0.000 A 
ATOM      2  C   UNL     1       3.999   6.257  17.727  0.00  0.00    +0.000 A 
ATOM      3  C   UNL     1       3.056   6.155  18.766  0.00  0.00    +0.000 A 
ATOM      4  C   UNL     1       2.529   4.888  19.146  0.00  0.00    +0.000 A 
ATOM      5  C   UNL     1       1.477   4.675  20.076  0.00  0.00    +0.000 A 
ATOM      6  C   UNL     1       1.138   3.407  20.545  0.00  0.00    +0.000 A 
ATOM      7  C   UNL     1       1.760   2.294  20.007  0.00  0.00    +0.000 A 
ATOM      8  C   UNL     1       2.696   2.461  18.989  0.00  0.00    +0.000 A 
ATOM      9  C   UNL     1       3.088   3.735  18.549  0.00  0.00    +0.000 A 
ATOM     10  C   UNL     1       4.039   3.857  17.523  0.00  0.00    +0.000 A 
ENDROOT
BRANCH   1  12
ATOM     11  N   UNL     1       5.593   4.177  15.124  0.00  0.00    +0.000 N 
ATOM     12  C   UNL     1       5.491   5.249  15.992  0.00  0.00    +0.000 C 
ATOM     13  O   UNL     1       6.167   6.266  15.888  0.00  0.00    +0.000 OA
ATOM     14  H   UNL     1       5.155   3.299  15.363  0.00  0.00    +0.000 HD
BRANCH  11  15
ATOM     15  C   UNL     1       6.473   4.186  13.971  0.00  0.00    +0.000 C 
BRANCH  15  16
ATOM     16  C   UNL     1       5.858   3.473  12.769  0.00  0.00    +0.000 C 
BRANCH  16  17
ATOM     17  C   UNL     1       6.869   3.346  11.625  0.00  0.00    +0.000 C 
BRANCH  17  18
ATOM     18  C   UNL     1       7.242   1.886  11.359  0.00  0.00    +0.000 C 
BRANCH  18  20
ATOM     19  C   UNL     1       6.194  -0.409  11.331  0.00  0.00    +0.000 C 
ATOM     20  C   UNL     1       6.014   1.059  10.973  0.00  0.00    +0.000 C 
ENDBRANCH  18  20
ENDBRANCH  17  18
ENDBRANCH  16  17
ENDBRANCH  15  16
ENDBRANCH  11  15
ENDBRANCH   1  12
BRANCH   3  21
ATOM     21  O   UNL     1       2.743   7.366  19.342  0.00  0.00    +0.000 OA
BRANCH  21  22
ATOM     22  C   UNL     1       2.049   8.309  18.522  0.00  0.00    +0.000 C 
BRANCH  22  23
ATOM     23  C   UNL     1       1.220   9.254  19.344  0.00  0.00    +0.000 A 
ATOM     24  C   UNL     1       0.829  10.499  18.840  0.00  0.00    +0.000 A 
ATOM     25  C   UNL     1       0.024  11.336  19.609  0.00  0.00    +0.000 A 
ATOM     26  C   UNL     1      -0.394  10.935  20.879  0.00  0.00    +0.000 A 
ATOM     27  C   UNL     1      -0.014   9.694  21.383  0.00  0.00    +0.000 A 
ATOM     28  C   UNL     1       0.793   8.855  20.619  0.00  0.00    +0.000 A 
ENDBRANCH  22  23
ENDBRANCH  21  22
ENDBRANCH   3  21
TORSDOF 9
ENDMDL
