MODEL 1
REMARK VINA RESULT:      -8.1      0.000      0.000
REMARK  Name = 
REMARK  4 active torsions:
REMARK  status: ('A' for Active; 'I' for Inactive)
REMARK    1  A    between atoms: C_7  and  C_8
REMARK    2  A    between atoms: C_8  and  C_10
REMARK    3  A    between atoms: C_18  and  C_19
REMARK    4  A    between atoms: C_19  and  C_21
REMARK                            x       y       z     vdW  Elec       q    Type
REMARK                         _______ _______ _______ _____ _____    ______ ____
ROOT
ATOM      1  O   UNL     1       3.963   4.801  20.123  0.00  0.00    +0.000 OA
ATOM      2  C   UNL     1       3.196   5.723  19.946  0.00  0.00    +0.000 C 
ATOM      3  N   UNL     1       2.354   6.255  20.908  0.00  0.00    +0.000 N 
ATOM      4  C   UNL     1       1.738   7.418  20.465  0.00  0.00    +0.000 A 
ATOM      5  C   UNL     1       0.884   8.210  21.204  0.00  0.00    +0.000 A 
ATOM      6  C   UNL     1       0.370   9.347  20.582  0.00  0.00    +0.000 A 
ATOM      7  C   UNL     1       0.710   9.658  19.244  0.00  0.00    +0.000 A 
ATOM      8  C   UNL     1       1.608   8.837  18.524  0.00  0.00    +0.000 A 
ATOM      9  C   UNL     1       2.113   7.708  19.148  0.00  0.00    +0.000 A 
ATOM     10  C   UNL     1       3.020   6.616  18.734  0.00  0.00    +0.000 C 
ATOM     11  C   UNL     1       3.554   6.449  17.513  0.00  0.00    +0.000 C 
ATOM     12  H   UNL     1       2.285   5.862  21.835  0.00  0.00    +0.000 HD
ENDROOT
BRANCH   7  13
ATOM     13  C   UNL     1       0.123  10.906  18.666  0.00  0.00    +0.000 C 
ATOM     14  O   UNL     1       0.854  11.896  18.632  0.00  0.00    +0.000 OA
BRANCH  13  15
ATOM     15  C   UNL     1      -1.253  10.900  18.193  0.00  0.00    +0.000 A 
ATOM     16  C   UNL     1      -1.857  10.133  17.213  0.00  0.00    +0.000 A 
ATOM     17  C   UNL     1      -3.231  10.468  17.028  0.00  0.00    +0.000 A 
ATOM     18  C   UNL     1      -3.644  11.447  17.902  0.00  0.00    +0.000 A 
ATOM     19  S   UNL     1      -2.386  11.951  18.940  0.00  0.00    +0.000 S 
ENDBRANCH  13  15
ENDBRANCH   7  13
BRANCH  11  20
ATOM     20  C   UNL     1       4.263   5.209  17.065  0.00  0.00    +0.000 C 
ATOM     21  O   UNL     1       5.399   5.277  16.605  0.00  0.00    +0.000 OA
BRANCH  20  22
ATOM     22  C   UNL     1       3.670   3.911  17.330  0.00  0.00    +0.000 A 
ATOM     23  C   UNL     1       2.391   3.393  17.192  0.00  0.00    +0.000 A 
ATOM     24  C   UNL     1       2.403   2.057  17.677  0.00  0.00    +0.000 A 
ATOM     25  C   UNL     1       3.687   1.776  18.077  0.00  0.00    +0.000 A 
ATOM     26  N   UNL     1       4.446   2.890  17.847  0.00  0.00    +0.000 N 
ATOM     27  H   UNL     1       5.436   2.990  18.039  0.00  0.00    +0.000 HD
ENDBRANCH  20  22
ENDBRANCH  11  20
TORSDOF 4
ENDMDL
MODEL 2
REMARK VINA RESULT:      -8.1      1.395      1.938
REMARK  Name = 
REMARK  4 active torsions:
REMARK  status: ('A' for Active; 'I' for Inactive)
REMARK    1  A    between atoms: C_7  and  C_8
REMARK    2  A    between atoms: C_8  and  C_10
REMARK    3  A    between atoms: C_18  and  C_19
REMARK    4  A    between atoms: C_19  and  C_21
REMARK                            x       y       z     vdW  Elec       q    Type
REMARK                         _______ _______ _______ _____ _____    ______ ____
ROOT
ATOM      1  O   UNL     1       3.663   4.217  20.116  0.00  0.00    +0.000 OA
ATOM      2  C   UNL     1       2.996   5.223  19.998  0.00  0.00    +0.000 C 
ATOM      3  N   UNL     1       2.291   5.836  21.018  0.00  0.00    +0.000 N 
ATOM      4  C   UNL     1       1.782   7.066  20.625  0.00  0.00    +0.000 A 
ATOM      5  C   UNL     1       1.077   7.941  21.425  0.00  0.00    +0.000 A 
ATOM      6  C   UNL     1       0.655   9.137  20.845  0.00  0.00    +0.000 A 
ATOM      7  C   UNL     1       0.933   9.422  19.488  0.00  0.00    +0.000 A 
ATOM      8  C   UNL     1       1.678   8.513  18.703  0.00  0.00    +0.000 A 
ATOM      9  C   UNL     1       2.094   7.326  19.285  0.00  0.00    +0.000 A 
ATOM     10  C   UNL     1       2.838   6.143  18.804  0.00  0.00    +0.000 C 
ATOM     11  C   UNL     1       3.263   5.931  17.548  0.00  0.00    +0.000 C 
ATOM     12  H   UNL     1       2.243   5.442  21.946  0.00  0.00    +0.000 HD
ENDROOT
BRANCH   7  13
ATOM     13  C   UNL     1       0.453  10.735  18.957  0.00  0.00    +0.000 C 
ATOM     14  O   UNL     1       1.232  11.685  19.046  0.00  0.00    +0.000 OA
BRANCH  13  15
ATOM     15  C   UNL     1      -0.882  10.834  18.386  0.00  0.00    +0.000 A 
ATOM     16  C   UNL     1      -1.519  10.028  17.460  0.00  0.00    +0.000 A 
ATOM     17  C   UNL     1      -2.825  10.499  17.134  0.00  0.00    +0.000 A 
ATOM     18  C   UNL     1      -3.161  11.622  17.853  0.00  0.00    +0.000 A 
ATOM     19  S   UNL     1      -1.914  12.099  18.917  0.00  0.00    +0.000 S 
ENDBRANCH  13  15
ENDBRANCH   7  13
BRANCH  11  20
ATOM     20  C   UNL     1       3.792   4.624  17.046  0.00  0.00    +0.000 C 
ATOM     21  O   UNL     1       3.066   3.636  17.005  0.00  0.00    +0.000 OA
BRANCH  20  22
ATOM     22  C   UNL     1       5.117   4.569  16.453  0.00  0.00    +0.000 A 
ATOM     23  C   UNL     1       5.587   4.579  15.149  0.00  0.00    +0.000 A 
ATOM     24  C   UNL     1       7.000   4.441  15.190  0.00  0.00    +0.000 A 
ATOM     25  C   UNL     1       7.369   4.374  16.511  0.00  0.00    +0.000 A 
ATOM     26  N   UNL     1       6.232   4.472  17.264  0.00  0.00    +0.000 N 
ATOM     27  H   UNL     1       6.182   4.456  18.277  0.00  0.00    +0.000 HD
ENDBRANCH  20  22
ENDBRANCH  11  20
TORSDOF 4
ENDMDL
MODEL 3
REMARK VINA RESULT:      -8.0      3.140      7.714
REMARK  Name = 
REMARK  4 active torsions:
REMARK  status: ('A' for Active; 'I' for Inactive)
REMARK    1  A    between atoms: C_7  and  C_8
REMARK    2  A    between atoms: C_8  and  C_10
REMARK    3  A    between atoms: C_18  and  C_19
REMARK    4  A    between atoms: C_19  and  C_21
REMARK                            x       y       z     vdW  Elec       q    Type
REMARK                         _______ _______ _______ _____ _____    ______ ____
ROOT
ATOM      1  O   UNL     1       0.648   9.215  21.058  0.00  0.00    +0.000 OA
ATOM      2  C   UNL     1       1.285   8.308  20.565  0.00  0.00    +0.000 C 
ATOM      3  N   UNL     1       1.627   7.132  21.210  0.00  0.00    +0.000 N 
ATOM      4  C   UNL     1       2.188   6.212  20.337  0.00  0.00    +0.000 A 
ATOM      5  C   UNL     1       2.587   4.931  20.660  0.00  0.00    +0.000 A 
ATOM      6  C   UNL     1       3.125   4.152  19.636  0.00  0.00    +0.000 A 
ATOM      7  C   UNL     1       3.262   4.671  18.327  0.00  0.00    +0.000 A 
ATOM      8  C   UNL     1       2.821   5.979  18.025  0.00  0.00    +0.000 A 
ATOM      9  C   UNL     1       2.289   6.748  19.047  0.00  0.00    +0.000 A 
ATOM     10  C   UNL     1       1.766   8.127  19.140  0.00  0.00    +0.000 C 
ATOM     11  C   UNL     1       1.750   9.037  18.151  0.00  0.00    +0.000 C 
ATOM     12  H   UNL     1       1.404   6.971  22.181  0.00  0.00    +0.000 HD
ENDROOT
BRANCH   7  13
ATOM     13  C   UNL     1       3.836   3.757  17.292  0.00  0.00    +0.000 C 
ATOM     14  O   UNL     1       3.253   2.687  17.115  0.00  0.00    +0.000 OA
BRANCH  13  15
ATOM     15  C   UNL     1       5.031   4.155  16.565  0.00  0.00    +0.000 A 
ATOM     16  C   UNL     1       5.266   4.231  15.204  0.00  0.00    +0.000 A 
ATOM     17  C   UNL     1       6.600   4.635  14.901  0.00  0.00    +0.000 A 
ATOM     18  C   UNL     1       7.328   4.898  16.039  0.00  0.00    +0.000 A 
ATOM     19  S   UNL     1       6.406   4.667  17.457  0.00  0.00    +0.000 S 
ENDBRANCH  13  15
ENDBRANCH   7  13
BRANCH  11  20
ATOM     20  C   UNL     1       1.442  10.488  18.346  0.00  0.00    +0.000 C 
ATOM     21  O   UNL     1       2.314  11.335  18.172  0.00  0.00    +0.000 OA
BRANCH  20  22
ATOM     22  C   UNL     1       0.070  10.903  18.579  0.00  0.00    +0.000 A 
ATOM     23  C   UNL     1      -1.149  10.546  18.024  0.00  0.00    +0.000 A 
ATOM     24  C   UNL     1      -2.157  11.346  18.625  0.00  0.00    +0.000 A 
ATOM     25  C   UNL     1      -1.543  12.157  19.549  0.00  0.00    +0.000 A 
ATOM     26  N   UNL     1      -0.206  11.869  19.528  0.00  0.00    +0.000 N 
ATOM     27  H   UNL     1       0.508  12.304  20.102  0.00  0.00    +0.000 HD
ENDBRANCH  20  22
ENDBRANCH  11  20
TORSDOF 4
ENDMDL
MODEL 4
REMARK VINA RESULT:      -7.8      2.466      3.082
REMARK  Name = 
REMARK  4 active torsions:
REMARK  status: ('A' for Active; 'I' for Inactive)
REMARK    1  A    between atoms: C_7  and  C_8
REMARK    2  A    between atoms: C_8  and  C_10
REMARK    3  A    between atoms: C_18  and  C_19
REMARK    4  A    between atoms: C_19  and  C_21
REMARK                            x       y       z     vdW  Elec       q    Type
REMARK                         _______ _______ _______ _____ _____    ______ ____
ROOT
ATOM      1  O   UNL     1       5.741   3.920  18.977  0.00  0.00    +0.000 OA
ATOM      2  C   UNL     1       4.927   4.807  18.830  0.00  0.00    +0.000 C 
ATOM      3  N   UNL     1       3.767   4.954  19.569  0.00  0.00    +0.000 N 
ATOM      4  C   UNL     1       3.137   6.162  19.303  0.00  0.00    +0.000 A 
ATOM      5  C   UNL     1       1.989   6.626  19.912  0.00  0.00    +0.000 A 
ATOM      6  C   UNL     1       1.514   7.874  19.510  0.00  0.00    +0.000 A 
ATOM      7  C   UNL     1       2.183   8.616  18.510  0.00  0.00    +0.000 A 
ATOM      8  C   UNL     1       3.370   8.122  17.923  0.00  0.00    +0.000 A 
ATOM      9  C   UNL     1       3.836   6.881  18.325  0.00  0.00    +0.000 A 
ATOM     10  C   UNL     1       4.983   6.032  17.939  0.00  0.00    +0.000 C 
ATOM     11  C   UNL     1       5.874   6.297  16.970  0.00  0.00    +0.000 C 
ATOM     12  H   UNL     1       3.488   4.280  20.266  0.00  0.00    +0.000 HD
ENDROOT
BRANCH   7  13
ATOM     13  C   UNL     1       1.607   9.951  18.155  0.00  0.00    +0.000 C 
ATOM     14  O   UNL     1       2.402  10.814  17.784  0.00  0.00    +0.000 OA
BRANCH  13  15
ATOM     15  C   UNL     1       0.173  10.168  18.272  0.00  0.00    +0.000 A 
ATOM     16  C   UNL     1      -0.873   9.638  17.539  0.00  0.00    +0.000 A 
ATOM     17  C   UNL     1      -2.141  10.144  17.954  0.00  0.00    +0.000 A 
ATOM     18  C   UNL     1      -2.026  11.008  19.018  0.00  0.00    +0.000 A 
ATOM     19  S   UNL     1      -0.404  11.201  19.516  0.00  0.00    +0.000 S 
ENDBRANCH  13  15
ENDBRANCH   7  13
BRANCH  11  20
ATOM     20  C   UNL     1       6.868   5.308  16.445  0.00  0.00    +0.000 C 
ATOM     21  O   UNL     1       7.729   4.842  17.186  0.00  0.00    +0.000 OA
BRANCH  20  22
ATOM     22  C   UNL     1       6.707   4.777  15.103  0.00  0.00    +0.000 A 
ATOM     23  C   UNL     1       5.906   3.790  14.550  0.00  0.00    +0.000 A 
ATOM     24  C   UNL     1       6.239   3.674  13.174  0.00  0.00    +0.000 A 
ATOM     25  C   UNL     1       7.215   4.603  12.906  0.00  0.00    +0.000 A 
ATOM     26  N   UNL     1       7.476   5.275  14.068  0.00  0.00    +0.000 N 
ATOM     27  H   UNL     1       8.150   6.023  14.188  0.00  0.00    +0.000 HD
ENDBRANCH  20  22
ENDBRANCH  11  20
TORSDOF 4
ENDMDL
MODEL 5
REMARK VINA RESULT:      -7.8      3.128      7.782
REMARK  Name = 
REMARK  4 active torsions:
REMARK  status: ('A' for Active; 'I' for Inactive)
REMARK    1  A    between atoms: C_7  and  C_8
REMARK    2  A    between atoms: C_8  and  C_10
REMARK    3  A    between atoms: C_18  and  C_19
REMARK    4  A    between atoms: C_19  and  C_21
REMARK                            x       y       z     vdW  Elec       q    Type
REMARK                         _______ _______ _______ _____ _____    ______ ____
ROOT
ATOM      1  O   UNL     1       0.553   9.390  21.142  0.00  0.00    +0.000 OA
ATOM      2  C   UNL     1       1.196   8.496  20.634  0.00  0.00    +0.000 C 
ATOM      3  N   UNL     1       1.512   7.295  21.246  0.00  0.00    +0.000 N 
ATOM      4  C   UNL     1       2.090   6.401  20.355  0.00  0.00    +0.000 A 
ATOM      5  C   UNL     1       2.471   5.107  20.644  0.00  0.00    +0.000 A 
ATOM      6  C   UNL     1       3.029   4.361  19.606  0.00  0.00    +0.000 A 
ATOM      7  C   UNL     1       3.204   4.923  18.321  0.00  0.00    +0.000 A 
ATOM      8  C   UNL     1       2.780   6.245  18.053  0.00  0.00    +0.000 A 
ATOM      9  C   UNL     1       2.228   6.982  19.088  0.00  0.00    +0.000 A 
ATOM     10  C   UNL     1       1.712   8.361  19.216  0.00  0.00    +0.000 C 
ATOM     11  C   UNL     1       1.728   9.305  18.260  0.00  0.00    +0.000 C 
ATOM     12  H   UNL     1       1.264   7.102  22.205  0.00  0.00    +0.000 HD
ENDROOT
BRANCH   7  13
ATOM     13  C   UNL     1       3.797   4.042  17.268  0.00  0.00    +0.000 C 
ATOM     14  O   UNL     1       3.085   3.131  16.845  0.00  0.00    +0.000 OA
BRANCH  13  15
ATOM     15  C   UNL     1       5.157   4.284  16.811  0.00  0.00    +0.000 A 
ATOM     16  C   UNL     1       6.331   4.416  17.532  0.00  0.00    +0.000 A 
ATOM     17  C   UNL     1       7.455   4.688  16.697  0.00  0.00    +0.000 A 
ATOM     18  C   UNL     1       7.113   4.710  15.365  0.00  0.00    +0.000 A 
ATOM     19  S   UNL     1       5.452   4.398  15.124  0.00  0.00    +0.000 S 
ENDBRANCH  13  15
ENDBRANCH   7  13
BRANCH  11  20
ATOM     20  C   UNL     1       1.426  10.751  18.498  0.00  0.00    +0.000 C 
ATOM     21  O   UNL     1       2.331  11.580  18.507  0.00  0.00    +0.000 OA
BRANCH  20  22
ATOM     22  C   UNL     1       0.043  11.193  18.552  0.00  0.00    +0.000 A 
ATOM     23  C   UNL     1      -0.617  12.198  19.242  0.00  0.00    +0.000 A 
ATOM     24  C   UNL     1      -2.001  12.108  18.932  0.00  0.00    +0.000 A 
ATOM     25  C   UNL     1      -2.157  11.071  18.045  0.00  0.00    +0.000 A 
ATOM     26  N   UNL     1      -0.919  10.539  17.807  0.00  0.00    +0.000 N 
ATOM     27  H   UNL     1      -0.711   9.760  17.192  0.00  0.00    +0.000 HD
ENDBRANCH  20  22
ENDBRANCH  11  20
TORSDOF 4
ENDMDL
MODEL 6
REMARK VINA RESULT:      -7.7      1.541      2.369
REMARK  Name = 
REMARK  4 active torsions:
REMARK  status: ('A' for Active; 'I' for Inactive)
REMARK    1  A    between atoms: C_7  and  C_8
REMARK    2  A    between atoms: C_8  and  C_10
REMARK    3  A    between atoms: C_18  and  C_19
REMARK    4  A    between atoms: C_19  and  C_21
REMARK                            x       y       z     vdW  Elec       q    Type
REMARK                         _______ _______ _______ _____ _____    ______ ____
ROOT
ATOM      1  O   UNL     1       3.776   4.855  20.155  0.00  0.00    +0.000 OA
ATOM      2  C   UNL     1       3.052   5.808  19.959  0.00  0.00    +0.000 C 
ATOM      3  N   UNL     1       2.182   6.352  20.887  0.00  0.00    +0.000 N 
ATOM      4  C   UNL     1       1.631   7.545  20.438  0.00  0.00    +0.000 A 
ATOM      5  C   UNL     1       0.768   8.354  21.149  0.00  0.00    +0.000 A 
ATOM      6  C   UNL     1       0.328   9.520  20.524  0.00  0.00    +0.000 A 
ATOM      7  C   UNL     1       0.747   9.843  19.213  0.00  0.00    +0.000 A 
ATOM      8  C   UNL     1       1.651   9.004  18.522  0.00  0.00    +0.000 A 
ATOM      9  C   UNL     1       2.083   7.845  19.147  0.00  0.00    +0.000 A 
ATOM     10  C   UNL     1       2.971   6.729  18.758  0.00  0.00    +0.000 C 
ATOM     11  C   UNL     1       3.561   6.565  17.563  0.00  0.00    +0.000 C 
ATOM     12  H   UNL     1       2.052   5.945  21.801  0.00  0.00    +0.000 HD
ENDROOT
BRANCH   7  13
ATOM     13  C   UNL     1       0.235  11.122  18.631  0.00  0.00    +0.000 C 
ATOM     14  O   UNL     1      -0.903  11.098  18.160  0.00  0.00    +0.000 OA
BRANCH  13  15
ATOM     15  C   UNL     1       1.084  12.303  18.635  0.00  0.00    +0.000 A 
ATOM     16  C   UNL     1       2.408  12.453  18.263  0.00  0.00    +0.000 A 
ATOM     17  C   UNL     1       2.882  13.784  18.458  0.00  0.00    +0.000 A 
ATOM     18  C   UNL     1       1.895  14.618  18.929  0.00  0.00    +0.000 A 
ATOM     19  S   UNL     1       0.408  13.802  19.127  0.00  0.00    +0.000 S 
ENDBRANCH  13  15
ENDBRANCH   7  13
BRANCH  11  20
ATOM     20  C   UNL     1       4.247   5.309  17.126  0.00  0.00    +0.000 C 
ATOM     21  O   UNL     1       5.397   5.348  16.698  0.00  0.00    +0.000 OA
BRANCH  20  22
ATOM     22  C   UNL     1       3.611   4.026  17.365  0.00  0.00    +0.000 A 
ATOM     23  C   UNL     1       2.314   3.556  17.226  0.00  0.00    +0.000 A 
ATOM     24  C   UNL     1       2.283   2.210  17.678  0.00  0.00    +0.000 A 
ATOM     25  C   UNL     1       3.559   1.875  18.062  0.00  0.00    +0.000 A 
ATOM     26  N   UNL     1       4.355   2.967  17.851  0.00  0.00    +0.000 N 
ATOM     27  H   UNL     1       5.350   3.028  18.038  0.00  0.00    +0.000 HD
ENDBRANCH  20  22
ENDBRANCH  11  20
TORSDOF 4
ENDMDL
MODEL 7
REMARK VINA RESULT:      -7.7      2.222      3.285
REMARK  Name = 
REMARK  4 active torsions:
REMARK  status: ('A' for Active; 'I' for Inactive)
REMARK    1  A    between atoms: C_7  and  C_8
REMARK    2  A    between atoms: C_8  and  C_10
REMARK    3  A    between atoms: C_18  and  C_19
REMARK    4  A    between atoms: C_19  and  C_21
REMARK                            x       y       z     vdW  Elec       q    Type
REMARK                         _______ _______ _______ _____ _____    ______ ____
ROOT
ATOM      1  O   UNL     1       3.361   4.311  20.238  0.00  0.00    +0.000 OA
ATOM      2  C   UNL     1       2.765   5.359  20.103  0.00  0.00    +0.000 C 
ATOM      3  N   UNL     1       2.015   5.981  21.086  0.00  0.00    +0.000 N 
ATOM      4  C   UNL     1       1.612   7.251  20.698  0.00  0.00    +0.000 A 
ATOM      5  C   UNL     1       0.896   8.142  21.471  0.00  0.00    +0.000 A 
ATOM      6  C   UNL     1       0.592   9.378  20.903  0.00  0.00    +0.000 A 
ATOM      7  C   UNL     1       0.998   9.690  19.584  0.00  0.00    +0.000 A 
ATOM      8  C   UNL     1       1.752   8.763  18.829  0.00  0.00    +0.000 A 
ATOM      9  C   UNL     1       2.049   7.535  19.398  0.00  0.00    +0.000 A 
ATOM     10  C   UNL     1       2.761   6.326  18.936  0.00  0.00    +0.000 C 
ATOM     11  C   UNL     1       3.275   6.128  17.711  0.00  0.00    +0.000 C 
ATOM     12  H   UNL     1       1.867   5.561  21.992  0.00  0.00    +0.000 HD
ENDROOT
BRANCH   7  13
ATOM     13  C   UNL     1       0.640  11.046  19.066  0.00  0.00    +0.000 C 
ATOM     14  O   UNL     1      -0.361  11.118  18.353  0.00  0.00    +0.000 OA
BRANCH  13  15
ATOM     15  C   UNL     1       1.475  12.188  19.406  0.00  0.00    +0.000 A 
ATOM     16  C   UNL     1       1.637  12.848  20.612  0.00  0.00    +0.000 A 
ATOM     17  C   UNL     1       2.530  13.955  20.511  0.00  0.00    +0.000 A 
ATOM     18  C   UNL     1       3.056  14.079  19.246  0.00  0.00    +0.000 A 
ATOM     19  S   UNL     1       2.482  12.865  18.192  0.00  0.00    +0.000 S 
ENDBRANCH  13  15
ENDBRANCH   7  13
BRANCH  11  20
ATOM     20  C   UNL     1       3.768   4.808  17.206  0.00  0.00    +0.000 C 
ATOM     21  O   UNL     1       2.982   3.884  17.018  0.00  0.00    +0.000 OA
BRANCH  20  22
ATOM     22  C   UNL     1       5.151   4.676  16.781  0.00  0.00    +0.000 A 
ATOM     23  C   UNL     1       5.762   4.454  15.557  0.00  0.00    +0.000 A 
ATOM     24  C   UNL     1       7.163   4.360  15.776  0.00  0.00    +0.000 A 
ATOM     25  C   UNL     1       7.383   4.549  17.119  0.00  0.00    +0.000 A 
ATOM     26  N   UNL     1       6.169   4.758  17.712  0.00  0.00    +0.000 N 
ATOM     27  H   UNL     1       6.006   4.929  18.698  0.00  0.00    +0.000 HD
ENDBRANCH  20  22
ENDBRANCH  11  20
TORSDOF 4
ENDMDL
MODEL 8
REMARK VINA RESULT:      -7.6      2.499      3.505
REMARK  Name = 
REMARK  4 active torsions:
REMARK  status: ('A' for Active; 'I' for Inactive)
REMARK    1  A    between atoms: C_7  and  C_8
REMARK    2  A    between atoms: C_8  and  C_10
REMARK    3  A    between atoms: C_18  and  C_19
REMARK    4  A    between atoms: C_19  and  C_21
REMARK                            x       y       z     vdW  Elec       q    Type
REMARK                         _______ _______ _______ _____ _____    ______ ____
ROOT
ATOM      1  O   UNL     1       5.129   2.538  18.902  0.00  0.00    +0.000 OA
ATOM      2  C   UNL     1       4.380   3.463  19.131  0.00  0.00    +0.000 C 
ATOM      3  N   UNL     1       3.094   3.343  19.629  0.00  0.00    +0.000 N 
ATOM      4  C   UNL     1       2.555   4.577  19.965  0.00  0.00    +0.000 A 
ATOM      5  C   UNL     1       1.315   4.789  20.530  0.00  0.00    +0.000 A 
ATOM      6  C   UNL     1       0.955   6.109  20.802  0.00  0.00    +0.000 A 
ATOM      7  C   UNL     1       1.830   7.177  20.494  0.00  0.00    +0.000 A 
ATOM      8  C   UNL     1       3.104   6.922  19.937  0.00  0.00    +0.000 A 
ATOM      9  C   UNL     1       3.454   5.608  19.668  0.00  0.00    +0.000 A 
ATOM     10  C   UNL     1       4.641   4.955  19.076  0.00  0.00    +0.000 C 
ATOM     11  C   UNL     1       5.718   5.577  18.570  0.00  0.00    +0.000 C 
ATOM     12  H   UNL     1       2.664   2.443  19.788  0.00  0.00    +0.000 HD
ENDROOT
BRANCH   7  13
ATOM     13  C   UNL     1       1.364   8.556  20.835  0.00  0.00    +0.000 C 
ATOM     14  O   UNL     1       1.690   8.992  21.940  0.00  0.00    +0.000 OA
BRANCH  13  15
ATOM     15  C   UNL     1       0.558   9.299  19.879  0.00  0.00    +0.000 A 
ATOM     16  C   UNL     1      -0.644   9.962  20.049  0.00  0.00    +0.000 A 
ATOM     17  C   UNL     1      -1.125  10.538  18.836  0.00  0.00    +0.000 A 
ATOM     18  C   UNL     1      -0.255  10.336  17.790  0.00  0.00    +0.000 A 
ATOM     19  S   UNL     1       1.133   9.466  18.270  0.00  0.00    +0.000 S 
ENDBRANCH  13  15
ENDBRANCH   7  13
BRANCH  11  20
ATOM     20  C   UNL     1       6.781   4.900  17.763  0.00  0.00    +0.000 C 
ATOM     21  O   UNL     1       7.767   4.420  18.315  0.00  0.00    +0.000 OA
BRANCH  20  22
ATOM     22  C   UNL     1       6.563   4.666  16.346  0.00  0.00    +0.000 A 
ATOM     23  C   UNL     1       5.638   3.926  15.626  0.00  0.00    +0.000 A 
ATOM     24  C   UNL     1       5.966   4.033  14.248  0.00  0.00    +0.000 A 
ATOM     25  C   UNL     1       7.065   4.851  14.149  0.00  0.00    +0.000 A 
ATOM     26  N   UNL     1       7.405   5.243  15.415  0.00  0.00    +0.000 N 
ATOM     27  H   UNL     1       8.176   5.852  15.666  0.00  0.00    +0.000 HD
ENDBRANCH  20  22
ENDBRANCH  11  20
TORSDOF 4
ENDMDL
MODEL 9
REMARK VINA RESULT:      -7.6      2.636      3.542
REMARK  Name = 
REMARK  4 active torsions:
REMARK  status: ('A' for Active; 'I' for Inactive)
REMARK    1  A    between atoms: C_7  and  C_8
REMARK    2  A    between atoms: C_8  and  C_10
REMARK    3  A    between atoms: C_18  and  C_19
REMARK    4  A    between atoms: C_19  and  C_21
REMARK                            x       y       z     vdW  Elec       q    Type
REMARK                         _______ _______ _______ _____ _____    ______ ____
ROOT
ATOM      1  O   UNL     1       5.907   3.668  18.732  0.00  0.00    +0.000 OA
ATOM      2  C   UNL     1       5.089   4.558  18.634  0.00  0.00    +0.000 C 
ATOM      3  N   UNL     1       3.947   4.679  19.406  0.00  0.00    +0.000 N 
ATOM      4  C   UNL     1       3.310   5.894  19.194  0.00  0.00    +0.000 A 
ATOM      5  C   UNL     1       2.178   6.336  19.847  0.00  0.00    +0.000 A 
ATOM      6  C   UNL     1       1.691   7.595  19.497  0.00  0.00    +0.000 A 
ATOM      7  C   UNL     1       2.334   8.371  18.505  0.00  0.00    +0.000 A 
ATOM      8  C   UNL     1       3.506   7.898  17.873  0.00  0.00    +0.000 A 
ATOM      9  C   UNL     1       3.984   6.645  18.223  0.00  0.00    +0.000 A 
ATOM     10  C   UNL     1       5.121   5.811  17.782  0.00  0.00    +0.000 C 
ATOM     11  C   UNL     1       5.988   6.108  16.800  0.00  0.00    +0.000 C 
ATOM     12  H   UNL     1       3.687   3.982  20.088  0.00  0.00    +0.000 HD
ENDROOT
BRANCH   7  13
ATOM     13  C   UNL     1       1.748   9.714  18.208  0.00  0.00    +0.000 C 
ATOM     14  O   UNL     1       2.220  10.322  17.246  0.00  0.00    +0.000 OA
BRANCH  13  15
ATOM     15  C   UNL     1       0.684  10.237  19.052  0.00  0.00    +0.000 A 
ATOM     16  C   UNL     1       0.720  10.680  20.362  0.00  0.00    +0.000 A 
ATOM     17  C   UNL     1      -0.563  11.081  20.837  0.00  0.00    +0.000 A 
ATOM     18  C   UNL     1      -1.529  10.973  19.863  0.00  0.00    +0.000 A 
ATOM     19  S   UNL     1      -0.889  10.401  18.387  0.00  0.00    +0.000 S 
ENDBRANCH  13  15
ENDBRANCH   7  13
BRANCH  11  20
ATOM     20  C   UNL     1       6.969   5.139  16.218  0.00  0.00    +0.000 C 
ATOM     21  O   UNL     1       7.814   4.608  16.934  0.00  0.00    +0.000 OA
BRANCH  20  22
ATOM     22  C   UNL     1       6.813   4.702  14.842  0.00  0.00    +0.000 A 
ATOM     23  C   UNL     1       6.003   3.766  14.217  0.00  0.00    +0.000 A 
ATOM     24  C   UNL     1       6.346   3.739  12.839  0.00  0.00    +0.000 A 
ATOM     25  C   UNL     1       7.337   4.669  12.643  0.00  0.00    +0.000 A 
ATOM     26  N   UNL     1       7.598   5.258  13.849  0.00  0.00    +0.000 N 
ATOM     27  H   UNL     1       8.281   5.986  14.025  0.00  0.00    +0.000 HD
ENDBRANCH  20  22
ENDBRANCH  11  20
TORSDOF 4
ENDMDL
