MODEL 1
REMARK VINA RESULT:      -7.3      0.000      0.000
REMARK  Name = 
REMARK  3 active torsions:
REMARK  status: ('A' for Active; 'I' for Inactive)
REMARK    1  A    between atoms: C_1  and  C_2
REMARK    2  A    between atoms: C_6  and  C_7
REMARK    3  A    between atoms: C_10  and  C_11
REMARK                            x       y       z     vdW  Elec       q    Type
REMARK                         _______ _______ _______ _____ _____    ______ ____
ROOT
ATOM      1  C   UNL     1       4.568   5.033  17.555  0.00  0.00    +0.000 A 
ATOM      2  C   UNL     1       3.540   4.117  17.615  0.00  0.00    +0.000 A 
ATOM      3  S   UNL     1       2.122   4.868  18.186  0.00  0.00    +0.000 S 
ATOM      4  C   UNL     1       2.970   6.371  18.321  0.00  0.00    +0.000 A 
ATOM      5  N   UNL     1       4.235   6.321  17.942  0.00  0.00    +0.000 NA
ENDROOT
BRANCH   1  11
ATOM      6  C   UNL     1       5.851   4.635  14.506  0.00  0.00    +0.000 C 
ATOM      7  C   UNL     1       6.433   4.591  15.858  0.00  0.00    +0.000 A 
ATOM      8  O   UNL     1       7.772   4.348  15.941  0.00  0.00    +0.000 OA
ATOM      9  N   UNL     1       8.164   4.348  17.272  0.00  0.00    +0.000 NA
ATOM     10  C   UNL     1       7.050   4.593  17.964  0.00  0.00    +0.000 A 
ATOM     11  C   UNL     1       5.929   4.751  17.127  0.00  0.00    +0.000 A 
ENDBRANCH   1  11
BRANCH   4  12
ATOM     12  C   UNL     1       2.253   7.583  18.751  0.00  0.00    +0.000 A 
ATOM     13  C   UNL     1       1.845   7.769  20.083  0.00  0.00    +0.000 A 
ATOM     14  C   UNL     1       1.080   8.877  20.454  0.00  0.00    +0.000 A 
ATOM     15  C   UNL     1       0.728   9.827  19.503  0.00  0.00    +0.000 A 
ATOM     16  C   UNL     1       1.161   9.685  18.186  0.00  0.00    +0.000 A 
ATOM     17  C   UNL     1       1.925   8.576  17.812  0.00  0.00    +0.000 A 
ENDBRANCH   4  12
TORSDOF 2
ENDMDL
MODEL 2
REMARK VINA RESULT:      -7.2      0.110      1.174
REMARK  Name = 
REMARK  3 active torsions:
REMARK  status: ('A' for Active; 'I' for Inactive)
REMARK    1  A    between atoms: C_1  and  C_2
REMARK    2  A    between atoms: C_6  and  C_7
REMARK    3  A    between atoms: C_10  and  C_11
REMARK                            x       y       z     vdW  Elec       q    Type
REMARK                         _______ _______ _______ _____ _____    ______ ____
ROOT
ATOM      1  C   UNL     1       4.562   5.013  17.633  0.00  0.00    +0.000 A 
ATOM      2  C   UNL     1       3.554   4.078  17.729  0.00  0.00    +0.000 A 
ATOM      3  S   UNL     1       2.125   4.817  18.288  0.00  0.00    +0.000 S 
ATOM      4  C   UNL     1       2.943   6.340  18.371  0.00  0.00    +0.000 A 
ATOM      5  N   UNL     1       4.206   6.305  17.984  0.00  0.00    +0.000 NA
ENDROOT
BRANCH   1  11
ATOM      6  C   UNL     1       5.849   4.653  14.580  0.00  0.00    +0.000 C 
ATOM      7  C   UNL     1       6.431   4.601  15.932  0.00  0.00    +0.000 A 
ATOM      8  O   UNL     1       7.772   4.369  16.013  0.00  0.00    +0.000 OA
ATOM      9  N   UNL     1       8.164   4.361  17.344  0.00  0.00    +0.000 NA
ATOM     10  C   UNL     1       7.048   4.590  18.038  0.00  0.00    +0.000 A 
ATOM     11  C   UNL     1       5.926   4.746  17.202  0.00  0.00    +0.000 A 
ENDBRANCH   1  11
BRANCH   4  12
ATOM     12  C   UNL     1       2.204   7.550  18.770  0.00  0.00    +0.000 A 
ATOM     13  C   UNL     1       1.924   8.582  17.858  0.00  0.00    +0.000 A 
ATOM     14  C   UNL     1       1.310   9.765  18.275  0.00  0.00    +0.000 A 
ATOM     15  C   UNL     1       0.947   9.926  19.608  0.00  0.00    +0.000 A 
ATOM     16  C   UNL     1       1.175   8.896  20.519  0.00  0.00    +0.000 A 
ATOM     17  C   UNL     1       1.791   7.712  20.103  0.00  0.00    +0.000 A 
ENDBRANCH   4  12
TORSDOF 2
ENDMDL
MODEL 3
REMARK VINA RESULT:      -7.1      2.666      3.898
REMARK  Name = 
REMARK  3 active torsions:
REMARK  status: ('A' for Active; 'I' for Inactive)
REMARK    1  A    between atoms: C_1  and  C_2
REMARK    2  A    between atoms: C_6  and  C_7
REMARK    3  A    between atoms: C_10  and  C_11
REMARK                            x       y       z     vdW  Elec       q    Type
REMARK                         _______ _______ _______ _____ _____    ______ ____
ROOT
ATOM      1  C   UNL     1       4.596   6.140  17.321  0.00  0.00    +0.000 A 
ATOM      2  C   UNL     1       3.835   7.281  17.458  0.00  0.00    +0.000 A 
ATOM      3  S   UNL     1       2.531   6.988  18.514  0.00  0.00    +0.000 S 
ATOM      4  C   UNL     1       3.062   5.353  18.719  0.00  0.00    +0.000 A 
ATOM      5  N   UNL     1       4.162   5.047  18.053  0.00  0.00    +0.000 NA
ENDROOT
BRANCH   1  11
ATOM      6  C   UNL     1       7.722   7.185  17.809  0.00  0.00    +0.000 C 
ATOM      7  C   UNL     1       7.064   6.451  16.715  0.00  0.00    +0.000 A 
ATOM      8  O   UNL     1       7.849   6.092  15.660  0.00  0.00    +0.000 OA
ATOM      9  N   UNL     1       7.087   5.404  14.725  0.00  0.00    +0.000 NA
ATOM     10  C   UNL     1       5.857   5.363  15.240  0.00  0.00    +0.000 A 
ATOM     11  C   UNL     1       5.782   6.009  16.489  0.00  0.00    +0.000 A 
ENDBRANCH   1  11
BRANCH   4  12
ATOM     12  C   UNL     1       2.342   4.458  19.641  0.00  0.00    +0.000 A 
ATOM     13  C   UNL     1       2.689   4.360  20.999  0.00  0.00    +0.000 A 
ATOM     14  C   UNL     1       2.063   3.435  21.838  0.00  0.00    +0.000 A 
ATOM     15  C   UNL     1       1.066   2.606  21.335  0.00  0.00    +0.000 A 
ATOM     16  C   UNL     1       0.676   2.720  20.001  0.00  0.00    +0.000 A 
ATOM     17  C   UNL     1       1.303   3.644  19.161  0.00  0.00    +0.000 A 
ENDBRANCH   4  12
TORSDOF 2
ENDMDL
MODEL 4
REMARK VINA RESULT:      -7.1      1.142      1.592
REMARK  Name = 
REMARK  3 active torsions:
REMARK  status: ('A' for Active; 'I' for Inactive)
REMARK    1  A    between atoms: C_1  and  C_2
REMARK    2  A    between atoms: C_6  and  C_7
REMARK    3  A    between atoms: C_10  and  C_11
REMARK                            x       y       z     vdW  Elec       q    Type
REMARK                         _______ _______ _______ _____ _____    ______ ____
ROOT
ATOM      1  C   UNL     1       4.418   5.530  17.071  0.00  0.00    +0.000 A 
ATOM      2  C   UNL     1       3.644   4.486  17.531  0.00  0.00    +0.000 A 
ATOM      3  S   UNL     1       2.369   5.084  18.489  0.00  0.00    +0.000 S 
ATOM      4  C   UNL     1       2.932   6.701  18.233  0.00  0.00    +0.000 A 
ATOM      5  N   UNL     1       4.000   6.792  17.460  0.00  0.00    +0.000 NA
ENDROOT
BRANCH   1  11
ATOM      6  C   UNL     1       7.494   6.753  17.453  0.00  0.00    +0.000 C 
ATOM      7  C   UNL     1       6.862   5.919  16.417  0.00  0.00    +0.000 A 
ATOM      8  O   UNL     1       7.654   5.530  15.378  0.00  0.00    +0.000 OA
ATOM      9  N   UNL     1       6.919   4.747  14.499  0.00  0.00    +0.000 NA
ATOM     10  C   UNL     1       5.697   4.681  15.030  0.00  0.00    +0.000 A 
ATOM     11  C   UNL     1       5.602   5.402  16.235  0.00  0.00    +0.000 A 
ENDBRANCH   1  11
BRANCH   4  12
ATOM     12  C   UNL     1       2.182   7.837  18.795  0.00  0.00    +0.000 A 
ATOM     13  C   UNL     1       1.799   7.876  20.147  0.00  0.00    +0.000 A 
ATOM     14  C   UNL     1       1.005   8.912  20.641  0.00  0.00    +0.000 A 
ATOM     15  C   UNL     1       0.597   9.937  19.795  0.00  0.00    +0.000 A 
ATOM     16  C   UNL     1       1.004   9.941  18.462  0.00  0.00    +0.000 A 
ATOM     17  C   UNL     1       1.798   8.903  17.966  0.00  0.00    +0.000 A 
ENDBRANCH   4  12
TORSDOF 2
ENDMDL
MODEL 5
REMARK VINA RESULT:      -7.1      1.221      2.050
REMARK  Name = 
REMARK  3 active torsions:
REMARK  status: ('A' for Active; 'I' for Inactive)
REMARK    1  A    between atoms: C_1  and  C_2
REMARK    2  A    between atoms: C_6  and  C_7
REMARK    3  A    between atoms: C_10  and  C_11
REMARK                            x       y       z     vdW  Elec       q    Type
REMARK                         _______ _______ _______ _____ _____    ______ ____
ROOT
ATOM      1  C   UNL     1       4.397   5.706  17.058  0.00  0.00    +0.000 A 
ATOM      2  C   UNL     1       3.629   4.626  17.439  0.00  0.00    +0.000 A 
ATOM      3  S   UNL     1       2.318   5.151  18.391  0.00  0.00    +0.000 S 
ATOM      4  C   UNL     1       2.860   6.788  18.239  0.00  0.00    +0.000 A 
ATOM      5  N   UNL     1       3.947   6.938  17.502  0.00  0.00    +0.000 NA
ENDROOT
BRANCH   1  11
ATOM      6  C   UNL     1       7.508   6.702  17.715  0.00  0.00    +0.000 C 
ATOM      7  C   UNL     1       6.880   6.062  16.547  0.00  0.00    +0.000 A 
ATOM      8  O   UNL     1       7.694   5.789  15.488  0.00  0.00    +0.000 OA
ATOM      9  N   UNL     1       6.958   5.182  14.480  0.00  0.00    +0.000 NA
ATOM     10  C   UNL     1       5.715   5.101  14.956  0.00  0.00    +0.000 A 
ATOM     11  C   UNL     1       5.605   5.641  16.251  0.00  0.00    +0.000 A 
ENDBRANCH   1  11
BRANCH   4  12
ATOM     12  C   UNL     1       2.075   7.880  18.839  0.00  0.00    +0.000 A 
ATOM     13  C   UNL     1       1.676   9.002  18.093  0.00  0.00    +0.000 A 
ATOM     14  C   UNL     1       1.018  10.074  18.700  0.00  0.00    +0.000 A 
ATOM     15  C   UNL     1       0.733  10.033  20.060  0.00  0.00    +0.000 A 
ATOM     16  C   UNL     1       1.080   8.909  20.808  0.00  0.00    +0.000 A 
ATOM     17  C   UNL     1       1.739   7.836  20.202  0.00  0.00    +0.000 A 
ENDBRANCH   4  12
TORSDOF 2
ENDMDL
MODEL 6
REMARK VINA RESULT:      -6.9      3.762      6.623
REMARK  Name = 
REMARK  3 active torsions:
REMARK  status: ('A' for Active; 'I' for Inactive)
REMARK    1  A    between atoms: C_1  and  C_2
REMARK    2  A    between atoms: C_6  and  C_7
REMARK    3  A    between atoms: C_10  and  C_11
REMARK                            x       y       z     vdW  Elec       q    Type
REMARK                         _______ _______ _______ _____ _____    ______ ____
ROOT
ATOM      1  C   UNL     1       4.986   4.255  17.868  0.00  0.00    +0.000 A 
ATOM      2  C   UNL     1       5.940   5.164  18.274  0.00  0.00    +0.000 A 
ATOM      3  S   UNL     1       6.935   5.590  16.960  0.00  0.00    +0.000 S 
ATOM      4  C   UNL     1       6.033   4.531  15.930  0.00  0.00    +0.000 A 
ATOM      5  N   UNL     1       5.031   3.909  16.528  0.00  0.00    +0.000 NA
ENDROOT
BRANCH   1  11
ATOM      6  C   UNL     1       1.660   4.395  17.717  0.00  0.00    +0.000 C 
ATOM      7  C   UNL     1       2.601   3.731  18.636  0.00  0.00    +0.000 A 
ATOM      8  O   UNL     1       2.054   3.001  19.649  0.00  0.00    +0.000 OA
ATOM      9  N   UNL     1       3.064   2.434  20.413  0.00  0.00    +0.000 NA
ATOM     10  C   UNL     1       4.201   2.836  19.841  0.00  0.00    +0.000 A 
ATOM     11  C   UNL     1       3.971   3.656  18.721  0.00  0.00    +0.000 A 
ENDBRANCH   1  11
BRANCH   4  12
ATOM     12  C   UNL     1       6.360   4.445  14.497  0.00  0.00    +0.000 A 
ATOM     13  C   UNL     1       5.665   3.586  13.629  0.00  0.00    +0.000 A 
ATOM     14  C   UNL     1       6.052   3.443  12.295  0.00  0.00    +0.000 A 
ATOM     15  C   UNL     1       7.129   4.172  11.802  0.00  0.00    +0.000 A 
ATOM     16  C   UNL     1       7.803   5.063  12.635  0.00  0.00    +0.000 A 
ATOM     17  C   UNL     1       7.417   5.206  13.971  0.00  0.00    +0.000 A 
ENDBRANCH   4  12
TORSDOF 2
ENDMDL
MODEL 7
REMARK VINA RESULT:      -6.9      3.371      6.670
REMARK  Name = 
REMARK  3 active torsions:
REMARK  status: ('A' for Active; 'I' for Inactive)
REMARK    1  A    between atoms: C_1  and  C_2
REMARK    2  A    between atoms: C_6  and  C_7
REMARK    3  A    between atoms: C_10  and  C_11
REMARK                            x       y       z     vdW  Elec       q    Type
REMARK                         _______ _______ _______ _____ _____    ______ ____
ROOT
ATOM      1  C   UNL     1       4.777   4.561  17.854  0.00  0.00    +0.000 A 
ATOM      2  C   UNL     1       6.038   4.682  18.399  0.00  0.00    +0.000 A 
ATOM      3  S   UNL     1       7.212   4.638  17.166  0.00  0.00    +0.000 S 
ATOM      4  C   UNL     1       5.964   4.458  15.980  0.00  0.00    +0.000 A 
ATOM      5  N   UNL     1       4.738   4.450  16.474  0.00  0.00    +0.000 NA
ENDROOT
BRANCH   1  11
ATOM      6  C   UNL     1       2.294   2.340  17.892  0.00  0.00    +0.000 C 
ATOM      7  C   UNL     1       2.520   3.612  18.598  0.00  0.00    +0.000 A 
ATOM      8  O   UNL     1       1.547   4.010  19.468  0.00  0.00    +0.000 OA
ATOM      9  N   UNL     1       1.912   5.213  20.056  0.00  0.00    +0.000 NA
ATOM     10  C   UNL     1       3.100   5.513  19.528  0.00  0.00    +0.000 A 
ATOM     11  C   UNL     1       3.530   4.544  18.602  0.00  0.00    +0.000 A 
ENDBRANCH   1  11
BRANCH   4  12
ATOM     12  C   UNL     1       6.311   4.406  14.550  0.00  0.00    +0.000 A 
ATOM     13  C   UNL     1       5.626   3.571  13.651  0.00  0.00    +0.000 A 
ATOM     14  C   UNL     1       6.031   3.460  12.319  0.00  0.00    +0.000 A 
ATOM     15  C   UNL     1       7.116   4.197  11.860  0.00  0.00    +0.000 A 
ATOM     16  C   UNL     1       7.781   5.065  12.725  0.00  0.00    +0.000 A 
ATOM     17  C   UNL     1       7.377   5.176  14.058  0.00  0.00    +0.000 A 
ENDBRANCH   4  12
TORSDOF 2
ENDMDL
MODEL 8
REMARK VINA RESULT:      -6.9      3.382      6.815
REMARK  Name = 
REMARK  3 active torsions:
REMARK  status: ('A' for Active; 'I' for Inactive)
REMARK    1  A    between atoms: C_1  and  C_2
REMARK    2  A    between atoms: C_6  and  C_7
REMARK    3  A    between atoms: C_10  and  C_11
REMARK                            x       y       z     vdW  Elec       q    Type
REMARK                         _______ _______ _______ _____ _____    ______ ____
ROOT
ATOM      1  C   UNL     1       4.443   3.957  17.649  0.00  0.00    +0.000 A 
ATOM      2  C   UNL     1       5.553   4.435  18.312  0.00  0.00    +0.000 A 
ATOM      3  S   UNL     1       6.800   4.765  17.199  0.00  0.00    +0.000 S 
ATOM      4  C   UNL     1       5.780   4.246  15.900  0.00  0.00    +0.000 A 
ATOM      5  N   UNL     1       4.570   3.866  16.272  0.00  0.00    +0.000 NA
ENDROOT
BRANCH   1  11
ATOM      6  C   UNL     1       2.537   5.515  19.894  0.00  0.00    +0.000 C 
ATOM      7  C   UNL     1       2.424   4.221  19.200  0.00  0.00    +0.000 A 
ATOM      8  O   UNL     1       1.328   3.464  19.491  0.00  0.00    +0.000 OA
ATOM      9  N   UNL     1       1.364   2.289  18.753  0.00  0.00    +0.000 NA
ATOM     10  C   UNL     1       2.483   2.366  18.030  0.00  0.00    +0.000 A 
ATOM     11  C   UNL     1       3.192   3.557  18.273  0.00  0.00    +0.000 A 
ENDBRANCH   1  11
BRANCH   4  12
ATOM     12  C   UNL     1       6.262   4.327  14.511  0.00  0.00    +0.000 A 
ATOM     13  C   UNL     1       5.704   3.543  13.486  0.00  0.00    +0.000 A 
ATOM     14  C   UNL     1       6.237   3.559  12.196  0.00  0.00    +0.000 A 
ATOM     15  C   UNL     1       7.324   4.375  11.904  0.00  0.00    +0.000 A 
ATOM     16  C   UNL     1       7.863   5.194  12.894  0.00  0.00    +0.000 A 
ATOM     17  C   UNL     1       7.331   5.178  14.187  0.00  0.00    +0.000 A 
ENDBRANCH   4  12
TORSDOF 2
ENDMDL
MODEL 9
REMARK VINA RESULT:      -6.9      3.274      6.829
REMARK  Name = 
REMARK  3 active torsions:
REMARK  status: ('A' for Active; 'I' for Inactive)
REMARK    1  A    between atoms: C_1  and  C_2
REMARK    2  A    between atoms: C_6  and  C_7
REMARK    3  A    between atoms: C_10  and  C_11
REMARK                            x       y       z     vdW  Elec       q    Type
REMARK                         _______ _______ _______ _____ _____    ______ ____
ROOT
ATOM      1  C   UNL     1       4.437   3.970  17.595  0.00  0.00    +0.000 A 
ATOM      2  C   UNL     1       5.550   4.376  18.299  0.00  0.00    +0.000 A 
ATOM      3  S   UNL     1       6.853   4.632  17.231  0.00  0.00    +0.000 S 
ATOM      4  C   UNL     1       5.849   4.180  15.895  0.00  0.00    +0.000 A 
ATOM      5  N   UNL     1       4.605   3.875  16.224  0.00  0.00    +0.000 NA
ENDROOT
BRANCH   1  11
ATOM      6  C   UNL     1       2.451   5.734  19.607  0.00  0.00    +0.000 C 
ATOM      7  C   UNL     1       2.342   4.395  19.004  0.00  0.00    +0.000 A 
ATOM      8  O   UNL     1       1.211   3.687  19.286  0.00  0.00    +0.000 OA
ATOM      9  N   UNL     1       1.256   2.460  18.639  0.00  0.00    +0.000 NA
ATOM     10  C   UNL     1       2.416   2.457  17.979  0.00  0.00    +0.000 A 
ATOM     11  C   UNL     1       3.142   3.646  18.174  0.00  0.00    +0.000 A 
ENDBRANCH   1  11
BRANCH   4  12
ATOM     12  C   UNL     1       6.383   4.235  14.524  0.00  0.00    +0.000 A 
ATOM     13  C   UNL     1       7.424   5.110  14.169  0.00  0.00    +0.000 A 
ATOM     14  C   UNL     1       7.852   5.221  12.845  0.00  0.00    +0.000 A 
ATOM     15  C   UNL     1       7.258   4.444  11.856  0.00  0.00    +0.000 A 
ATOM     16  C   UNL     1       6.255   3.537  12.195  0.00  0.00    +0.000 A 
ATOM     17  C   UNL     1       5.825   3.427  13.521  0.00  0.00    +0.000 A 
ENDBRANCH   4  12
TORSDOF 2
ENDMDL
