MODEL 1
REMARK VINA RESULT:      -7.1      0.000      0.000
REMARK  Name = 
REMARK  9 active torsions:
REMARK  status: ('A' for Active; 'I' for Inactive)
REMARK    1  A    between atoms: N_1  and  CA_2
REMARK    2  A    between atoms: CA_2  and  C_3
REMARK    3  A    between atoms: CA_2  and  C_18
REMARK    4  A    between atoms: C_3  and  C_4
REMARK    5  A    between atoms: N_12  and  C_13
REMARK    6  A    between atoms: C_13  and  P_14
REMARK    7  A    between atoms: P_14  and  O_16
REMARK    8  A    between atoms: P_14  and  O_17
REMARK    9  A    between atoms: C_18  and  OXT_20
REMARK                            x       y       z     vdW  Elec       q    Type
REMARK                         _______ _______ _______ _____ _____    ______ ____
ROOT
ATOM      1  C   UNL     1       5.750   4.532  16.250  0.00  0.00    +0.000 A 
ATOM      2  N   UNL     1       4.664   3.794  16.162  0.00  0.00    +0.000 NA
ATOM      3  C   UNL     1       3.828   4.221  17.156  0.00  0.00    +0.000 A 
ATOM      4  C   UNL     1       2.529   3.786  17.462  0.00  0.00    +0.000 A 
ATOM      5  C   UNL     1       1.863   4.361  18.548  0.00  0.00    +0.000 A 
ATOM      6  C   UNL     1       2.488   5.344  19.316  0.00  0.00    +0.000 A 
ATOM      7  C   UNL     1       3.784   5.798  19.017  0.00  0.00    +0.000 A 
ATOM      8  C   UNL     1       4.432   5.217  17.921  0.00  0.00    +0.000 A 
ATOM      9  N   UNL     1       5.658   5.419  17.306  0.00  0.00    +0.000 N 
ENDROOT
BRANCH   1  10
ATOM     10  C   UNL     1       6.920   4.406  15.328  0.00  0.00    +0.000 C 
BRANCH  10  11
ATOM     11  CA  UNL     1       6.485   4.476  13.861  0.00  0.00    +0.000 C 
BRANCH  11  12
ATOM     12  N   UNL     1       6.119   3.148  13.268  0.00  0.00    +0.000 NA
ATOM     13  H1  UNL     1       6.144   3.257  12.247  0.00  0.00    +0.000 HD
ATOM     14  H2  UNL     1       5.138   2.951  13.501  0.00  0.00    +0.000 HD
ENDBRANCH  11  12
BRANCH  11  15
ATOM     15  C   UNL     1       7.618   5.067  13.011  0.00  0.00    +0.000 C 
ATOM     16  O   UNL     1       8.477   5.842  13.401  0.00  0.00    +0.000 OA
BRANCH  15  17
ATOM     17  OXT UNL     1       7.534   4.627  11.726  0.00  0.00    +0.000 OA
ATOM     18  HXT UNL     1       8.468   4.533  11.410  0.00  0.00    +0.000 HD
ENDBRANCH  15  17
ENDBRANCH  11  15
ENDBRANCH  10  11
ENDBRANCH   1  10
BRANCH   9  19
ATOM     19  C   UNL     1       6.643   6.418  17.668  0.00  0.00    +0.000 C 
BRANCH  19  20
ATOM     20  P   UNL     1       7.446   5.826  19.203  0.00  0.00    +0.000 P 
ATOM     21  O   UNL     1       8.038   4.609  18.492  0.00  0.00    +0.000 OA
BRANCH  20  22
ATOM     22  O   UNL     1       8.548   7.032  19.167  0.00  0.00    +0.000 OA
ATOM     23  H   UNL     1       9.307   6.865  19.760  0.00  0.00    +0.000 HD
ENDBRANCH  20  22
BRANCH  20  24
ATOM     24  O   UNL     1       8.205   5.267  20.653  0.00  0.00    +0.000 OA
ATOM     25  H   UNL     1       8.111   4.289  20.608  0.00  0.00    +0.000 HD
ENDBRANCH  20  24
ENDBRANCH  19  20
ENDBRANCH   9  19
TORSDOF 9
ENDMDL
MODEL 2
REMARK VINA RESULT:      -6.9      3.080      5.593
REMARK  Name = 
REMARK  9 active torsions:
REMARK  status: ('A' for Active; 'I' for Inactive)
REMARK    1  A    between atoms: N_1  and  CA_2
REMARK    2  A    between atoms: CA_2  and  C_3
REMARK    3  A    between atoms: CA_2  and  C_18
REMARK    4  A    between atoms: C_3  and  C_4
REMARK    5  A    between atoms: N_12  and  C_13
REMARK    6  A    between atoms: C_13  and  P_14
REMARK    7  A    between atoms: P_14  and  O_16
REMARK    8  A    between atoms: P_14  and  O_17
REMARK    9  A    between atoms: C_18  and  OXT_20
REMARK                            x       y       z     vdW  Elec       q    Type
REMARK                         _______ _______ _______ _____ _____    ______ ____
ROOT
ATOM      1  C   UNL     1       6.655   5.604  16.100  0.00  0.00    +0.000 A 
ATOM      2  N   UNL     1       7.572   5.510  15.160  0.00  0.00    +0.000 NA
ATOM      3  C   UNL     1       6.993   4.831  14.125  0.00  0.00    +0.000 A 
ATOM      4  C   UNL     1       7.535   4.507  12.871  0.00  0.00    +0.000 A 
ATOM      5  C   UNL     1       6.755   3.783  11.965  0.00  0.00    +0.000 A 
ATOM      6  C   UNL     1       5.464   3.383  12.312  0.00  0.00    +0.000 A 
ATOM      7  C   UNL     1       4.903   3.708  13.558  0.00  0.00    +0.000 A 
ATOM      8  C   UNL     1       5.695   4.441  14.448  0.00  0.00    +0.000 A 
ATOM      9  N   UNL     1       5.489   4.970  15.714  0.00  0.00    +0.000 N 
ENDROOT
BRANCH   1  10
ATOM     10  C   UNL     1       6.868   6.298  17.406  0.00  0.00    +0.000 C 
BRANCH  10  11
ATOM     11  CA  UNL     1       7.877   5.547  18.281  0.00  0.00    +0.000 C 
BRANCH  11  12
ATOM     12  N   UNL     1       8.184   4.158  17.804  0.00  0.00    +0.000 NA
ATOM     13  H1  UNL     1       7.317   3.778  17.406  0.00  0.00    +0.000 HD
ATOM     14  H2  UNL     1       8.391   3.574  18.624  0.00  0.00    +0.000 HD
ENDBRANCH  11  12
BRANCH  11  15
ATOM     15  C   UNL     1       7.342   5.437  19.714  0.00  0.00    +0.000 C 
ATOM     16  O   UNL     1       8.011   5.242  20.716  0.00  0.00    +0.000 OA
BRANCH  15  17
ATOM     17  OXT UNL     1       5.987   5.565  19.732  0.00  0.00    +0.000 OA
ATOM     18  HXT UNL     1       5.756   5.859  20.650  0.00  0.00    +0.000 HD
ENDBRANCH  15  17
ENDBRANCH  11  15
ENDBRANCH  10  11
ENDBRANCH   1  10
BRANCH   9  19
ATOM     19  C   UNL     1       4.257   4.917  16.473  0.00  0.00    +0.000 C 
BRANCH  19  20
ATOM     20  P   UNL     1       4.155   3.233  17.185  0.00  0.00    +0.000 P 
ATOM     21  O   UNL     1       4.317   3.764  18.609  0.00  0.00    +0.000 OA
BRANCH  20  22
ATOM     22  O   UNL     1       2.558   3.121  16.855  0.00  0.00    +0.000 OA
ATOM     23  H   UNL     1       2.003   3.563  17.528  0.00  0.00    +0.000 HD
ENDBRANCH  20  22
BRANCH  20  24
ATOM     24  O   UNL     1       4.057   1.643  17.858  0.00  0.00    +0.000 OA
ATOM     25  H   UNL     1       4.809   1.606  18.490  0.00  0.00    +0.000 HD
ENDBRANCH  20  24
ENDBRANCH  19  20
ENDBRANCH   9  19
TORSDOF 9
ENDMDL
MODEL 3
REMARK VINA RESULT:      -6.9      3.221      3.921
REMARK  Name = 
REMARK  9 active torsions:
REMARK  status: ('A' for Active; 'I' for Inactive)
REMARK    1  A    between atoms: N_1  and  CA_2
REMARK    2  A    between atoms: CA_2  and  C_3
REMARK    3  A    between atoms: CA_2  and  C_18
REMARK    4  A    between atoms: C_3  and  C_4
REMARK    5  A    between atoms: N_12  and  C_13
REMARK    6  A    between atoms: C_13  and  P_14
REMARK    7  A    between atoms: P_14  and  O_16
REMARK    8  A    between atoms: P_14  and  O_17
REMARK    9  A    between atoms: C_18  and  OXT_20
REMARK                            x       y       z     vdW  Elec       q    Type
REMARK                         _______ _______ _______ _____ _____    ______ ____
ROOT
ATOM      1  C   UNL     1       4.728   4.844  17.137  0.00  0.00    +0.000 A 
ATOM      2  N   UNL     1       4.438   6.035  16.658  0.00  0.00    +0.000 NA
ATOM      3  C   UNL     1       3.656   6.647  17.599  0.00  0.00    +0.000 A 
ATOM      4  C   UNL     1       3.119   7.943  17.589  0.00  0.00    +0.000 A 
ATOM      5  C   UNL     1       2.325   8.353  18.664  0.00  0.00    +0.000 A 
ATOM      6  C   UNL     1       2.068   7.479  19.721  0.00  0.00    +0.000 A 
ATOM      7  C   UNL     1       2.607   6.182  19.751  0.00  0.00    +0.000 A 
ATOM      8  C   UNL     1       3.406   5.793  18.671  0.00  0.00    +0.000 A 
ATOM      9  N   UNL     1       4.125   4.647  18.365  0.00  0.00    +0.000 N 
ENDROOT
BRANCH   1  10
ATOM     10  C   UNL     1       5.588   3.848  16.428  0.00  0.00    +0.000 C 
BRANCH  10  11
ATOM     11  CA  UNL     1       6.983   4.413  16.148  0.00  0.00    +0.000 C 
BRANCH  11  12
ATOM     12  N   UNL     1       7.305   5.658  16.920  0.00  0.00    +0.000 NA
ATOM     13  H1  UNL     1       7.119   6.454  16.299  0.00  0.00    +0.000 HD
ATOM     14  H2  UNL     1       8.317   5.675  17.096  0.00  0.00    +0.000 HD
ENDBRANCH  11  12
BRANCH  11  15
ATOM     15  C   UNL     1       7.119   4.745  14.656  0.00  0.00    +0.000 C 
ATOM     16  O   UNL     1       7.839   5.607  14.176  0.00  0.00    +0.000 OA
BRANCH  15  17
ATOM     17  OXT UNL     1       6.298   3.956  13.911  0.00  0.00    +0.000 OA
ATOM     18  HXT UNL     1       6.870   3.227  13.560  0.00  0.00    +0.000 HD
ENDBRANCH  15  17
ENDBRANCH  11  15
ENDBRANCH  10  11
ENDBRANCH   1  10
BRANCH   9  19
ATOM     19  C   UNL     1       4.266   3.476  19.205  0.00  0.00    +0.000 C 
BRANCH  19  20
ATOM     20  P   UNL     1       2.796   2.429  18.892  0.00  0.00    +0.000 P 
ATOM     21  O   UNL     1       3.661   1.220  18.539  0.00  0.00    +0.000 OA
BRANCH  20  22
ATOM     22  O   UNL     1       2.431   2.355  20.484  0.00  0.00    +0.000 OA
ATOM     23  H   UNL     1       2.219   3.232  20.861  0.00  0.00    +0.000 HD
ENDBRANCH  20  22
BRANCH  20  24
ATOM     24  O   UNL     1       1.408   1.441  18.598  0.00  0.00    +0.000 OA
ATOM     25  H   UNL     1       1.612   0.993  17.747  0.00  0.00    +0.000 HD
ENDBRANCH  20  24
ENDBRANCH  19  20
ENDBRANCH   9  19
TORSDOF 9
ENDMDL
MODEL 4
REMARK VINA RESULT:      -6.9      1.591      2.350
REMARK  Name = 
REMARK  9 active torsions:
REMARK  status: ('A' for Active; 'I' for Inactive)
REMARK    1  A    between atoms: N_1  and  CA_2
REMARK    2  A    between atoms: CA_2  and  C_3
REMARK    3  A    between atoms: CA_2  and  C_18
REMARK    4  A    between atoms: C_3  and  C_4
REMARK    5  A    between atoms: N_12  and  C_13
REMARK    6  A    between atoms: C_13  and  P_14
REMARK    7  A    between atoms: P_14  and  O_16
REMARK    8  A    between atoms: P_14  and  O_17
REMARK    9  A    between atoms: C_18  and  OXT_20
REMARK                            x       y       z     vdW  Elec       q    Type
REMARK                         _______ _______ _______ _____ _____    ______ ____
ROOT
ATOM      1  C   UNL     1       3.872   4.880  17.310  0.00  0.00    +0.000 A 
ATOM      2  N   UNL     1       2.819   4.135  17.049  0.00  0.00    +0.000 NA
ATOM      3  C   UNL     1       2.257   3.828  18.257  0.00  0.00    +0.000 A 
ATOM      4  C   UNL     1       1.093   3.092  18.526  0.00  0.00    +0.000 A 
ATOM      5  C   UNL     1       0.716   2.887  19.856  0.00  0.00    +0.000 A 
ATOM      6  C   UNL     1       1.494   3.400  20.895  0.00  0.00    +0.000 A 
ATOM      7  C   UNL     1       2.656   4.147  20.643  0.00  0.00    +0.000 A 
ATOM      8  C   UNL     1       3.013   4.349  19.306  0.00  0.00    +0.000 A 
ATOM      9  N   UNL     1       4.034   5.044  18.672  0.00  0.00    +0.000 N 
ENDROOT
BRANCH   1  10
ATOM     10  C   UNL     1       4.767   5.454  16.260  0.00  0.00    +0.000 C 
BRANCH  10  11
ATOM     11  CA  UNL     1       5.360   4.358  15.369  0.00  0.00    +0.000 C 
BRANCH  11  12
ATOM     12  N   UNL     1       5.616   3.063  16.083  0.00  0.00    +0.000 NA
ATOM     13  H1  UNL     1       6.590   2.802  15.891  0.00  0.00    +0.000 HD
ATOM     14  H2  UNL     1       5.041   2.334  15.642  0.00  0.00    +0.000 HD
ENDBRANCH  11  12
BRANCH  11  15
ATOM     15  C   UNL     1       6.694   4.833  14.778  0.00  0.00    +0.000 C 
ATOM     16  O   UNL     1       7.537   5.498  15.357  0.00  0.00    +0.000 OA
BRANCH  15  17
ATOM     17  OXT UNL     1       6.816   4.431  13.484  0.00  0.00    +0.000 OA
ATOM     18  HXT UNL     1       6.013   3.881  13.295  0.00  0.00    +0.000 HD
ENDBRANCH  15  17
ENDBRANCH  11  15
ENDBRANCH  10  11
ENDBRANCH   1  10
BRANCH   9  19
ATOM     19  C   UNL     1       5.054   5.843  19.320  0.00  0.00    +0.000 C 
BRANCH  19  20
ATOM     20  P   UNL     1       6.667   5.145  18.808  0.00  0.00    +0.000 P 
ATOM     21  O   UNL     1       7.315   5.516  20.141  0.00  0.00    +0.000 OA
BRANCH  20  22
ATOM     22  O   UNL     1       6.109   3.612  18.914  0.00  0.00    +0.000 OA
ATOM     23  H   UNL     1       5.948   3.210  18.037  0.00  0.00    +0.000 HD
ENDBRANCH  20  22
BRANCH  20  24
ATOM     24  O   UNL     1       8.191   4.485  18.325  0.00  0.00    +0.000 OA
ATOM     25  H   UNL     1       8.404   4.965  17.494  0.00  0.00    +0.000 HD
ENDBRANCH  20  24
ENDBRANCH  19  20
ENDBRANCH   9  19
TORSDOF 9
ENDMDL
MODEL 5
REMARK VINA RESULT:      -6.8      2.748      3.914
REMARK  Name = 
REMARK  9 active torsions:
REMARK  status: ('A' for Active; 'I' for Inactive)
REMARK    1  A    between atoms: N_1  and  CA_2
REMARK    2  A    between atoms: CA_2  and  C_3
REMARK    3  A    between atoms: CA_2  and  C_18
REMARK    4  A    between atoms: C_3  and  C_4
REMARK    5  A    between atoms: N_12  and  C_13
REMARK    6  A    between atoms: C_13  and  P_14
REMARK    7  A    between atoms: P_14  and  O_16
REMARK    8  A    between atoms: P_14  and  O_17
REMARK    9  A    between atoms: C_18  and  OXT_20
REMARK                            x       y       z     vdW  Elec       q    Type
REMARK                         _______ _______ _______ _____ _____    ______ ____
ROOT
ATOM      1  C   UNL     1       4.059   4.825  17.150  0.00  0.00    +0.000 A 
ATOM      2  N   UNL     1       4.038   6.121  17.380  0.00  0.00    +0.000 NA
ATOM      3  C   UNL     1       3.189   6.310  18.436  0.00  0.00    +0.000 A 
ATOM      4  C   UNL     1       2.854   7.503  19.094  0.00  0.00    +0.000 A 
ATOM      5  C   UNL     1       1.939   7.458  20.150  0.00  0.00    +0.000 A 
ATOM      6  C   UNL     1       1.366   6.244  20.532  0.00  0.00    +0.000 A 
ATOM      7  C   UNL     1       1.699   5.039  19.890  0.00  0.00    +0.000 A 
ATOM      8  C   UNL     1       2.622   5.103  18.841  0.00  0.00    +0.000 A 
ATOM      9  N   UNL     1       3.215   4.158  18.017  0.00  0.00    +0.000 N 
ENDROOT
BRANCH   1  10
ATOM     10  C   UNL     1       4.885   4.182  16.084  0.00  0.00    +0.000 C 
BRANCH  10  11
ATOM     11  CA  UNL     1       6.372   4.180  16.453  0.00  0.00    +0.000 C 
BRANCH  11  12
ATOM     12  N   UNL     1       6.637   4.324  17.923  0.00  0.00    +0.000 NA
ATOM     13  H1  UNL     1       6.740   5.328  18.112  0.00  0.00    +0.000 HD
ATOM     14  H2  UNL     1       7.554   3.908  18.127  0.00  0.00    +0.000 HD
ENDBRANCH  11  12
BRANCH  11  15
ATOM     15  C   UNL     1       7.087   5.334  15.738  0.00  0.00    +0.000 C 
ATOM     16  O   UNL     1       7.591   5.285  14.627  0.00  0.00    +0.000 OA
BRANCH  15  17
ATOM     17  OXT UNL     1       7.114   6.444  16.525  0.00  0.00    +0.000 OA
ATOM     18  HXT UNL     1       6.275   6.421  17.052  0.00  0.00    +0.000 HD
ENDBRANCH  15  17
ENDBRANCH  11  15
ENDBRANCH  10  11
ENDBRANCH   1  10
BRANCH   9  19
ATOM     19  C   UNL     1       3.026   2.723  18.087  0.00  0.00    +0.000 C 
BRANCH  19  20
ATOM     20  P   UNL     1       4.218   2.101  19.330  0.00  0.00    +0.000 P 
ATOM     21  O   UNL     1       3.145   2.049  20.417  0.00  0.00    +0.000 OA
BRANCH  20  22
ATOM     22  O   UNL     1       4.298   0.635  18.613  0.00  0.00    +0.000 OA
ATOM     23  H   UNL     1       5.206   0.403  18.335  0.00  0.00    +0.000 HD
ENDBRANCH  20  22
BRANCH  20  24
ATOM     24  O   UNL     1       5.344   1.513  20.504  0.00  0.00    +0.000 OA
ATOM     25  H   UNL     1       4.896   1.675  21.364  0.00  0.00    +0.000 HD
ENDBRANCH  20  24
ENDBRANCH  19  20
ENDBRANCH   9  19
TORSDOF 9
ENDMDL
MODEL 6
REMARK VINA RESULT:      -6.8      3.445      4.289
REMARK  Name = 
REMARK  9 active torsions:
REMARK  status: ('A' for Active; 'I' for Inactive)
REMARK    1  A    between atoms: N_1  and  CA_2
REMARK    2  A    between atoms: CA_2  and  C_3
REMARK    3  A    between atoms: CA_2  and  C_18
REMARK    4  A    between atoms: C_3  and  C_4
REMARK    5  A    between atoms: N_12  and  C_13
REMARK    6  A    between atoms: C_13  and  P_14
REMARK    7  A    between atoms: P_14  and  O_16
REMARK    8  A    between atoms: P_14  and  O_17
REMARK    9  A    between atoms: C_18  and  OXT_20
REMARK                            x       y       z     vdW  Elec       q    Type
REMARK                         _______ _______ _______ _____ _____    ______ ____
ROOT
ATOM      1  C   UNL     1       4.233   4.961  17.469  0.00  0.00    +0.000 A 
ATOM      2  N   UNL     1       3.997   6.163  16.987  0.00  0.00    +0.000 NA
ATOM      3  C   UNL     1       3.256   6.816  17.932  0.00  0.00    +0.000 A 
ATOM      4  C   UNL     1       2.783   8.138  17.922  0.00  0.00    +0.000 A 
ATOM      5  C   UNL     1       2.021   8.590  19.003  0.00  0.00    +0.000 A 
ATOM      6  C   UNL     1       1.732   7.734  20.067  0.00  0.00    +0.000 A 
ATOM      7  C   UNL     1       2.207   6.413  20.097  0.00  0.00    +0.000 A 
ATOM      8  C   UNL     1       2.974   5.980  19.011  0.00  0.00    +0.000 A 
ATOM      9  N   UNL     1       3.633   4.798  18.703  0.00  0.00    +0.000 N 
ENDROOT
BRANCH   1  10
ATOM     10  C   UNL     1       5.036   3.921  16.756  0.00  0.00    +0.000 C 
BRANCH  10  11
ATOM     11  CA  UNL     1       5.978   4.551  15.725  0.00  0.00    +0.000 C 
BRANCH  11  12
ATOM     12  N   UNL     1       6.324   3.645  14.580  0.00  0.00    +0.000 NA
ATOM     13  H1  UNL     1       6.138   2.684  14.890  0.00  0.00    +0.000 HD
ATOM     14  H2  UNL     1       7.339   3.695  14.426  0.00  0.00    +0.000 HD
ENDBRANCH  11  12
BRANCH  11  15
ATOM     15  C   UNL     1       7.291   4.963  16.404  0.00  0.00    +0.000 C 
ATOM     16  O   UNL     1       8.044   4.222  17.015  0.00  0.00    +0.000 OA
BRANCH  15  17
ATOM     17  OXT UNL     1       7.508   6.298  16.258  0.00  0.00    +0.000 OA
ATOM     18  HXT UNL     1       8.480   6.397  16.092  0.00  0.00    +0.000 HD
ENDBRANCH  15  17
ENDBRANCH  11  15
ENDBRANCH  10  11
ENDBRANCH   1  10
BRANCH   9  19
ATOM     19  C   UNL     1       3.724   3.625  19.547  0.00  0.00    +0.000 C 
BRANCH  19  20
ATOM     20  P   UNL     1       2.328   2.537  19.080  0.00  0.00    +0.000 P 
ATOM     21  O   UNL     1       3.270   1.398  18.692  0.00  0.00    +0.000 OA
BRANCH  20  22
ATOM     22  O   UNL     1       1.885   2.331  20.640  0.00  0.00    +0.000 OA
ATOM     23  H   UNL     1       1.655   1.403  20.845  0.00  0.00    +0.000 HD
ENDBRANCH  20  22
BRANCH  20  24
ATOM     24  O   UNL     1       1.009   1.508  18.640  0.00  0.00    +0.000 OA
ATOM     25  H   UNL     1       1.428   0.629  18.509  0.00  0.00    +0.000 HD
ENDBRANCH  20  24
ENDBRANCH  19  20
ENDBRANCH   9  19
TORSDOF 9
ENDMDL
MODEL 7
REMARK VINA RESULT:      -6.8      2.463      4.356
REMARK  Name = 
REMARK  9 active torsions:
REMARK  status: ('A' for Active; 'I' for Inactive)
REMARK    1  A    between atoms: N_1  and  CA_2
REMARK    2  A    between atoms: CA_2  and  C_3
REMARK    3  A    between atoms: CA_2  and  C_18
REMARK    4  A    between atoms: C_3  and  C_4
REMARK    5  A    between atoms: N_12  and  C_13
REMARK    6  A    between atoms: C_13  and  P_14
REMARK    7  A    between atoms: P_14  and  O_16
REMARK    8  A    between atoms: P_14  and  O_17
REMARK    9  A    between atoms: C_18  and  OXT_20
REMARK                            x       y       z     vdW  Elec       q    Type
REMARK                         _______ _______ _______ _____ _____    ______ ____
ROOT
ATOM      1  C   UNL     1       6.025   4.394  18.139  0.00  0.00    +0.000 A 
ATOM      2  N   UNL     1       5.595   3.744  19.200  0.00  0.00    +0.000 NA
ATOM      3  C   UNL     1       4.230   3.733  19.116  0.00  0.00    +0.000 A 
ATOM      4  C   UNL     1       3.300   3.131  19.977  0.00  0.00    +0.000 A 
ATOM      5  C   UNL     1       1.937   3.268  19.700  0.00  0.00    +0.000 A 
ATOM      6  C   UNL     1       1.515   3.999  18.589  0.00  0.00    +0.000 A 
ATOM      7  C   UNL     1       2.433   4.598  17.711  0.00  0.00    +0.000 A 
ATOM      8  C   UNL     1       3.793   4.445  18.000  0.00  0.00    +0.000 A 
ATOM      9  N   UNL     1       4.965   4.840  17.372  0.00  0.00    +0.000 N 
ENDROOT
BRANCH   1  10
ATOM     10  C   UNL     1       7.469   4.618  17.828  0.00  0.00    +0.000 C 
BRANCH  10  11
ATOM     11  CA  UNL     1       8.094   5.644  18.779  0.00  0.00    +0.000 C 
BRANCH  11  12
ATOM     12  N   UNL     1       7.448   5.694  20.133  0.00  0.00    +0.000 NA
ATOM     13  H1  UNL     1       6.780   6.473  20.117  0.00  0.00    +0.000 HD
ATOM     14  H2  UNL     1       8.164   5.958  20.821  0.00  0.00    +0.000 HD
ENDBRANCH  11  12
BRANCH  11  15
ATOM     15  C   UNL     1       7.998   7.047  18.166  0.00  0.00    +0.000 C 
ATOM     16  O   UNL     1       7.469   7.330  17.104  0.00  0.00    +0.000 OA
BRANCH  15  17
ATOM     17  OXT UNL     1       8.613   7.962  18.964  0.00  0.00    +0.000 OA
ATOM     18  HXT UNL     1       9.567   7.956  18.696  0.00  0.00    +0.000 HD
ENDBRANCH  15  17
ENDBRANCH  11  15
ENDBRANCH  10  11
ENDBRANCH   1  10
BRANCH   9  19
ATOM     19  C   UNL     1       5.063   5.545  16.111  0.00  0.00    +0.000 C 
BRANCH  19  20
ATOM     20  P   UNL     1       5.872   4.399  14.934  0.00  0.00    +0.000 P 
ATOM     21  O   UNL     1       4.721   4.518  13.937  0.00  0.00    +0.000 OA
BRANCH  20  22
ATOM     22  O   UNL     1       7.011   5.504  14.542  0.00  0.00    +0.000 OA
ATOM     23  H   UNL     1       7.232   6.096  15.288  0.00  0.00    +0.000 HD
ENDBRANCH  20  22
BRANCH  20  24
ATOM     24  O   UNL     1       6.637   3.316  13.822  0.00  0.00    +0.000 OA
ATOM     25  H   UNL     1       7.119   2.684  14.401  0.00  0.00    +0.000 HD
ENDBRANCH  20  24
ENDBRANCH  19  20
ENDBRANCH   9  19
TORSDOF 9
ENDMDL
MODEL 8
REMARK VINA RESULT:      -6.7      3.468      5.814
REMARK  Name = 
REMARK  9 active torsions:
REMARK  status: ('A' for Active; 'I' for Inactive)
REMARK    1  A    between atoms: N_1  and  CA_2
REMARK    2  A    between atoms: CA_2  and  C_3
REMARK    3  A    between atoms: CA_2  and  C_18
REMARK    4  A    between atoms: C_3  and  C_4
REMARK    5  A    between atoms: N_12  and  C_13
REMARK    6  A    between atoms: C_13  and  P_14
REMARK    7  A    between atoms: P_14  and  O_16
REMARK    8  A    between atoms: P_14  and  O_17
REMARK    9  A    between atoms: C_18  and  OXT_20
REMARK                            x       y       z     vdW  Elec       q    Type
REMARK                         _______ _______ _______ _____ _____    ______ ____
ROOT
ATOM      1  C   UNL     1       3.417   4.842  19.239  0.00  0.00    +0.000 A 
ATOM      2  N   UNL     1       2.761   5.563  20.125  0.00  0.00    +0.000 NA
ATOM      3  C   UNL     1       2.474   6.752  19.514  0.00  0.00    +0.000 A 
ATOM      4  C   UNL     1       1.754   7.848  20.014  0.00  0.00    +0.000 A 
ATOM      5  C   UNL     1       1.599   8.979  19.208  0.00  0.00    +0.000 A 
ATOM      6  C   UNL     1       2.162   9.016  17.932  0.00  0.00    +0.000 A 
ATOM      7  C   UNL     1       2.877   7.924  17.412  0.00  0.00    +0.000 A 
ATOM      8  C   UNL     1       3.014   6.797  18.230  0.00  0.00    +0.000 A 
ATOM      9  N   UNL     1       3.595   5.548  18.065  0.00  0.00    +0.000 N 
ENDROOT
BRANCH   1  10
ATOM     10  C   UNL     1       3.903   3.452  19.493  0.00  0.00    +0.000 C 
BRANCH  10  11
ATOM     11  CA  UNL     1       2.737   2.474  19.667  0.00  0.00    +0.000 C 
BRANCH  11  12
ATOM     12  N   UNL     1       1.648   2.635  18.648  0.00  0.00    +0.000 NA
ATOM     13  H1  UNL     1       2.071   2.471  17.727  0.00  0.00    +0.000 HD
ATOM     14  H2  UNL     1       1.352   3.619  18.646  0.00  0.00    +0.000 HD
ENDBRANCH  11  12
BRANCH  11  15
ATOM     15  C   UNL     1       2.107   2.659  21.054  0.00  0.00    +0.000 C 
ATOM     16  O   UNL     1       2.656   2.452  22.124  0.00  0.00    +0.000 OA
BRANCH  15  17
ATOM     17  OXT UNL     1       0.814   3.070  20.943  0.00  0.00    +0.000 OA
ATOM     18  HXT UNL     1       0.585   3.480  21.815  0.00  0.00    +0.000 HD
ENDBRANCH  15  17
ENDBRANCH  11  15
ENDBRANCH  10  11
ENDBRANCH   1  10
BRANCH   9  19
ATOM     19  C   UNL     1       4.226   5.052  16.860  0.00  0.00    +0.000 C 
BRANCH  19  20
ATOM     20  P   UNL     1       5.886   5.821  16.784  0.00  0.00    +0.000 P 
ATOM     21  O   UNL     1       6.579   4.460  16.764  0.00  0.00    +0.000 OA
BRANCH  20  22
ATOM     22  O   UNL     1       5.659   6.308  15.240  0.00  0.00    +0.000 OA
ATOM     23  H   UNL     1       6.412   6.077  14.660  0.00  0.00    +0.000 HD
ENDBRANCH  20  22
BRANCH  20  24
ATOM     24  O   UNL     1       7.453   6.549  16.712  0.00  0.00    +0.000 OA
ATOM     25  H   UNL     1       7.511   6.897  15.795  0.00  0.00    +0.000 HD
ENDBRANCH  20  24
ENDBRANCH  19  20
ENDBRANCH   9  19
TORSDOF 9
ENDMDL
MODEL 9
REMARK VINA RESULT:      -6.7      3.273      4.415
REMARK  Name = 
REMARK  9 active torsions:
REMARK  status: ('A' for Active; 'I' for Inactive)
REMARK    1  A    between atoms: N_1  and  CA_2
REMARK    2  A    between atoms: CA_2  and  C_3
REMARK    3  A    between atoms: CA_2  and  C_18
REMARK    4  A    between atoms: C_3  and  C_4
REMARK    5  A    between atoms: N_12  and  C_13
REMARK    6  A    between atoms: C_13  and  P_14
REMARK    7  A    between atoms: P_14  and  O_16
REMARK    8  A    between atoms: P_14  and  O_17
REMARK    9  A    between atoms: C_18  and  OXT_20
REMARK                            x       y       z     vdW  Elec       q    Type
REMARK                         _______ _______ _______ _____ _____    ______ ____
ROOT
ATOM      1  C   UNL     1       4.404   5.376  17.466  0.00  0.00    +0.000 A 
ATOM      2  N   UNL     1       3.978   6.584  17.164  0.00  0.00    +0.000 NA
ATOM      3  C   UNL     1       3.157   6.969  18.188  0.00  0.00    +0.000 A 
ATOM      4  C   UNL     1       2.484   8.187  18.368  0.00  0.00    +0.000 A 
ATOM      5  C   UNL     1       1.676   8.352  19.496  0.00  0.00    +0.000 A 
ATOM      6  C   UNL     1       1.537   7.315  20.419  0.00  0.00    +0.000 A 
ATOM      7  C   UNL     1       2.212   6.093  20.260  0.00  0.00    +0.000 A 
ATOM      8  C   UNL     1       3.023   5.949  19.129  0.00  0.00    +0.000 A 
ATOM      9  N   UNL     1       3.854   4.943  18.657  0.00  0.00    +0.000 N 
ENDROOT
BRANCH   1  10
ATOM     10  C   UNL     1       5.349   4.590  16.616  0.00  0.00    +0.000 C 
BRANCH  10  11
ATOM     11  CA  UNL     1       6.681   5.325  16.432  0.00  0.00    +0.000 C 
BRANCH  11  12
ATOM     12  N   UNL     1       7.499   4.828  15.277  0.00  0.00    +0.000 NA
ATOM     13  H1  UNL     1       7.174   5.330  14.442  0.00  0.00    +0.000 HD
ATOM     14  H2  UNL     1       7.263   3.841  15.117  0.00  0.00    +0.000 HD
ENDBRANCH  11  12
BRANCH  11  15
ATOM     15  C   UNL     1       7.533   5.182  17.700  0.00  0.00    +0.000 C 
ATOM     16  O   UNL     1       7.614   5.997  18.604  0.00  0.00    +0.000 OA
BRANCH  15  17
ATOM     17  OXT UNL     1       8.225   4.010  17.683  0.00  0.00    +0.000 OA
ATOM     18  HXT UNL     1       8.708   3.995  16.818  0.00  0.00    +0.000 HD
ENDBRANCH  15  17
ENDBRANCH  11  15
ENDBRANCH  10  11
ENDBRANCH   1  10
BRANCH   9  19
ATOM     19  C   UNL     1       4.138   3.687  19.320  0.00  0.00    +0.000 C 
BRANCH  19  20
ATOM     20  P   UNL     1       2.747   2.563  18.926  0.00  0.00    +0.000 P 
ATOM     21  O   UNL     1       3.695   1.400  18.637  0.00  0.00    +0.000 OA
BRANCH  20  22
ATOM     22  O   UNL     1       2.289   2.478  20.492  0.00  0.00    +0.000 OA
ATOM     23  H   UNL     1       1.331   2.633  20.611  0.00  0.00    +0.000 HD
ENDBRANCH  20  22
BRANCH  20  24
ATOM     24  O   UNL     1       1.434   1.500  18.554  0.00  0.00    +0.000 OA
ATOM     25  H   UNL     1       0.635   2.020  18.792  0.00  0.00    +0.000 HD
ENDBRANCH  20  24
ENDBRANCH  19  20
ENDBRANCH   9  19
TORSDOF 9
ENDMDL
