MODEL 1
REMARK VINA RESULT:      -6.6      0.000      0.000
REMARK  Name = 
REMARK  8 active torsions:
REMARK  status: ('A' for Active; 'I' for Inactive)
REMARK    1  A    between atoms: C_1  and  C_2
REMARK    2  A    between atoms: C_8  and  S_9
REMARK    3  A    between atoms: S_9  and  N_12
REMARK    4  A    between atoms: C_15  and  C_16
REMARK    5  A    between atoms: C_16  and  N_17
REMARK    6  A    between atoms: N_17  and  C_18
REMARK    7  A    between atoms: N_17  and  C_19
REMARK    8  A    between atoms: C_20  and  O_21
REMARK                            x       y       z     vdW  Elec       q    Type
REMARK                         _______ _______ _______ _____ _____    ______ ____
ROOT
ATOM      1  N   UNL     1       3.300   4.994  18.964  0.00  0.00    +0.000 NA
ATOM      2  C   UNL     1       3.017   5.173  20.391  0.00  0.00    +0.000 C 
ATOM      3  C   UNL     1       1.817   6.073  20.629  0.00  0.00    +0.000 C 
ATOM      4  C   UNL     1       2.042   7.429  19.966  0.00  0.00    +0.000 C 
ATOM      5  C   UNL     1       2.225   7.265  18.447  0.00  0.00    +0.000 C 
ATOM      6  C   UNL     1       2.742   5.901  17.943  0.00  0.00    +0.000 C 
ENDROOT
BRANCH   1   7
ATOM      7  S   UNL     1       4.089   3.580  18.459  0.00  0.00    +0.000 S 
ATOM      8  O   UNL     1       3.089   2.781  17.779  0.00  0.00    +0.000 OA
ATOM      9  O   UNL     1       4.845   3.047  19.575  0.00  0.00    +0.000 OA
BRANCH   7  17
ATOM     10  C   UNL     1       6.673   5.534  18.958  0.00  0.00    +0.000 C 
ATOM     11  C   UNL     1       6.392   4.989  17.584  0.00  0.00    +0.000 A 
ATOM     12  C   UNL     1       7.267   5.376  16.548  0.00  0.00    +0.000 A 
ATOM     13  C   UNL     1       7.057   4.960  15.233  0.00  0.00    +0.000 A 
ATOM     14  C   UNL     1       5.963   4.160  14.938  0.00  0.00    +0.000 A 
ATOM     15  F   UNL     1       5.757   3.764  13.678  0.00  0.00    +0.000 F 
ATOM     16  C   UNL     1       5.080   3.764  15.932  0.00  0.00    +0.000 A 
ATOM     17  C   UNL     1       5.292   4.162  17.261  0.00  0.00    +0.000 A 
ENDBRANCH   7  17
ENDBRANCH   1   7
BRANCH   5  18
ATOM     18  O   UNL     1       3.081   8.324  17.994  0.00  0.00    +0.000 OA
ATOM     19  H   UNL     1       3.558   8.004  17.207  0.00  0.00    +0.000 HD
ENDBRANCH   5  18
BRANCH   4  20
ATOM     20  C   UNL     1       0.880   8.415  20.248  0.00  0.00    +0.000 C 
BRANCH  20  21
ATOM     21  N   UNL     1       1.108   9.803  19.798  0.00  0.00    +0.000 NA
ATOM     22  C   UNL     1       0.182  10.197  18.733  0.00  0.00    +0.000 C 
ATOM     23  C   UNL     1       0.949  10.724  20.932  0.00  0.00    +0.000 C 
ENDBRANCH  20  21
ENDBRANCH   4  20
TORSDOF 5
ENDMDL
MODEL 2
REMARK VINA RESULT:      -6.4      3.158      4.624
REMARK  Name = 
REMARK  8 active torsions:
REMARK  status: ('A' for Active; 'I' for Inactive)
REMARK    1  A    between atoms: C_1  and  C_2
REMARK    2  A    between atoms: C_8  and  S_9
REMARK    3  A    between atoms: S_9  and  N_12
REMARK    4  A    between atoms: C_15  and  C_16
REMARK    5  A    between atoms: C_16  and  N_17
REMARK    6  A    between atoms: N_17  and  C_18
REMARK    7  A    between atoms: N_17  and  C_19
REMARK    8  A    between atoms: C_20  and  O_21
REMARK                            x       y       z     vdW  Elec       q    Type
REMARK                         _______ _______ _______ _____ _____    ______ ____
ROOT
ATOM      1  N   UNL     1       5.657   5.038  16.806  0.00  0.00    +0.000 NA
ATOM      2  C   UNL     1       4.712   6.157  16.727  0.00  0.00    +0.000 C 
ATOM      3  C   UNL     1       3.736   6.167  17.890  0.00  0.00    +0.000 C 
ATOM      4  C   UNL     1       2.977   4.845  17.945  0.00  0.00    +0.000 C 
ATOM      5  C   UNL     1       3.949   3.670  18.145  0.00  0.00    +0.000 C 
ATOM      6  C   UNL     1       5.404   3.871  17.672  0.00  0.00    +0.000 C 
ENDROOT
BRANCH   1   7
ATOM      7  S   UNL     1       7.175   5.197  16.067  0.00  0.00    +0.000 S 
ATOM      8  O   UNL     1       8.027   4.198  16.680  0.00  0.00    +0.000 OA
ATOM      9  O   UNL     1       7.544   6.598  16.062  0.00  0.00    +0.000 OA
BRANCH   7  17
ATOM     10  C   UNL     1       9.033   5.822  13.441  0.00  0.00    +0.000 C 
ATOM     11  C   UNL     1       7.754   5.043  13.294  0.00  0.00    +0.000 A 
ATOM     12  C   UNL     1       7.400   4.630  11.993  0.00  0.00    +0.000 A 
ATOM     13  C   UNL     1       6.208   3.946  11.752  0.00  0.00    +0.000 A 
ATOM     14  C   UNL     1       5.352   3.676  12.810  0.00  0.00    +0.000 A 
ATOM     15  F   UNL     1       4.207   3.026  12.581  0.00  0.00    +0.000 F 
ATOM     16  C   UNL     1       5.667   4.072  14.101  0.00  0.00    +0.000 A 
ATOM     17  C   UNL     1       6.872   4.745  14.357  0.00  0.00    +0.000 A 
ENDBRANCH   7  17
ENDBRANCH   1   7
BRANCH   5  18
ATOM     18  O   UNL     1       3.373   2.515  17.515  0.00  0.00    +0.000 OA
ATOM     19  H   UNL     1       2.635   2.209  18.073  0.00  0.00    +0.000 HD
ENDBRANCH   5  18
BRANCH   4  20
ATOM     20  C   UNL     1       1.908   4.834  19.067  0.00  0.00    +0.000 C 
BRANCH  20  21
ATOM     21  N   UNL     1       1.946   3.659  19.962  0.00  0.00    +0.000 NA
ATOM     22  C   UNL     1       2.095   4.043  21.369  0.00  0.00    +0.000 C 
ATOM     23  C   UNL     1       0.710   2.880  19.809  0.00  0.00    +0.000 C 
ENDBRANCH  20  21
ENDBRANCH   4  20
TORSDOF 5
ENDMDL
MODEL 3
REMARK VINA RESULT:      -6.2      3.601      6.779
REMARK  Name = 
REMARK  8 active torsions:
REMARK  status: ('A' for Active; 'I' for Inactive)
REMARK    1  A    between atoms: C_1  and  C_2
REMARK    2  A    between atoms: C_8  and  S_9
REMARK    3  A    between atoms: S_9  and  N_12
REMARK    4  A    between atoms: C_15  and  C_16
REMARK    5  A    between atoms: C_16  and  N_17
REMARK    6  A    between atoms: N_17  and  C_18
REMARK    7  A    between atoms: N_17  and  C_19
REMARK    8  A    between atoms: C_20  and  O_21
REMARK                            x       y       z     vdW  Elec       q    Type
REMARK                         _______ _______ _______ _____ _____    ______ ____
ROOT
ATOM      1  N   UNL     1       4.100   5.997  18.006  0.00  0.00    +0.000 NA
ATOM      2  C   UNL     1       4.502   6.887  16.912  0.00  0.00    +0.000 C 
ATOM      3  C   UNL     1       5.252   6.147  15.818  0.00  0.00    +0.000 C 
ATOM      4  C   UNL     1       6.477   5.452  16.404  0.00  0.00    +0.000 C 
ATOM      5  C   UNL     1       6.060   4.430  17.474  0.00  0.00    +0.000 C 
ATOM      6  C   UNL     1       4.713   4.668  18.189  0.00  0.00    +0.000 C 
ENDROOT
BRANCH   1   7
ATOM      7  S   UNL     1       2.744   6.409  18.936  0.00  0.00    +0.000 S 
ATOM      8  O   UNL     1       1.802   7.028  18.024  0.00  0.00    +0.000 OA
ATOM      9  O   UNL     1       3.191   7.093  20.133  0.00  0.00    +0.000 OA
BRANCH   7  17
ATOM     10  C   UNL     1       1.181   4.148  17.151  0.00  0.00    +0.000 C 
ATOM     11  C   UNL     1       1.449   3.905  18.611  0.00  0.00    +0.000 A 
ATOM     12  C   UNL     1       0.980   2.691  19.157  0.00  0.00    +0.000 A 
ATOM     13  C   UNL     1       1.139   2.400  20.512  0.00  0.00    +0.000 A 
ATOM     14  C   UNL     1       1.760   3.325  21.339  0.00  0.00    +0.000 A 
ATOM     15  F   UNL     1       1.908   3.051  22.639  0.00  0.00    +0.000 F 
ATOM     16  C   UNL     1       2.228   4.530  20.836  0.00  0.00    +0.000 A 
ATOM     17  C   UNL     1       2.090   4.825  19.471  0.00  0.00    +0.000 A 
ENDBRANCH   7  17
ENDBRANCH   1   7
BRANCH   5  18
ATOM     18  O   UNL     1       7.126   4.340  18.431  0.00  0.00    +0.000 OA
ATOM     19  H   UNL     1       7.598   3.502  18.273  0.00  0.00    +0.000 HD
ENDBRANCH   5  18
BRANCH   4  20
ATOM     20  C   UNL     1       7.324   4.749  15.313  0.00  0.00    +0.000 C 
BRANCH  20  21
ATOM     21  N   UNL     1       6.939   5.054  13.920  0.00  0.00    +0.000 NA
ATOM     22  C   UNL     1       8.084   5.478  13.111  0.00  0.00    +0.000 C 
ATOM     23  C   UNL     1       6.332   3.867  13.302  0.00  0.00    +0.000 C 
ENDBRANCH  20  21
ENDBRANCH   4  20
TORSDOF 5
ENDMDL
MODEL 4
REMARK VINA RESULT:      -6.2      1.105      1.703
REMARK  Name = 
REMARK  8 active torsions:
REMARK  status: ('A' for Active; 'I' for Inactive)
REMARK    1  A    between atoms: C_1  and  C_2
REMARK    2  A    between atoms: C_8  and  S_9
REMARK    3  A    between atoms: S_9  and  N_12
REMARK    4  A    between atoms: C_15  and  C_16
REMARK    5  A    between atoms: C_16  and  N_17
REMARK    6  A    between atoms: N_17  and  C_18
REMARK    7  A    between atoms: N_17  and  C_19
REMARK    8  A    between atoms: C_20  and  O_21
REMARK                            x       y       z     vdW  Elec       q    Type
REMARK                         _______ _______ _______ _____ _____    ______ ____
ROOT
ATOM      1  N   UNL     1       3.543   5.234  18.583  0.00  0.00    +0.000 NA
ATOM      2  C   UNL     1       3.229   6.121  17.459  0.00  0.00    +0.000 C 
ATOM      3  C   UNL     1       3.041   7.562  17.901  0.00  0.00    +0.000 C 
ATOM      4  C   UNL     1       1.942   7.645  18.955  0.00  0.00    +0.000 C 
ATOM      5  C   UNL     1       2.314   6.809  20.192  0.00  0.00    +0.000 C 
ATOM      6  C   UNL     1       3.294   5.636  19.980  0.00  0.00    +0.000 C 
ENDROOT
BRANCH   1   7
ATOM      7  S   UNL     1       4.426   3.817  18.283  0.00  0.00    +0.000 S 
ATOM      8  O   UNL     1       3.471   2.846  17.787  0.00  0.00    +0.000 OA
ATOM      9  O   UNL     1       5.255   3.534  19.437  0.00  0.00    +0.000 OA
BRANCH   7  17
ATOM     10  C   UNL     1       6.960   5.894  18.386  0.00  0.00    +0.000 C 
ATOM     11  C   UNL     1       6.626   5.170  17.109  0.00  0.00    +0.000 A 
ATOM     12  C   UNL     1       7.431   5.448  15.984  0.00  0.00    +0.000 A 
ATOM     13  C   UNL     1       7.168   4.863  14.746  0.00  0.00    +0.000 A 
ATOM     14  C   UNL     1       6.090   4.000  14.616  0.00  0.00    +0.000 A 
ATOM     15  F   UNL     1       5.832   3.442  13.429  0.00  0.00    +0.000 F 
ATOM     16  C   UNL     1       5.275   3.708  15.700  0.00  0.00    +0.000 A 
ATOM     17  C   UNL     1       5.542   4.277  16.955  0.00  0.00    +0.000 A 
ENDBRANCH   7  17
ENDBRANCH   1   7
BRANCH   5  18
ATOM     18  O   UNL     1       1.093   6.341  20.786  0.00  0.00    +0.000 OA
ATOM     19  H   UNL     1       0.443   7.065  20.738  0.00  0.00    +0.000 HD
ENDBRANCH   5  18
BRANCH   4  20
ATOM     20  C   UNL     1       1.653   9.107  19.382  0.00  0.00    +0.000 C 
BRANCH  20  21
ATOM     21  N   UNL     1       0.497   9.284  20.285  0.00  0.00    +0.000 NA
ATOM     22  C   UNL     1       0.882   9.892  21.561  0.00  0.00    +0.000 C 
ATOM     23  C   UNL     1      -0.511  10.133  19.636  0.00  0.00    +0.000 C 
ENDBRANCH  20  21
ENDBRANCH   4  20
TORSDOF 5
ENDMDL
MODEL 5
REMARK VINA RESULT:      -6.2      3.233      4.707
REMARK  Name = 
REMARK  8 active torsions:
REMARK  status: ('A' for Active; 'I' for Inactive)
REMARK    1  A    between atoms: C_1  and  C_2
REMARK    2  A    between atoms: C_8  and  S_9
REMARK    3  A    between atoms: S_9  and  N_12
REMARK    4  A    between atoms: C_15  and  C_16
REMARK    5  A    between atoms: C_16  and  N_17
REMARK    6  A    between atoms: N_17  and  C_18
REMARK    7  A    between atoms: N_17  and  C_19
REMARK    8  A    between atoms: C_20  and  O_21
REMARK                            x       y       z     vdW  Elec       q    Type
REMARK                         _______ _______ _______ _____ _____    ______ ____
ROOT
ATOM      1  N   UNL     1       5.739   5.042  17.210  0.00  0.00    +0.000 NA
ATOM      2  C   UNL     1       4.608   5.900  16.840  0.00  0.00    +0.000 C 
ATOM      3  C   UNL     1       3.546   5.947  17.924  0.00  0.00    +0.000 C 
ATOM      4  C   UNL     1       3.053   4.536  18.233  0.00  0.00    +0.000 C 
ATOM      5  C   UNL     1       4.210   3.655  18.734  0.00  0.00    +0.000 C 
ATOM      6  C   UNL     1       5.637   4.053  18.299  0.00  0.00    +0.000 C 
ENDROOT
BRANCH   1   7
ATOM      7  S   UNL     1       7.259   5.356  16.529  0.00  0.00    +0.000 S 
ATOM      8  O   UNL     1       8.181   4.428  17.155  0.00  0.00    +0.000 OA
ATOM      9  O   UNL     1       7.496   6.786  16.560  0.00  0.00    +0.000 OA
BRANCH   7  17
ATOM     10  C   UNL     1       5.531   2.881  15.254  0.00  0.00    +0.000 C 
ATOM     11  C   UNL     1       6.267   3.832  14.350  0.00  0.00    +0.000 A 
ATOM     12  C   UNL     1       6.192   3.589  12.963  0.00  0.00    +0.000 A 
ATOM     13  C   UNL     1       6.881   4.388  12.052  0.00  0.00    +0.000 A 
ATOM     14  C   UNL     1       7.663   5.435  12.519  0.00  0.00    +0.000 A 
ATOM     15  F   UNL     1       8.330   6.199  11.648  0.00  0.00    +0.000 F 
ATOM     16  C   UNL     1       7.764   5.699  13.877  0.00  0.00    +0.000 A 
ATOM     17  C   UNL     1       7.059   4.912  14.801  0.00  0.00    +0.000 A 
ENDBRANCH   7  17
ENDBRANCH   1   7
BRANCH   5  18
ATOM     18  O   UNL     1       3.927   2.302  18.348  0.00  0.00    +0.000 OA
ATOM     19  H   UNL     1       4.191   1.722  19.085  0.00  0.00    +0.000 HD
ENDBRANCH   5  18
BRANCH   4  20
ATOM     20  C   UNL     1       1.907   4.535  19.277  0.00  0.00    +0.000 C 
BRANCH  20  21
ATOM     21  N   UNL     1       1.658   3.238  19.939  0.00  0.00    +0.000 NA
ATOM     22  C   UNL     1       1.399   3.391  21.373  0.00  0.00    +0.000 C 
ATOM     23  C   UNL     1       0.504   2.577  19.314  0.00  0.00    +0.000 C 
ENDBRANCH  20  21
ENDBRANCH   4  20
TORSDOF 5
ENDMDL
MODEL 6
REMARK VINA RESULT:      -6.2      3.562      7.131
REMARK  Name = 
REMARK  8 active torsions:
REMARK  status: ('A' for Active; 'I' for Inactive)
REMARK    1  A    between atoms: C_1  and  C_2
REMARK    2  A    between atoms: C_8  and  S_9
REMARK    3  A    between atoms: S_9  and  N_12
REMARK    4  A    between atoms: C_15  and  C_16
REMARK    5  A    between atoms: C_16  and  N_17
REMARK    6  A    between atoms: N_17  and  C_18
REMARK    7  A    between atoms: N_17  and  C_19
REMARK    8  A    between atoms: C_20  and  O_21
REMARK                            x       y       z     vdW  Elec       q    Type
REMARK                         _______ _______ _______ _____ _____    ______ ____
ROOT
ATOM      1  N   UNL     1       6.230   4.971  16.363  0.00  0.00    +0.000 NA
ATOM      2  C   UNL     1       4.980   4.640  15.670  0.00  0.00    +0.000 C 
ATOM      3  C   UNL     1       5.208   3.717  14.486  0.00  0.00    +0.000 C 
ATOM      4  C   UNL     1       6.193   4.354  13.511  0.00  0.00    +0.000 C 
ATOM      5  C   UNL     1       7.549   4.600  14.194  0.00  0.00    +0.000 C 
ATOM      6  C   UNL     1       7.545   4.762  15.729  0.00  0.00    +0.000 C 
ENDROOT
BRANCH   1   7
ATOM      7  S   UNL     1       6.168   5.380  18.007  0.00  0.00    +0.000 S 
ATOM      8  O   UNL     1       6.384   6.812  18.074  0.00  0.00    +0.000 OA
ATOM      9  O   UNL     1       7.008   4.459  18.746  0.00  0.00    +0.000 OA
BRANCH   7  17
ATOM     10  C   UNL     1       3.517   7.280  17.691  0.00  0.00    +0.000 C 
ATOM     11  C   UNL     1       3.392   5.900  18.278  0.00  0.00    +0.000 A 
ATOM     12  C   UNL     1       2.108   5.493  18.694  0.00  0.00    +0.000 A 
ATOM     13  C   UNL     1       1.904   4.251  19.294  0.00  0.00    +0.000 A 
ATOM     14  C   UNL     1       2.985   3.405  19.494  0.00  0.00    +0.000 A 
ATOM     15  F   UNL     1       2.793   2.216  20.075  0.00  0.00    +0.000 F 
ATOM     16  C   UNL     1       4.263   3.776  19.102  0.00  0.00    +0.000 A 
ATOM     17  C   UNL     1       4.476   5.016  18.480  0.00  0.00    +0.000 A 
ENDBRANCH   7  17
ENDBRANCH   1   7
BRANCH   5  18
ATOM     18  O   UNL     1       8.151   5.746  13.571  0.00  0.00    +0.000 OA
ATOM     19  H   UNL     1       8.160   5.590  12.609  0.00  0.00    +0.000 HD
ENDBRANCH   5  18
BRANCH   4  20
ATOM     20  C   UNL     1       6.399   3.488  12.242  0.00  0.00    +0.000 C 
BRANCH  20  21
ATOM     21  N   UNL     1       5.331   2.504  11.970  0.00  0.00    +0.000 NA
ATOM     22  C   UNL     1       4.230   3.084  11.197  0.00  0.00    +0.000 C 
ATOM     23  C   UNL     1       5.886   1.364  11.228  0.00  0.00    +0.000 C 
ENDBRANCH  20  21
ENDBRANCH   4  20
TORSDOF 5
ENDMDL
MODEL 7
REMARK VINA RESULT:      -6.1      3.400      6.994
REMARK  Name = 
REMARK  8 active torsions:
REMARK  status: ('A' for Active; 'I' for Inactive)
REMARK    1  A    between atoms: C_1  and  C_2
REMARK    2  A    between atoms: C_8  and  S_9
REMARK    3  A    between atoms: S_9  and  N_12
REMARK    4  A    between atoms: C_15  and  C_16
REMARK    5  A    between atoms: C_16  and  N_17
REMARK    6  A    between atoms: N_17  and  C_18
REMARK    7  A    between atoms: N_17  and  C_19
REMARK    8  A    between atoms: C_20  and  O_21
REMARK                            x       y       z     vdW  Elec       q    Type
REMARK                         _______ _______ _______ _____ _____    ______ ____
ROOT
ATOM      1  N   UNL     1       5.778   4.359  17.029  0.00  0.00    +0.000 NA
ATOM      2  C   UNL     1       4.625   3.971  16.210  0.00  0.00    +0.000 C 
ATOM      3  C   UNL     1       5.041   3.276  14.926  0.00  0.00    +0.000 C 
ATOM      4  C   UNL     1       5.972   4.178  14.123  0.00  0.00    +0.000 C 
ATOM      5  C   UNL     1       7.243   4.499  14.928  0.00  0.00    +0.000 C 
ATOM      6  C   UNL     1       7.140   4.426  16.466  0.00  0.00    +0.000 C 
ENDROOT
BRANCH   1   7
ATOM      7  S   UNL     1       5.576   4.504  18.706  0.00  0.00    +0.000 S 
ATOM      8  O   UNL     1       6.775   5.153  19.201  0.00  0.00    +0.000 OA
ATOM      9  O   UNL     1       5.141   3.227  19.234  0.00  0.00    +0.000 OA
BRANCH   7  17
ATOM     10  C   UNL     1       5.013   7.304  17.098  0.00  0.00    +0.000 C 
ATOM     11  C   UNL     1       4.023   6.804  18.116  0.00  0.00    +0.000 A 
ATOM     12  C   UNL     1       2.882   7.601  18.348  0.00  0.00    +0.000 A 
ATOM     13  C   UNL     1       1.935   7.244  19.307  0.00  0.00    +0.000 A 
ATOM     14  C   UNL     1       2.124   6.089  20.053  0.00  0.00    +0.000 A 
ATOM     15  F   UNL     1       1.220   5.747  20.977  0.00  0.00    +0.000 F 
ATOM     16  C   UNL     1       3.236   5.285  19.855  0.00  0.00    +0.000 A 
ATOM     17  C   UNL     1       4.186   5.626  18.878  0.00  0.00    +0.000 A 
ENDBRANCH   7  17
ENDBRANCH   1   7
BRANCH   5  18
ATOM     18  O   UNL     1       7.706   5.794  14.518  0.00  0.00    +0.000 OA
ATOM     19  H   UNL     1       7.852   5.767  13.555  0.00  0.00    +0.000 HD
ENDBRANCH   5  18
BRANCH   4  20
ATOM     20  C   UNL     1       6.363   3.548  12.762  0.00  0.00    +0.000 C 
BRANCH  20  21
ATOM     21  N   UNL     1       5.361   2.631  12.181  0.00  0.00    +0.000 NA
ATOM     22  C   UNL     1       4.370   3.341  11.367  0.00  0.00    +0.000 C 
ATOM     23  C   UNL     1       6.034   1.628  11.344  0.00  0.00    +0.000 C 
ENDBRANCH  20  21
ENDBRANCH   4  20
TORSDOF 5
ENDMDL
MODEL 8
REMARK VINA RESULT:      -6.1      3.754      4.703
REMARK  Name = 
REMARK  8 active torsions:
REMARK  status: ('A' for Active; 'I' for Inactive)
REMARK    1  A    between atoms: C_1  and  C_2
REMARK    2  A    between atoms: C_8  and  S_9
REMARK    3  A    between atoms: S_9  and  N_12
REMARK    4  A    between atoms: C_15  and  C_16
REMARK    5  A    between atoms: C_16  and  N_17
REMARK    6  A    between atoms: N_17  and  C_18
REMARK    7  A    between atoms: N_17  and  C_19
REMARK    8  A    between atoms: C_20  and  O_21
REMARK                            x       y       z     vdW  Elec       q    Type
REMARK                         _______ _______ _______ _____ _____    ______ ____
ROOT
ATOM      1  N   UNL     1       2.550   7.332  18.926  0.00  0.00    +0.000 NA
ATOM      2  C   UNL     1       2.109   7.644  20.289  0.00  0.00    +0.000 C 
ATOM      3  C   UNL     1       0.809   8.430  20.306  0.00  0.00    +0.000 C 
ATOM      4  C   UNL     1       0.967   9.715  19.499  0.00  0.00    +0.000 C 
ATOM      5  C   UNL     1       1.317   9.398  18.036  0.00  0.00    +0.000 C 
ATOM      6  C   UNL     1       2.012   8.049  17.755  0.00  0.00    +0.000 C 
ENDROOT
BRANCH   1   7
ATOM      7  S   UNL     1       3.520   5.964  18.676  0.00  0.00    +0.000 S 
ATOM      8  O   UNL     1       4.694   6.145  19.506  0.00  0.00    +0.000 OA
ATOM      9  O   UNL     1       3.637   5.732  17.250  0.00  0.00    +0.000 OA
BRANCH   7  17
ATOM     10  C   UNL     1       1.123   4.288  17.195  0.00  0.00    +0.000 C 
ATOM     11  C   UNL     1       1.537   3.936  18.599  0.00  0.00    +0.000 A 
ATOM     12  C   UNL     1       0.836   2.887  19.231  0.00  0.00    +0.000 A 
ATOM     13  C   UNL     1       1.116   2.523  20.547  0.00  0.00    +0.000 A 
ATOM     14  C   UNL     1       2.094   3.211  21.251  0.00  0.00    +0.000 A 
ATOM     15  F   UNL     1       2.360   2.867  22.515  0.00  0.00    +0.000 F 
ATOM     16  C   UNL     1       2.799   4.250  20.662  0.00  0.00    +0.000 A 
ATOM     17  C   UNL     1       2.538   4.612  19.331  0.00  0.00    +0.000 A 
ENDBRANCH   7  17
ENDBRANCH   1   7
BRANCH   5  18
ATOM     18  O   UNL     1       2.107  10.484  17.529  0.00  0.00    +0.000 OA
ATOM     19  H   UNL     1       3.045  10.247  17.643  0.00  0.00    +0.000 HD
ENDBRANCH   5  18
BRANCH   4  20
ATOM     20  C   UNL     1      -0.308  10.595  19.551  0.00  0.00    +0.000 C 
BRANCH  20  21
ATOM     21  N   UNL     1      -0.916  10.902  18.241  0.00  0.00    +0.000 NA
ATOM     22  C   UNL     1      -2.187  10.199  18.045  0.00  0.00    +0.000 C 
ATOM     23  C   UNL     1      -1.150  12.348  18.129  0.00  0.00    +0.000 C 
ENDBRANCH  20  21
ENDBRANCH   4  20
TORSDOF 5
ENDMDL
MODEL 9
REMARK VINA RESULT:      -6.1      1.223      1.674
REMARK  Name = 
REMARK  8 active torsions:
REMARK  status: ('A' for Active; 'I' for Inactive)
REMARK    1  A    between atoms: C_1  and  C_2
REMARK    2  A    between atoms: C_8  and  S_9
REMARK    3  A    between atoms: S_9  and  N_12
REMARK    4  A    between atoms: C_15  and  C_16
REMARK    5  A    between atoms: C_16  and  N_17
REMARK    6  A    between atoms: N_17  and  C_18
REMARK    7  A    between atoms: N_17  and  C_19
REMARK    8  A    between atoms: C_20  and  O_21
REMARK                            x       y       z     vdW  Elec       q    Type
REMARK                         _______ _______ _______ _____ _____    ______ ____
ROOT
ATOM      1  N   UNL     1       3.628   5.169  18.608  0.00  0.00    +0.000 NA
ATOM      2  C   UNL     1       3.315   6.059  17.485  0.00  0.00    +0.000 C 
ATOM      3  C   UNL     1       3.074   7.489  17.937  0.00  0.00    +0.000 C 
ATOM      4  C   UNL     1       1.948   7.528  18.966  0.00  0.00    +0.000 C 
ATOM      5  C   UNL     1       2.313   6.690  20.202  0.00  0.00    +0.000 C 
ATOM      6  C   UNL     1       3.332   5.548  20.002  0.00  0.00    +0.000 C 
ENDROOT
BRANCH   1   7
ATOM      7  S   UNL     1       4.558   3.782  18.315  0.00  0.00    +0.000 S 
ATOM      8  O   UNL     1       3.631   2.765  17.858  0.00  0.00    +0.000 OA
ATOM      9  O   UNL     1       5.422   3.553  19.455  0.00  0.00    +0.000 OA
BRANCH   7  17
ATOM     10  C   UNL     1       7.024   5.940  18.327  0.00  0.00    +0.000 C 
ATOM     11  C   UNL     1       6.684   5.188  17.069  0.00  0.00    +0.000 A 
ATOM     12  C   UNL     1       7.452   5.476  15.921  0.00  0.00    +0.000 A 
ATOM     13  C   UNL     1       7.179   4.864  14.698  0.00  0.00    +0.000 A 
ATOM     14  C   UNL     1       6.127   3.965  14.606  0.00  0.00    +0.000 A 
ATOM     15  F   UNL     1       5.859   3.382  13.434  0.00  0.00    +0.000 F 
ATOM     16  C   UNL     1       5.348   3.663  15.714  0.00  0.00    +0.000 A 
ATOM     17  C   UNL     1       5.627   4.258  16.954  0.00  0.00    +0.000 A 
ENDBRANCH   7  17
ENDBRANCH   1   7
BRANCH   5  18
ATOM     18  O   UNL     1       1.093   6.180  20.761  0.00  0.00    +0.000 OA
ATOM     19  H   UNL     1       0.354   6.667  20.354  0.00  0.00    +0.000 HD
ENDBRANCH   5  18
BRANCH   4  20
ATOM     20  C   UNL     1       1.607   8.976  19.401  0.00  0.00    +0.000 C 
BRANCH  20  21
ATOM     21  N   UNL     1       1.104   9.856  18.325  0.00  0.00    +0.000 NA
ATOM     22  C   UNL     1      -0.303  10.215  18.519  0.00  0.00    +0.000 C 
ATOM     23  C   UNL     1       1.907  11.085  18.275  0.00  0.00    +0.000 C 
ENDBRANCH  20  21
ENDBRANCH   4  20
TORSDOF 5
ENDMDL
