MODEL 1
REMARK VINA RESULT:      -8.0      0.000      0.000
REMARK  Name = 
REMARK  2 active torsions:
REMARK  status: ('A' for Active; 'I' for Inactive)
REMARK    1  A    between atoms: C_4  and  C_5
REMARK    2  A    between atoms: C_7  and  N_8
REMARK                            x       y       z     vdW  Elec       q    Type
REMARK                         _______ _______ _______ _____ _____    ______ ____
ROOT
ATOM      1  O   UNL     1       3.678   0.520  19.232  0.00  0.00    +0.000 OA
ATOM      2  C   UNL     1       3.580   1.735  19.100  0.00  0.00    +0.000 C 
ATOM      3  C   UNL     1       3.777   2.442  17.777  0.00  0.00    +0.000 C 
ATOM      4  C   UNL     1       4.711   3.612  18.127  0.00  0.00    +0.000 C 
ATOM      5  C   UNL     1       3.810   4.594  18.891  0.00  0.00    +0.000 A 
ATOM      6  C   UNL     1       3.103   3.963  19.953  0.00  0.00    +0.000 A 
ATOM      7  C   UNL     1       2.172   4.646  20.718  0.00  0.00    +0.000 A 
ATOM      8  C   UNL     1       1.796   5.923  20.316  0.00  0.00    +0.000 A 
ATOM      9  C   UNL     1       2.423   6.568  19.235  0.00  0.00    +0.000 A 
ATOM     10  C   UNL     1       1.947   7.819  18.799  0.00  0.00    +0.000 A 
ATOM     11  C   UNL     1       2.571   8.515  17.766  0.00  0.00    +0.000 A 
ATOM     12  C   UNL     1       3.725   8.004  17.207  0.00  0.00    +0.000 A 
ATOM     13  C   UNL     1       4.193   6.755  17.618  0.00  0.00    +0.000 A 
ATOM     14  C   UNL     1       3.516   5.954  18.571  0.00  0.00    +0.000 A 
ATOM     15  N   UNL     1       3.249   2.576  20.144  0.00  0.00    +0.000 N 
ATOM     16  H   UNL     1       2.981   2.135  21.014  0.00  0.00    +0.000 HD
ENDROOT
BRANCH   4  17
ATOM     17  C   UNL     1       5.611   4.098  16.999  0.00  0.00    +0.000 A 
ATOM     18  C   UNL     1       5.357   3.743  15.664  0.00  0.00    +0.000 A 
ATOM     19  C   UNL     1       6.153   4.269  14.643  0.00  0.00    +0.000 A 
ATOM     20  C   UNL     1       7.227   5.122  14.931  0.00  0.00    +0.000 A 
ATOM     21  C   UNL     1       7.504   5.445  16.262  0.00  0.00    +0.000 A 
ATOM     22  C   UNL     1       6.706   4.951  17.284  0.00  0.00    +0.000 A 
ATOM     23 CL   UNL     1       7.077   5.500  18.886  0.00  0.00    +0.000 Cl
BRANCH  19  24
ATOM     24  N   UNL     1       5.841   3.959  13.242  0.00  0.00    +0.000 N 
ATOM     25  O   UNL     1       6.770   3.995  12.424  0.00  0.00    +0.000 OA
ATOM     26  O   UNL     1       4.668   3.670  12.964  0.00  0.00    +0.000 OA
ENDBRANCH  19  24
ENDBRANCH   4  17
TORSDOF 2
ENDMDL
MODEL 2
REMARK VINA RESULT:      -7.5      8.692     11.946
REMARK  Name = 
REMARK  2 active torsions:
REMARK  status: ('A' for Active; 'I' for Inactive)
REMARK    1  A    between atoms: C_4  and  C_5
REMARK    2  A    between atoms: C_7  and  N_8
REMARK                            x       y       z     vdW  Elec       q    Type
REMARK                         _______ _______ _______ _____ _____    ______ ____
ROOT
ATOM      1  O   UNL     1      -3.337  11.310  15.788  0.00  0.00    +0.000 OA
ATOM      2  C   UNL     1      -2.785  11.152  16.871  0.00  0.00    +0.000 C 
ATOM      3  C   UNL     1      -3.529  11.157  18.189  0.00  0.00    +0.000 C 
ATOM      4  C   UNL     1      -2.686  12.084  19.078  0.00  0.00    +0.000 C 
ATOM      5  C   UNL     1      -1.439  11.251  19.411  0.00  0.00    +0.000 A 
ATOM      6  C   UNL     1      -0.828  10.706  18.247  0.00  0.00    +0.000 A 
ATOM      7  C   UNL     1       0.262   9.855  18.324  0.00  0.00    +0.000 A 
ATOM      8  C   UNL     1       0.646   9.385  19.576  0.00  0.00    +0.000 A 
ATOM      9  C   UNL     1       0.033   9.849  20.754  0.00  0.00    +0.000 A 
ATOM     10  C   UNL     1       0.383   9.276  21.992  0.00  0.00    +0.000 A 
ATOM     11  C   UNL     1      -0.162   9.741  23.187  0.00  0.00    +0.000 A 
ATOM     12  C   UNL     1      -1.005  10.833  23.167  0.00  0.00    +0.000 A 
ATOM     13  C   UNL     1      -1.374  11.394  21.944  0.00  0.00    +0.000 A 
ATOM     14  C   UNL     1      -0.949  10.871  20.697  0.00  0.00    +0.000 A 
ATOM     15  N   UNL     1      -1.428  10.925  16.992  0.00  0.00    +0.000 N 
ATOM     16  H   UNL     1      -0.913  10.785  16.133  0.00  0.00    +0.000 HD
ENDROOT
BRANCH   4  17
ATOM     17  C   UNL     1      -3.447  12.818  20.175  0.00  0.00    +0.000 A 
ATOM     18  C   UNL     1      -4.677  12.336  20.650  0.00  0.00    +0.000 A 
ATOM     19  C   UNL     1      -5.314  12.986  21.711  0.00  0.00    +0.000 A 
ATOM     20  C   UNL     1      -4.760  14.135  22.290  0.00  0.00    +0.000 A 
ATOM     21  C   UNL     1      -3.554  14.637  21.793  0.00  0.00    +0.000 A 
ATOM     22  C   UNL     1      -2.899  13.987  20.757  0.00  0.00    +0.000 A 
ATOM     23 CL   UNL     1      -1.361  14.637  20.289  0.00  0.00    +0.000 Cl
BRANCH  19  24
ATOM     24  N   UNL     1      -6.562  12.439  22.258  0.00  0.00    +0.000 N 
ATOM     25  O   UNL     1      -6.613  12.229  23.477  0.00  0.00    +0.000 OA
ATOM     26  O   UNL     1      -7.493  12.229  21.468  0.00  0.00    +0.000 OA
ENDBRANCH  19  24
ENDBRANCH   4  17
TORSDOF 2
ENDMDL
MODEL 3
REMARK VINA RESULT:      -7.3      9.805     13.161
REMARK  Name = 
REMARK  2 active torsions:
REMARK  status: ('A' for Active; 'I' for Inactive)
REMARK    1  A    between atoms: C_4  and  C_5
REMARK    2  A    between atoms: C_7  and  N_8
REMARK                            x       y       z     vdW  Elec       q    Type
REMARK                         _______ _______ _______ _____ _____    ______ ____
ROOT
ATOM      1  O   UNL     1      -5.283  12.033  16.545  0.00  0.00    +0.000 OA
ATOM      2  C   UNL     1      -4.515  11.892  17.490  0.00  0.00    +0.000 C 
ATOM      3  C   UNL     1      -4.981  11.752  18.923  0.00  0.00    +0.000 C 
ATOM      4  C   UNL     1      -4.082  12.731  19.694  0.00  0.00    +0.000 C 
ATOM      5  C   UNL     1      -2.713  12.034  19.727  0.00  0.00    +0.000 A 
ATOM      6  C   UNL     1      -2.289  11.616  18.434  0.00  0.00    +0.000 A 
ATOM      7  C   UNL     1      -1.123  10.895  18.245  0.00  0.00    +0.000 A 
ATOM      8  C   UNL     1      -0.452  10.417  19.367  0.00  0.00    +0.000 A 
ATOM      9  C   UNL     1      -0.866  10.754  20.668  0.00  0.00    +0.000 A 
ATOM     10  C   UNL     1      -0.220  10.172  21.776  0.00  0.00    +0.000 A 
ATOM     11  C   UNL     1      -0.564  10.517  23.081  0.00  0.00    +0.000 A 
ATOM     12  C   UNL     1      -1.505  11.504  23.295  0.00  0.00    +0.000 A 
ATOM     13  C   UNL     1      -2.165  12.071  22.204  0.00  0.00    +0.000 A 
ATOM     14  C   UNL     1      -1.941  11.657  20.867  0.00  0.00    +0.000 A 
ATOM     15  N   UNL     1      -3.145  11.819  17.334  0.00  0.00    +0.000 N 
ATOM     16  H   UNL     1      -2.798  11.777  16.385  0.00  0.00    +0.000 HD
ENDROOT
BRANCH   4  17
ATOM     17  C   UNL     1      -4.684  13.321  20.962  0.00  0.00    +0.000 A 
ATOM     18  C   UNL     1      -5.738  12.678  21.632  0.00  0.00    +0.000 A 
ATOM     19  C   UNL     1      -6.217  13.202  22.836  0.00  0.00    +0.000 A 
ATOM     20  C   UNL     1      -5.686  14.383  23.371  0.00  0.00    +0.000 A 
ATOM     21  C   UNL     1      -4.663  15.044  22.686  0.00  0.00    +0.000 A 
ATOM     22  C   UNL     1      -4.160  14.521  21.504  0.00  0.00    +0.000 A 
ATOM     23 CL   UNL     1      -2.823  15.367  20.793  0.00  0.00    +0.000 Cl
BRANCH  19  24
ATOM     24  N   UNL     1      -7.267  12.490  23.575  0.00  0.00    +0.000 N 
ATOM     25  O   UNL     1      -7.478  11.307  23.276  0.00  0.00    +0.000 OA
ATOM     26  O   UNL     1      -7.871  13.112  24.459  0.00  0.00    +0.000 OA
ENDBRANCH  19  24
ENDBRANCH   4  17
TORSDOF 2
ENDMDL
MODEL 4
REMARK VINA RESULT:      -7.3      9.260     12.617
REMARK  Name = 
REMARK  2 active torsions:
REMARK  status: ('A' for Active; 'I' for Inactive)
REMARK    1  A    between atoms: C_4  and  C_5
REMARK    2  A    between atoms: C_7  and  N_8
REMARK                            x       y       z     vdW  Elec       q    Type
REMARK                         _______ _______ _______ _____ _____    ______ ____
ROOT
ATOM      1  O   UNL     1      -6.219  12.346  17.198  0.00  0.00    +0.000 OA
ATOM      2  C   UNL     1      -5.165  12.064  17.757  0.00  0.00    +0.000 C 
ATOM      3  C   UNL     1      -5.044  11.884  19.255  0.00  0.00    +0.000 C 
ATOM      4  C   UNL     1      -3.799  12.708  19.619  0.00  0.00    +0.000 C 
ATOM      5  C   UNL     1      -2.626  11.867  19.093  0.00  0.00    +0.000 A 
ATOM      6  C   UNL     1      -2.801  11.488  17.733  0.00  0.00    +0.000 A 
ATOM      7  C   UNL     1      -1.902  10.658  17.084  0.00  0.00    +0.000 A 
ATOM      8  C   UNL     1      -0.910  10.041  17.839  0.00  0.00    +0.000 A 
ATOM      9  C   UNL     1      -0.733  10.337  19.202  0.00  0.00    +0.000 A 
ATOM     10  C   UNL     1       0.218   9.619  19.952  0.00  0.00    +0.000 A 
ATOM     11  C   UNL     1       0.462   9.916  21.292  0.00  0.00    +0.000 A 
ATOM     12  C   UNL     1      -0.189  10.983  21.877  0.00  0.00    +0.000 A 
ATOM     13  C   UNL     1      -1.148  11.687  21.148  0.00  0.00    +0.000 A 
ATOM     14  C   UNL     1      -1.522  11.337  19.827  0.00  0.00    +0.000 A 
ATOM     15  N   UNL     1      -3.988  11.853  17.068  0.00  0.00    +0.000 N 
ATOM     16  H   UNL     1      -4.050  11.834  16.058  0.00  0.00    +0.000 HD
ENDROOT
BRANCH   4  17
ATOM     17  C   UNL     1      -3.776  13.279  21.031  0.00  0.00    +0.000 A 
ATOM     18  C   UNL     1      -4.501  12.674  22.070  0.00  0.00    +0.000 A 
ATOM     19  C   UNL     1      -4.398  13.173  23.371  0.00  0.00    +0.000 A 
ATOM     20  C   UNL     1      -3.606  14.294  23.653  0.00  0.00    +0.000 A 
ATOM     21  C   UNL     1      -2.913  14.920  22.613  0.00  0.00    +0.000 A 
ATOM     22  C   UNL     1      -2.986  14.419  21.322  0.00  0.00    +0.000 A 
ATOM     23 CL   UNL     1      -2.006  15.211  20.130  0.00  0.00    +0.000 Cl
BRANCH  19  24
ATOM     24  N   UNL     1      -5.096  12.495  24.470  0.00  0.00    +0.000 N 
ATOM     25  O   UNL     1      -4.478  12.333  25.531  0.00  0.00    +0.000 OA
ATOM     26  O   UNL     1      -6.265  12.133  24.273  0.00  0.00    +0.000 OA
ENDBRANCH  19  24
ENDBRANCH   4  17
TORSDOF 2
ENDMDL
MODEL 5
REMARK VINA RESULT:      -7.1     10.316     12.719
REMARK  Name = 
REMARK  2 active torsions:
REMARK  status: ('A' for Active; 'I' for Inactive)
REMARK    1  A    between atoms: C_4  and  C_5
REMARK    2  A    between atoms: C_7  and  N_8
REMARK                            x       y       z     vdW  Elec       q    Type
REMARK                         _______ _______ _______ _____ _____    ______ ____
ROOT
ATOM      1  O   UNL     1       8.465  18.507  18.354  0.00  0.00    +0.000 OA
ATOM      2  C   UNL     1       8.741  17.329  18.552  0.00  0.00    +0.000 C 
ATOM      3  C   UNL     1       7.902  16.418  19.422  0.00  0.00    +0.000 C 
ATOM      4  C   UNL     1       8.937  15.722  20.320  0.00  0.00    +0.000 C 
ATOM      5  C   UNL     1       9.636  14.725  19.383  0.00  0.00    +0.000 A 
ATOM      6  C   UNL     1      10.099  15.343  18.188  0.00  0.00    +0.000 A 
ATOM      7  C   UNL     1      10.685  14.613  17.167  0.00  0.00    +0.000 A 
ATOM      8  C   UNL     1      10.651  13.224  17.245  0.00  0.00    +0.000 A 
ATOM      9  C   UNL     1      10.150  12.564  18.381  0.00  0.00    +0.000 A 
ATOM     10  C   UNL     1      10.043  11.161  18.380  0.00  0.00    +0.000 A 
ATOM     11  C   UNL     1       9.600  10.464  19.503  0.00  0.00    +0.000 A 
ATOM     12  C   UNL     1       9.330  11.157  20.665  0.00  0.00    +0.000 A 
ATOM     13  C   UNL     1       9.413  12.550  20.670  0.00  0.00    +0.000 A 
ATOM     14  C   UNL     1       9.732  13.307  19.515  0.00  0.00    +0.000 A 
ATOM     15  N   UNL     1       9.831  16.709  17.975  0.00  0.00    +0.000 N 
ATOM     16  H   UNL     1      10.344  17.243  17.285  0.00  0.00    +0.000 HD
ENDROOT
BRANCH   4  17
ATOM     17  C   UNL     1       8.432  15.280  21.688  0.00  0.00    +0.000 A 
ATOM     18  C   UNL     1       7.161  14.704  21.840  0.00  0.00    +0.000 A 
ATOM     19  C   UNL     1       6.756  14.237  23.094  0.00  0.00    +0.000 A 
ATOM     20  C   UNL     1       7.588  14.364  24.214  0.00  0.00    +0.000 A 
ATOM     21  C   UNL     1       8.839  14.971  24.071  0.00  0.00    +0.000 A 
ATOM     22  C   UNL     1       9.263  15.416  22.828  0.00  0.00    +0.000 A 
ATOM     23 CL   UNL     1      10.872  16.058  22.745  0.00  0.00    +0.000 Cl
BRANCH  19  24
ATOM     24  N   UNL     1       5.458  13.567  23.239  0.00  0.00    +0.000 N 
ATOM     25  O   UNL     1       4.437  14.248  23.073  0.00  0.00    +0.000 OA
ATOM     26  O   UNL     1       5.461  12.358  23.509  0.00  0.00    +0.000 OA
ENDBRANCH  19  24
ENDBRANCH   4  17
TORSDOF 2
ENDMDL
MODEL 6
REMARK VINA RESULT:      -7.0      7.411      9.855
REMARK  Name = 
REMARK  2 active torsions:
REMARK  status: ('A' for Active; 'I' for Inactive)
REMARK    1  A    between atoms: C_4  and  C_5
REMARK    2  A    between atoms: C_7  and  N_8
REMARK                            x       y       z     vdW  Elec       q    Type
REMARK                         _______ _______ _______ _____ _____    ______ ____
ROOT
ATOM      1  O   UNL     1      -2.054  12.604  23.770  0.00  0.00    +0.000 OA
ATOM      2  C   UNL     1      -2.318  12.417  22.587  0.00  0.00    +0.000 C 
ATOM      3  C   UNL     1      -1.516  11.493  21.696  0.00  0.00    +0.000 C 
ATOM      4  C   UNL     1      -1.281  12.328  20.427  0.00  0.00    +0.000 C 
ATOM      5  C   UNL     1      -2.651  12.344  19.731  0.00  0.00    +0.000 A 
ATOM      6  C   UNL     1      -3.697  12.745  20.609  0.00  0.00    +0.000 A 
ATOM      7  C   UNL     1      -5.023  12.750  20.212  0.00  0.00    +0.000 A 
ATOM      8  C   UNL     1      -5.347  12.177  18.986  0.00  0.00    +0.000 A 
ATOM      9  C   UNL     1      -4.353  11.712  18.107  0.00  0.00    +0.000 A 
ATOM     10  C   UNL     1      -4.726  11.051  16.921  0.00  0.00    +0.000 A 
ATOM     11  C   UNL     1      -3.775  10.621  15.998  0.00  0.00    +0.000 A 
ATOM     12  C   UNL     1      -2.444  10.913  16.213  0.00  0.00    +0.000 A 
ATOM     13  C   UNL     1      -2.062  11.549  17.395  0.00  0.00    +0.000 A 
ATOM     14  C   UNL     1      -2.980  11.886  18.420  0.00  0.00    +0.000 A 
ATOM     15  N   UNL     1      -3.394  13.011  21.959  0.00  0.00    +0.000 N 
ATOM     16  H   UNL     1      -4.031  13.532  22.546  0.00  0.00    +0.000 HD
ENDROOT
BRANCH   4  17
ATOM     17  C   UNL     1      -0.016  11.998  19.646  0.00  0.00    +0.000 A 
ATOM     18  C   UNL     1       0.405  10.670  19.473  0.00  0.00    +0.000 A 
ATOM     19  C   UNL     1       1.526  10.393  18.685  0.00  0.00    +0.000 A 
ATOM     20  C   UNL     1       2.261  11.426  18.089  0.00  0.00    +0.000 A 
ATOM     21  C   UNL     1       1.865  12.751  18.291  0.00  0.00    +0.000 A 
ATOM     22  C   UNL     1       0.740  13.038  19.049  0.00  0.00    +0.000 A 
ATOM     23 CL   UNL     1       0.281  14.708  19.148  0.00  0.00    +0.000 Cl
BRANCH  19  24
ATOM     24  N   UNL     1       1.921   9.000  18.443  0.00  0.00    +0.000 N 
ATOM     25  O   UNL     1       2.265   8.692  17.294  0.00  0.00    +0.000 OA
ATOM     26  O   UNL     1       1.895   8.219  19.404  0.00  0.00    +0.000 OA
ENDBRANCH  19  24
ENDBRANCH   4  17
TORSDOF 2
ENDMDL
MODEL 7
REMARK VINA RESULT:      -6.9      6.784      9.259
REMARK  Name = 
REMARK  2 active torsions:
REMARK  status: ('A' for Active; 'I' for Inactive)
REMARK    1  A    between atoms: C_4  and  C_5
REMARK    2  A    between atoms: C_7  and  N_8
REMARK                            x       y       z     vdW  Elec       q    Type
REMARK                         _______ _______ _______ _____ _____    ______ ____
ROOT
ATOM      1  O   UNL     1      -1.183  12.548  23.731  0.00  0.00    +0.000 OA
ATOM      2  C   UNL     1      -1.548  12.293  22.589  0.00  0.00    +0.000 C 
ATOM      3  C   UNL     1      -1.018  11.120  21.793  0.00  0.00    +0.000 C 
ATOM      4  C   UNL     1      -0.680  11.733  20.425  0.00  0.00    +0.000 C 
ATOM      5  C   UNL     1      -2.051  11.976  19.775  0.00  0.00    +0.000 A 
ATOM      6  C   UNL     1      -2.933  12.695  20.629  0.00  0.00    +0.000 A 
ATOM      7  C   UNL     1      -4.247  12.950  20.275  0.00  0.00    +0.000 A 
ATOM      8  C   UNL     1      -4.757  12.329  19.138  0.00  0.00    +0.000 A 
ATOM      9  C   UNL     1      -3.939  11.559  18.293  0.00  0.00    +0.000 A 
ATOM     10  C   UNL     1      -4.514  10.869  17.209  0.00  0.00    +0.000 A 
ATOM     11  C   UNL     1      -3.733  10.137  16.316  0.00  0.00    +0.000 A 
ATOM     12  C   UNL     1      -2.360  10.148  16.453  0.00  0.00    +0.000 A 
ATOM     13  C   UNL     1      -1.782  10.812  17.536  0.00  0.00    +0.000 A 
ATOM     14  C   UNL     1      -2.546  11.458  18.540  0.00  0.00    +0.000 A 
ATOM     15  N   UNL     1      -2.504  13.037  21.926  0.00  0.00    +0.000 N 
ATOM     16  H   UNL     1      -2.978  13.749  22.465  0.00  0.00    +0.000 HD
ENDROOT
BRANCH   4  17
ATOM     17  C   UNL     1       0.437  11.045  19.651  0.00  0.00    +0.000 A 
ATOM     18  C   UNL     1       0.729   9.687  19.853  0.00  0.00    +0.000 A 
ATOM     19  C   UNL     1       1.706   9.063  19.072  0.00  0.00    +0.000 A 
ATOM     20  C   UNL     1       2.428   9.783  18.110  0.00  0.00    +0.000 A 
ATOM     21  C   UNL     1       2.164  11.144  17.934  0.00  0.00    +0.000 A 
ATOM     22  C   UNL     1       1.179  11.769  18.685  0.00  0.00    +0.000 A 
ATOM     23 CL   UNL     1       0.865  13.433  18.312  0.00  0.00    +0.000 Cl
BRANCH  19  24
ATOM     24  N   UNL     1       1.959   7.626  19.230  0.00  0.00    +0.000 N 
ATOM     25  O   UNL     1       2.336   6.995  18.234  0.00  0.00    +0.000 OA
ATOM     26  O   UNL     1       1.787   7.132  20.354  0.00  0.00    +0.000 OA
ENDBRANCH  19  24
ENDBRANCH   4  17
TORSDOF 2
ENDMDL
MODEL 8
REMARK VINA RESULT:      -6.8      2.037      3.794
REMARK  Name = 
REMARK  2 active torsions:
REMARK  status: ('A' for Active; 'I' for Inactive)
REMARK    1  A    between atoms: C_4  and  C_5
REMARK    2  A    between atoms: C_7  and  N_8
REMARK                            x       y       z     vdW  Elec       q    Type
REMARK                         _______ _______ _______ _____ _____    ______ ____
ROOT
ATOM      1  O   UNL     1       2.606   9.202  17.522  0.00  0.00    +0.000 OA
ATOM      2  C   UNL     1       2.755   8.065  17.954  0.00  0.00    +0.000 C 
ATOM      3  C   UNL     1       4.095   7.362  17.993  0.00  0.00    +0.000 C 
ATOM      4  C   UNL     1       3.793   5.973  17.409  0.00  0.00    +0.000 C 
ATOM      5  C   UNL     1       3.017   5.258  18.525  0.00  0.00    +0.000 A 
ATOM      6  C   UNL     1       1.923   6.032  19.003  0.00  0.00    +0.000 A 
ATOM      7  C   UNL     1       1.140   5.614  20.065  0.00  0.00    +0.000 A 
ATOM      8  C   UNL     1       1.551   4.499  20.790  0.00  0.00    +0.000 A 
ATOM      9  C   UNL     1       2.661   3.733  20.392  0.00  0.00    +0.000 A 
ATOM     10  C   UNL     1       3.102   2.672  21.206  0.00  0.00    +0.000 A 
ATOM     11  C   UNL     1       4.165   1.856  20.824  0.00  0.00    +0.000 A 
ATOM     12  C   UNL     1       4.752   2.044  19.589  0.00  0.00    +0.000 A 
ATOM     13  C   UNL     1       4.337   3.106  18.785  0.00  0.00    +0.000 A 
ATOM     14  C   UNL     1       3.350   4.039  19.190  0.00  0.00    +0.000 A 
ATOM     15  N   UNL     1       1.715   7.322  18.476  0.00  0.00    +0.000 N 
ATOM     16  H   UNL     1       0.830   7.798  18.589  0.00  0.00    +0.000 HD
ENDROOT
BRANCH   4  17
ATOM     17  C   UNL     1       4.957   5.286  16.707  0.00  0.00    +0.000 A 
ATOM     18  C   UNL     1       4.843   4.838  15.381  0.00  0.00    +0.000 A 
ATOM     19  C   UNL     1       5.952   4.282  14.738  0.00  0.00    +0.000 A 
ATOM     20  C   UNL     1       7.174   4.132  15.407  0.00  0.00    +0.000 A 
ATOM     21  C   UNL     1       7.278   4.543  16.739  0.00  0.00    +0.000 A 
ATOM     22  C   UNL     1       6.193   5.120  17.381  0.00  0.00    +0.000 A 
ATOM     23 CL   UNL     1       6.464   5.687  18.997  0.00  0.00    +0.000 Cl
BRANCH  19  24
ATOM     24  N   UNL     1       5.854   3.884  13.328  0.00  0.00    +0.000 N 
ATOM     25  O   UNL     1       6.901   3.839  12.668  0.00  0.00    +0.000 OA
ATOM     26  O   UNL     1       4.730   3.608  12.885  0.00  0.00    +0.000 OA
ENDBRANCH  19  24
ENDBRANCH   4  17
TORSDOF 2
ENDMDL
MODEL 9
REMARK VINA RESULT:      -6.6      8.677     11.244
REMARK  Name = 
REMARK  2 active torsions:
REMARK  status: ('A' for Active; 'I' for Inactive)
REMARK    1  A    between atoms: C_4  and  C_5
REMARK    2  A    between atoms: C_7  and  N_8
REMARK                            x       y       z     vdW  Elec       q    Type
REMARK                         _______ _______ _______ _____ _____    ______ ____
ROOT
ATOM      1  O   UNL     1      -4.655  13.887  23.822  0.00  0.00    +0.000 OA
ATOM      2  C   UNL     1      -4.444  13.430  22.704  0.00  0.00    +0.000 C 
ATOM      3  C   UNL     1      -3.363  12.411  22.416  0.00  0.00    +0.000 C 
ATOM      4  C   UNL     1      -2.657  12.973  21.172  0.00  0.00    +0.000 C 
ATOM      5  C   UNL     1      -3.654  12.722  20.031  0.00  0.00    +0.000 A 
ATOM      6  C   UNL     1      -4.956  13.209  20.336  0.00  0.00    +0.000 A 
ATOM      7  C   UNL     1      -6.028  13.014  19.481  0.00  0.00    +0.000 A 
ATOM      8  C   UNL     1      -5.857  12.167  18.390  0.00  0.00    +0.000 A 
ATOM      9  C   UNL     1      -4.602  11.614  18.079  0.00  0.00    +0.000 A 
ATOM     10  C   UNL     1      -4.493  10.685  17.027  0.00  0.00    +0.000 A 
ATOM     11  C   UNL     1      -3.261  10.152  16.653  0.00  0.00    +0.000 A 
ATOM     12  C   UNL     1      -2.114  10.598  17.277  0.00  0.00    +0.000 A 
ATOM     13  C   UNL     1      -2.214  11.502  18.335  0.00  0.00    +0.000 A 
ATOM     14  C   UNL     1      -3.455  11.969  18.835  0.00  0.00    +0.000 A 
ATOM     15  N   UNL     1      -5.195  13.781  21.600  0.00  0.00    +0.000 N 
ATOM     16  H   UNL     1      -6.008  14.358  21.769  0.00  0.00    +0.000 HD
ENDROOT
BRANCH   4  17
ATOM     17  C   UNL     1      -1.189  12.596  21.020  0.00  0.00    +0.000 A 
ATOM     18  C   UNL     1      -0.712  11.350  21.458  0.00  0.00    +0.000 A 
ATOM     19  C   UNL     1       0.623  11.001  21.233  0.00  0.00    +0.000 A 
ATOM     20  C   UNL     1       1.506  11.890  20.606  0.00  0.00    +0.000 A 
ATOM     21  C   UNL     1       1.040  13.144  20.203  0.00  0.00    +0.000 A 
ATOM     22  C   UNL     1      -0.288  13.494  20.396  0.00  0.00    +0.000 A 
ATOM     23 CL   UNL     1      -0.781  15.032  19.766  0.00  0.00    +0.000 Cl
BRANCH  19  24
ATOM     24  N   UNL     1       1.104   9.669  21.623  0.00  0.00    +0.000 N 
ATOM     25  O   UNL     1       1.089   8.778  20.764  0.00  0.00    +0.000 OA
ATOM     26  O   UNL     1       1.504   9.520  22.787  0.00  0.00    +0.000 OA
ENDBRANCH  19  24
ENDBRANCH   4  17
TORSDOF 2
ENDMDL
