MODEL 1
REMARK VINA RESULT:      -8.1      0.000      0.000
REMARK  Name = 
REMARK  7 active torsions:
REMARK  status: ('A' for Active; 'I' for Inactive)
REMARK    1  A    between atoms: C_1  and  C_2
REMARK    2  A    between atoms: C_6  and  C_7
REMARK    3  A    between atoms: C_12  and  N_13
REMARK    4  A    between atoms: N_13  and  C_14
REMARK    5  A    between atoms: C_14  and  C_15
REMARK    6  A    between atoms: C_14  and  C_25
REMARK    7  A    between atoms: C_18  and  C_19
REMARK                            x       y       z     vdW  Elec       q    Type
REMARK                         _______ _______ _______ _____ _____    ______ ____
ROOT
ATOM      1  C   UNL     1      -0.569  10.997  19.274  0.00  0.00    +0.000 C 
ENDROOT
BRANCH   1   2
ATOM      2  C   UNL     1       0.523   9.944  19.138  0.00  0.00    +0.000 A 
ATOM      3  C   UNL     1       0.753   9.006  20.160  0.00  0.00    +0.000 A 
ATOM      4  C   UNL     1       1.648   7.953  19.970  0.00  0.00    +0.000 A 
ATOM      5  C   UNL     1       2.342   7.817  18.760  0.00  0.00    +0.000 A 
ATOM      6  C   UNL     1       2.170   8.793  17.767  0.00  0.00    +0.000 A 
ATOM      7  C   UNL     1       1.271   9.838  17.947  0.00  0.00    +0.000 A 
BRANCH   5   8
ATOM      8  C   UNL     1       3.230   6.626  18.505  0.00  0.00    +0.000 C 
ATOM      9  F   UNL     1       3.774   6.096  19.637  0.00  0.00    +0.000 F 
ATOM     10  F   UNL     1       2.564   5.603  17.902  0.00  0.00    +0.000 F 
ATOM     11  F   UNL     1       4.280   6.918  17.689  0.00  0.00    +0.000 F 
ENDBRANCH   5   8
ENDBRANCH   1   2
BRANCH   1  12
ATOM     12  C   UNL     1      -1.635  10.834  18.195  0.00  0.00    +0.000 A 
ATOM     13  C   UNL     1      -1.587   9.830  17.223  0.00  0.00    +0.000 A 
ATOM     14  C   UNL     1      -2.607   9.707  16.285  0.00  0.00    +0.000 A 
ATOM     15  C   UNL     1      -3.652  10.612  16.339  0.00  0.00    +0.000 A 
ATOM     16  N   UNL     1      -3.728  11.619  17.233  0.00  0.00    +0.000 NA
ATOM     17  C   UNL     1      -2.715  11.718  18.133  0.00  0.00    +0.000 A 
ENDBRANCH   1  12
BRANCH   1  18
ATOM     18  N   UNL     1      -1.194  11.041  20.611  0.00  0.00    +0.000 NA
ATOM     19  H   UNL     1      -2.189  10.863  20.480  0.00  0.00    +0.000 HD
BRANCH  18  25
ATOM     20  C   UNL     1      -4.360  12.870  24.040  0.00  0.00    +0.000 C 
ATOM     21  O   UNL     1      -4.158  12.483  25.198  0.00  0.00    +0.000 OA
ATOM     22  N   UNL     1      -3.419  12.527  23.050  0.00  0.00    +0.000 N 
ATOM     23  C   UNL     1      -2.388  11.537  23.382  0.00  0.00    +0.000 C 
ATOM     24  C   UNL     1      -1.014  11.986  22.888  0.00  0.00    +0.000 C 
ATOM     25  C   UNL     1      -1.005  12.285  21.377  0.00  0.00    +0.000 C 
ATOM     26  C   UNL     1      -2.064  13.363  21.126  0.00  0.00    +0.000 C 
ATOM     27  C   UNL     1      -3.433  12.986  21.668  0.00  0.00    +0.000 C 
BRANCH  20  33
ATOM     28  C   UNL     1      -7.596  12.121  23.360  0.00  0.00    +0.000 C 
ATOM     29  C   UNL     1      -6.872  13.420  23.447  0.00  0.00    +0.000 A 
ATOM     30  N   UNL     1      -7.667  14.549  23.264  0.00  0.00    +0.000 NA
ATOM     31  C   UNL     1      -6.966  15.636  23.467  0.00  0.00    +0.000 A 
ATOM     32  S   UNL     1      -5.311  15.406  23.799  0.00  0.00    +0.000 S 
ATOM     33  C   UNL     1      -5.531  13.682  23.725  0.00  0.00    +0.000 A 
ENDBRANCH  20  33
ENDBRANCH  18  25
ENDBRANCH   1  18
TORSDOF 6
ENDMDL
MODEL 2
REMARK VINA RESULT:      -8.0      3.896      5.476
REMARK  Name = 
REMARK  7 active torsions:
REMARK  status: ('A' for Active; 'I' for Inactive)
REMARK    1  A    between atoms: C_1  and  C_2
REMARK    2  A    between atoms: C_6  and  C_7
REMARK    3  A    between atoms: C_12  and  N_13
REMARK    4  A    between atoms: N_13  and  C_14
REMARK    5  A    between atoms: C_14  and  C_15
REMARK    6  A    between atoms: C_14  and  C_25
REMARK    7  A    between atoms: C_18  and  C_19
REMARK                            x       y       z     vdW  Elec       q    Type
REMARK                         _______ _______ _______ _____ _____    ______ ____
ROOT
ATOM      1  C   UNL     1       0.167  11.155  19.066  0.00  0.00    +0.000 C 
ENDROOT
BRANCH   1   2
ATOM      2  C   UNL     1       0.989   9.873  19.115  0.00  0.00    +0.000 A 
ATOM      3  C   UNL     1       1.003   9.069  20.268  0.00  0.00    +0.000 A 
ATOM      4  C   UNL     1       1.632   7.824  20.258  0.00  0.00    +0.000 A 
ATOM      5  C   UNL     1       2.272   7.357  19.102  0.00  0.00    +0.000 A 
ATOM      6  C   UNL     1       2.324   8.191  17.974  0.00  0.00    +0.000 A 
ATOM      7  C   UNL     1       1.688   9.427  17.975  0.00  0.00    +0.000 A 
BRANCH   5   8
ATOM      8  C   UNL     1       2.864   5.972  19.047  0.00  0.00    +0.000 C 
ATOM      9  F   UNL     1       2.150   5.044  19.745  0.00  0.00    +0.000 F 
ATOM     10  F   UNL     1       2.947   5.495  17.774  0.00  0.00    +0.000 F 
ATOM     11  F   UNL     1       4.130   5.921  19.547  0.00  0.00    +0.000 F 
ENDBRANCH   5   8
ENDBRANCH   1   2
BRANCH   1  12
ATOM     12  C   UNL     1      -1.207  10.909  18.451  0.00  0.00    +0.000 A 
ATOM     13  C   UNL     1      -1.444   9.930  17.481  0.00  0.00    +0.000 A 
ATOM     14  C   UNL     1      -2.727   9.727  16.983  0.00  0.00    +0.000 A 
ATOM     15  C   UNL     1      -3.746  10.528  17.466  0.00  0.00    +0.000 A 
ATOM     16  N   UNL     1      -3.565  11.509  18.374  0.00  0.00    +0.000 NA
ATOM     17  C   UNL     1      -2.301  11.688  18.838  0.00  0.00    +0.000 A 
ENDBRANCH   1  12
BRANCH   1  18
ATOM     18  N   UNL     1       0.033  11.830  20.373  0.00  0.00    +0.000 NA
ATOM     19  H   UNL     1      -0.836  12.362  20.344  0.00  0.00    +0.000 HD
BRANCH  18  25
ATOM     20  C   UNL     1       0.237  16.785  19.644  0.00  0.00    +0.000 C 
ATOM     21  O   UNL     1      -0.230  17.469  20.563  0.00  0.00    +0.000 OA
ATOM     22  N   UNL     1       0.361  15.396  19.844  0.00  0.00    +0.000 N 
ATOM     23  C   UNL     1      -0.288  14.801  21.018  0.00  0.00    +0.000 C 
ATOM     24  C   UNL     1       0.641  13.812  21.719  0.00  0.00    +0.000 C 
ATOM     25  C   UNL     1       1.146  12.710  20.767  0.00  0.00    +0.000 C 
ATOM     26  C   UNL     1       1.856  13.411  19.605  0.00  0.00    +0.000 C 
ATOM     27  C   UNL     1       0.989  14.457  18.925  0.00  0.00    +0.000 C 
BRANCH  20  33
ATOM     28  C   UNL     1       3.200  16.884  17.998  0.00  0.00    +0.000 C 
ATOM     29  C   UNL     1       1.868  17.475  17.688  0.00  0.00    +0.000 A 
ATOM     30  N   UNL     1       1.798  18.161  16.478  0.00  0.00    +0.000 NA
ATOM     31  C   UNL     1       0.568  18.546  16.244  0.00  0.00    +0.000 A 
ATOM     32  S   UNL     1      -0.565  18.207  17.470  0.00  0.00    +0.000 S 
ATOM     33  C   UNL     1       0.672  17.414  18.401  0.00  0.00    +0.000 A 
ENDBRANCH  20  33
ENDBRANCH  18  25
ENDBRANCH   1  18
TORSDOF 6
ENDMDL
MODEL 3
REMARK VINA RESULT:      -7.9      4.465      6.744
REMARK  Name = 
REMARK  7 active torsions:
REMARK  status: ('A' for Active; 'I' for Inactive)
REMARK    1  A    between atoms: C_1  and  C_2
REMARK    2  A    between atoms: C_6  and  C_7
REMARK    3  A    between atoms: C_12  and  N_13
REMARK    4  A    between atoms: N_13  and  C_14
REMARK    5  A    between atoms: C_14  and  C_15
REMARK    6  A    between atoms: C_14  and  C_25
REMARK    7  A    between atoms: C_18  and  C_19
REMARK                            x       y       z     vdW  Elec       q    Type
REMARK                         _______ _______ _______ _____ _____    ______ ____
ROOT
ATOM      1  C   UNL     1       2.203   6.296  19.666  0.00  0.00    +0.000 C 
ENDROOT
BRANCH   1   2
ATOM      2  C   UNL     1       3.506   6.245  18.880  0.00  0.00    +0.000 A 
ATOM      3  C   UNL     1       4.589   5.467  19.327  0.00  0.00    +0.000 A 
ATOM      4  C   UNL     1       5.722   5.303  18.531  0.00  0.00    +0.000 A 
ATOM      5  C   UNL     1       5.807   5.919  17.275  0.00  0.00    +0.000 A 
ATOM      6  C   UNL     1       4.761   6.757  16.860  0.00  0.00    +0.000 A 
ATOM      7  C   UNL     1       3.623   6.914  17.645  0.00  0.00    +0.000 A 
BRANCH   5   8
ATOM      8  C   UNL     1       6.980   5.665  16.363  0.00  0.00    +0.000 C 
ATOM      9  F   UNL     1       6.634   5.524  15.052  0.00  0.00    +0.000 F 
ATOM     10  F   UNL     1       7.891   6.676  16.398  0.00  0.00    +0.000 F 
ATOM     11  F   UNL     1       7.666   4.535  16.691  0.00  0.00    +0.000 F 
ENDBRANCH   5   8
ENDBRANCH   1   2
BRANCH   1  12
ATOM     12  C   UNL     1       1.858   4.932  20.257  0.00  0.00    +0.000 A 
ATOM     13  C   UNL     1       1.057   3.996  19.595  0.00  0.00    +0.000 A 
ATOM     14  C   UNL     1       0.806   2.754  20.168  0.00  0.00    +0.000 A 
ATOM     15  C   UNL     1       1.358   2.485  21.407  0.00  0.00    +0.000 A 
ATOM     16  N   UNL     1       2.107   3.366  22.103  0.00  0.00    +0.000 NA
ATOM     17  C   UNL     1       2.331   4.573  21.521  0.00  0.00    +0.000 A 
ENDBRANCH   1  12
BRANCH   1  18
ATOM     18  N   UNL     1       2.179   7.333  20.718  0.00  0.00    +0.000 NA
ATOM     19  H   UNL     1       2.580   6.914  21.556  0.00  0.00    +0.000 HD
BRANCH  18  25
ATOM     20  C   UNL     1       0.793  12.067  19.831  0.00  0.00    +0.000 C 
ATOM     21  O   UNL     1       0.281  12.263  18.722  0.00  0.00    +0.000 OA
ATOM     22  N   UNL     1       1.061  10.739  20.215  0.00  0.00    +0.000 N 
ATOM     23  C   UNL     1       0.951   9.685  19.200  0.00  0.00    +0.000 C 
ATOM     24  C   UNL     1       0.209   8.467  19.748  0.00  0.00    +0.000 C 
ATOM     25  C   UNL     1       0.862   7.913  21.029  0.00  0.00    +0.000 C 
ATOM     26  C   UNL     1       0.886   9.055  22.050  0.00  0.00    +0.000 C 
ATOM     27  C   UNL     1       1.552  10.313  21.517  0.00  0.00    +0.000 C 
BRANCH  20  33
ATOM     28  C   UNL     1      -0.826  13.397  22.496  0.00  0.00    +0.000 C 
ATOM     29  C   UNL     1       0.453  13.761  21.826  0.00  0.00    +0.000 A 
ATOM     30  N   UNL     1       1.149  14.812  22.418  0.00  0.00    +0.000 NA
ATOM     31  C   UNL     1       2.305  14.983  21.826  0.00  0.00    +0.000 A 
ATOM     32  S   UNL     1       2.610  13.982  20.482  0.00  0.00    +0.000 S 
ATOM     33  C   UNL     1       1.081  13.187  20.721  0.00  0.00    +0.000 A 
ENDBRANCH  20  33
ENDBRANCH  18  25
ENDBRANCH   1  18
TORSDOF 6
ENDMDL
MODEL 4
REMARK VINA RESULT:      -7.9      3.851      5.534
REMARK  Name = 
REMARK  7 active torsions:
REMARK  status: ('A' for Active; 'I' for Inactive)
REMARK    1  A    between atoms: C_1  and  C_2
REMARK    2  A    between atoms: C_6  and  C_7
REMARK    3  A    between atoms: C_12  and  N_13
REMARK    4  A    between atoms: N_13  and  C_14
REMARK    5  A    between atoms: C_14  and  C_15
REMARK    6  A    between atoms: C_14  and  C_25
REMARK    7  A    between atoms: C_18  and  C_19
REMARK                            x       y       z     vdW  Elec       q    Type
REMARK                         _______ _______ _______ _____ _____    ______ ____
ROOT
ATOM      1  C   UNL     1       0.148  11.035  18.923  0.00  0.00    +0.000 C 
ENDROOT
BRANCH   1   2
ATOM      2  C   UNL     1       0.881   9.702  18.857  0.00  0.00    +0.000 A 
ATOM      3  C   UNL     1       1.498   9.276  17.667  0.00  0.00    +0.000 A 
ATOM      4  C   UNL     1       2.294   8.131  17.650  0.00  0.00    +0.000 A 
ATOM      5  C   UNL     1       2.484   7.377  18.817  0.00  0.00    +0.000 A 
ATOM      6  C   UNL     1       1.809   7.757  19.986  0.00  0.00    +0.000 A 
ATOM      7  C   UNL     1       1.024   8.905  20.011  0.00  0.00    +0.000 A 
BRANCH   5   8
ATOM      8  C   UNL     1       3.425   6.199  18.835  0.00  0.00    +0.000 C 
ATOM      9  F   UNL     1       4.633   6.454  18.257  0.00  0.00    +0.000 F 
ATOM     10  F   UNL     1       3.702   5.779  20.101  0.00  0.00    +0.000 F 
ATOM     11  F   UNL     1       2.922   5.114  18.184  0.00  0.00    +0.000 F 
ENDBRANCH   5   8
ENDBRANCH   1   2
BRANCH   1  12
ATOM     12  C   UNL     1      -1.288  10.903  18.425  0.00  0.00    +0.000 A 
ATOM     13  C   UNL     1      -1.680   9.955  17.475  0.00  0.00    +0.000 A 
ATOM     14  C   UNL     1      -3.012   9.858  17.085  0.00  0.00    +0.000 A 
ATOM     15  C   UNL     1      -3.922  10.731  17.653  0.00  0.00    +0.000 A 
ATOM     16  N   UNL     1      -3.589  11.687  18.546  0.00  0.00    +0.000 NA
ATOM     17  C   UNL     1      -2.281  11.762  18.904  0.00  0.00    +0.000 A 
ENDBRANCH   1  12
BRANCH   1  18
ATOM     18  N   UNL     1       0.172  11.665  20.259  0.00  0.00    +0.000 NA
ATOM     19  H   UNL     1      -0.680  12.218  20.342  0.00  0.00    +0.000 HD
BRANCH  18  25
ATOM     20  C   UNL     1       0.410  16.645  19.741  0.00  0.00    +0.000 C 
ATOM     21  O   UNL     1       0.069  17.292  20.739  0.00  0.00    +0.000 OA
ATOM     22  N   UNL     1       0.522  15.246  19.860  0.00  0.00    +0.000 N 
ATOM     23  C   UNL     1       0.001  14.607  21.074  0.00  0.00    +0.000 C 
ATOM     24  C   UNL     1       0.981  13.568  21.614  0.00  0.00    +0.000 C 
ATOM     25  C   UNL     1       1.345  12.504  20.560  0.00  0.00    +0.000 C 
ATOM     26  C   UNL     1       1.931  13.248  19.356  0.00  0.00    +0.000 C 
ATOM     27  C   UNL     1       1.016  14.342  18.832  0.00  0.00    +0.000 C 
BRANCH  20  33
ATOM     28  C   UNL     1       3.210  16.897  17.845  0.00  0.00    +0.000 C 
ATOM     29  C   UNL     1       1.838  17.450  17.672  0.00  0.00    +0.000 A 
ATOM     30  N   UNL     1       1.638  18.168  16.496  0.00  0.00    +0.000 NA
ATOM     31  C   UNL     1       0.380  18.517  16.384  0.00  0.00    +0.000 A 
ATOM     32  S   UNL     1      -0.628  18.103  17.693  0.00  0.00    +0.000 S 
ATOM     33  C   UNL     1       0.712  17.326  18.486  0.00  0.00    +0.000 A 
ENDBRANCH  20  33
ENDBRANCH  18  25
ENDBRANCH   1  18
TORSDOF 6
ENDMDL
MODEL 5
REMARK VINA RESULT:      -7.9      0.990      1.226
REMARK  Name = 
REMARK  7 active torsions:
REMARK  status: ('A' for Active; 'I' for Inactive)
REMARK    1  A    between atoms: C_1  and  C_2
REMARK    2  A    between atoms: C_6  and  C_7
REMARK    3  A    between atoms: C_12  and  N_13
REMARK    4  A    between atoms: N_13  and  C_14
REMARK    5  A    between atoms: C_14  and  C_15
REMARK    6  A    between atoms: C_14  and  C_25
REMARK    7  A    between atoms: C_18  and  C_19
REMARK                            x       y       z     vdW  Elec       q    Type
REMARK                         _______ _______ _______ _____ _____    ______ ____
ROOT
ATOM      1  C   UNL     1      -0.237  10.841  19.410  0.00  0.00    +0.000 C 
ENDROOT
BRANCH   1   2
ATOM      2  C   UNL     1       0.760   9.698  19.269  0.00  0.00    +0.000 A 
ATOM      3  C   UNL     1       1.045   8.850  20.354  0.00  0.00    +0.000 A 
ATOM      4  C   UNL     1       1.840   7.717  20.182  0.00  0.00    +0.000 A 
ATOM      5  C   UNL     1       2.380   7.410  18.925  0.00  0.00    +0.000 A 
ATOM      6  C   UNL     1       2.160   8.295  17.859  0.00  0.00    +0.000 A 
ATOM      7  C   UNL     1       1.358   9.419  18.023  0.00  0.00    +0.000 A 
BRANCH   5   8
ATOM      8  C   UNL     1       3.153   6.135  18.704  0.00  0.00    +0.000 C 
ATOM      9  F   UNL     1       3.139   5.704  17.410  0.00  0.00    +0.000 F 
ATOM     10  F   UNL     1       4.467   6.263  19.037  0.00  0.00    +0.000 F 
ATOM     11  F   UNL     1       2.679   5.097  19.447  0.00  0.00    +0.000 F 
ENDBRANCH   5   8
ENDBRANCH   1   2
BRANCH   1  12
ATOM     12  C   UNL     1      -1.369  10.718  18.394  0.00  0.00    +0.000 A 
ATOM     13  C   UNL     1      -2.269   9.648  18.383  0.00  0.00    +0.000 A 
ATOM     14  C   UNL     1      -3.304   9.608  17.454  0.00  0.00    +0.000 A 
ATOM     15  C   UNL     1      -3.402  10.645  16.544  0.00  0.00    +0.000 A 
ATOM     16  N   UNL     1      -2.538  11.680  16.489  0.00  0.00    +0.000 NA
ATOM     17  C   UNL     1      -1.535  11.690  17.405  0.00  0.00    +0.000 A 
ENDBRANCH   1  12
BRANCH   1  18
ATOM     18  N   UNL     1      -0.785  10.992  20.774  0.00  0.00    +0.000 NA
ATOM     19  H   UNL     1      -1.724  10.598  20.761  0.00  0.00    +0.000 HD
BRANCH  18  25
ATOM     20  C   UNL     1      -4.621  13.046  23.260  0.00  0.00    +0.000 C 
ATOM     21  O   UNL     1      -4.593  12.891  24.487  0.00  0.00    +0.000 OA
ATOM     22  N   UNL     1      -3.501  12.637  22.510  0.00  0.00    +0.000 N 
ATOM     23  C   UNL     1      -2.471  11.835  23.180  0.00  0.00    +0.000 C 
ATOM     24  C   UNL     1      -1.070  12.333  22.830  0.00  0.00    +0.000 C 
ATOM     25  C   UNL     1      -0.824  12.363  21.309  0.00  0.00    +0.000 C 
ATOM     26  C   UNL     1      -1.902  13.263  20.698  0.00  0.00    +0.000 C 
ATOM     27  C   UNL     1      -3.312  12.845  21.082  0.00  0.00    +0.000 C 
BRANCH  20  33
ATOM     28  C   UNL     1      -7.059  11.861  21.222  0.00  0.00    +0.000 C 
ATOM     29  C   UNL     1      -6.804  13.216  21.785  0.00  0.00    +0.000 A 
ATOM     30  N   UNL     1      -7.760  14.176  21.462  0.00  0.00    +0.000 NA
ATOM     31  C   UNL     1      -7.508  15.298  22.090  0.00  0.00    +0.000 A 
ATOM     32  S   UNL     1      -6.086  15.325  23.027  0.00  0.00    +0.000 S 
ATOM     33  C   UNL     1      -5.779  13.662  22.619  0.00  0.00    +0.000 A 
ENDBRANCH  20  33
ENDBRANCH  18  25
ENDBRANCH   1  18
TORSDOF 6
ENDMDL
MODEL 6
REMARK VINA RESULT:      -7.8      1.116      1.608
REMARK  Name = 
REMARK  7 active torsions:
REMARK  status: ('A' for Active; 'I' for Inactive)
REMARK    1  A    between atoms: C_1  and  C_2
REMARK    2  A    between atoms: C_6  and  C_7
REMARK    3  A    between atoms: C_12  and  N_13
REMARK    4  A    between atoms: N_13  and  C_14
REMARK    5  A    between atoms: C_14  and  C_15
REMARK    6  A    between atoms: C_14  and  C_25
REMARK    7  A    between atoms: C_18  and  C_19
REMARK                            x       y       z     vdW  Elec       q    Type
REMARK                         _______ _______ _______ _____ _____    ______ ____
ROOT
ATOM      1  C   UNL     1      -0.300  10.912  19.375  0.00  0.00    +0.000 C 
ENDROOT
BRANCH   1   2
ATOM      2  C   UNL     1       0.741   9.816  19.187  0.00  0.00    +0.000 A 
ATOM      3  C   UNL     1       1.033   8.911  20.223  0.00  0.00    +0.000 A 
ATOM      4  C   UNL     1       1.873   7.821  19.999  0.00  0.00    +0.000 A 
ATOM      5  C   UNL     1       2.451   7.613  18.739  0.00  0.00    +0.000 A 
ATOM      6  C   UNL     1       2.222   8.555  17.725  0.00  0.00    +0.000 A 
ATOM      7  C   UNL     1       1.376   9.638  17.940  0.00  0.00    +0.000 A 
BRANCH   5   8
ATOM      8  C   UNL     1       3.274   6.382  18.457  0.00  0.00    +0.000 C 
ATOM      9  F   UNL     1       2.554   5.348  17.939  0.00  0.00    +0.000 F 
ATOM     10  F   UNL     1       4.272   6.623  17.561  0.00  0.00    +0.000 F 
ATOM     11  F   UNL     1       3.885   5.890  19.570  0.00  0.00    +0.000 F 
ENDBRANCH   5   8
ENDBRANCH   1   2
BRANCH   1  12
ATOM     12  C   UNL     1      -1.451  10.758  18.385  0.00  0.00    +0.000 A 
ATOM     13  C   UNL     1      -1.746  11.712  17.407  0.00  0.00    +0.000 A 
ATOM     14  C   UNL     1      -2.787  11.501  16.508  0.00  0.00    +0.000 A 
ATOM     15  C   UNL     1      -3.519  10.334  16.624  0.00  0.00    +0.000 A 
ATOM     16  N   UNL     1      -3.299   9.399  17.572  0.00  0.00    +0.000 NA
ATOM     17  C   UNL     1      -2.280   9.635  18.439  0.00  0.00    +0.000 A 
ENDBRANCH   1  12
BRANCH   1  18
ATOM     18  N   UNL     1      -0.818  11.014  20.754  0.00  0.00    +0.000 NA
ATOM     19  H   UNL     1      -1.759  10.626  20.747  0.00  0.00    +0.000 HD
BRANCH  18  25
ATOM     20  C   UNL     1      -4.574  12.980  23.427  0.00  0.00    +0.000 C 
ATOM     21  O   UNL     1      -4.511  12.780  24.646  0.00  0.00    +0.000 OA
ATOM     22  N   UNL     1      -3.477  12.598  22.630  0.00  0.00    +0.000 N 
ATOM     23  C   UNL     1      -2.431  11.769  23.239  0.00  0.00    +0.000 C 
ATOM     24  C   UNL     1      -1.039  12.278  22.867  0.00  0.00    +0.000 C 
ATOM     25  C   UNL     1      -0.837  12.365  21.342  0.00  0.00    +0.000 C 
ATOM     26  C   UNL     1      -1.930  13.289  20.796  0.00  0.00    +0.000 C 
ATOM     27  C   UNL     1      -3.329  12.859  21.206  0.00  0.00    +0.000 C 
BRANCH  20  33
ATOM     28  C   UNL     1      -5.262  16.168  22.497  0.00  0.00    +0.000 C 
ATOM     29  C   UNL     1      -6.071  14.918  22.441  0.00  0.00    +0.000 A 
ATOM     30  N   UNL     1      -7.329  15.058  21.859  0.00  0.00    +0.000 NA
ATOM     31  C   UNL     1      -7.915  13.891  21.757  0.00  0.00    +0.000 A 
ATOM     32  S   UNL     1      -7.066  12.570  22.417  0.00  0.00    +0.000 S 
ATOM     33  C   UNL     1      -5.748  13.623  22.843  0.00  0.00    +0.000 A 
ENDBRANCH  20  33
ENDBRANCH  18  25
ENDBRANCH   1  18
TORSDOF 6
ENDMDL
MODEL 7
REMARK VINA RESULT:      -7.7      3.861      5.110
REMARK  Name = 
REMARK  7 active torsions:
REMARK  status: ('A' for Active; 'I' for Inactive)
REMARK    1  A    between atoms: C_1  and  C_2
REMARK    2  A    between atoms: C_6  and  C_7
REMARK    3  A    between atoms: C_12  and  N_13
REMARK    4  A    between atoms: N_13  and  C_14
REMARK    5  A    between atoms: C_14  and  C_15
REMARK    6  A    between atoms: C_14  and  C_25
REMARK    7  A    between atoms: C_18  and  C_19
REMARK                            x       y       z     vdW  Elec       q    Type
REMARK                         _______ _______ _______ _____ _____    ______ ____
ROOT
ATOM      1  C   UNL     1       0.854  10.847  18.828  0.00  0.00    +0.000 C 
ENDROOT
BRANCH   1   2
ATOM      2  C   UNL     1       1.304   9.405  19.015  0.00  0.00    +0.000 A 
ATOM      3  C   UNL     1       1.929   8.701  17.970  0.00  0.00    +0.000 A 
ATOM      4  C   UNL     1       2.474   7.437  18.191  0.00  0.00    +0.000 A 
ATOM      5  C   UNL     1       2.398   6.838  19.456  0.00  0.00    +0.000 A 
ATOM      6  C   UNL     1       1.709   7.505  20.480  0.00  0.00    +0.000 A 
ATOM      7  C   UNL     1       1.175   8.771  20.269  0.00  0.00    +0.000 A 
BRANCH   5   8
ATOM      8  C   UNL     1       3.074   5.520  19.733  0.00  0.00    +0.000 C 
ATOM      9  F   UNL     1       2.868   4.585  18.762  0.00  0.00    +0.000 F 
ATOM     10  F   UNL     1       4.425   5.645  19.845  0.00  0.00    +0.000 F 
ATOM     11  F   UNL     1       2.655   4.948  20.896  0.00  0.00    +0.000 F 
ENDBRANCH   5   8
ENDBRANCH   1   2
BRANCH   1  12
ATOM     12  C   UNL     1      -0.651  10.933  18.593  0.00  0.00    +0.000 A 
ATOM     13  C   UNL     1      -1.493  11.760  19.342  0.00  0.00    +0.000 A 
ATOM     14  C   UNL     1      -2.853  11.824  19.059  0.00  0.00    +0.000 A 
ATOM     15  C   UNL     1      -3.340  11.038  18.030  0.00  0.00    +0.000 A 
ATOM     16  N   UNL     1      -2.578  10.197  17.301  0.00  0.00    +0.000 NA
ATOM     17  C   UNL     1      -1.254  10.152  17.604  0.00  0.00    +0.000 A 
ENDBRANCH   1  12
BRANCH   1  18
ATOM     18  N   UNL     1       1.254  11.747  19.929  0.00  0.00    +0.000 NA
ATOM     19  H   UNL     1       0.398  12.135  20.321  0.00  0.00    +0.000 HD
BRANCH  18  25
ATOM     20  C   UNL     1       0.302  16.649  20.357  0.00  0.00    +0.000 C 
ATOM     21  O   UNL     1       0.610  17.149  21.446  0.00  0.00    +0.000 OA
ATOM     22  N   UNL     1       0.684  15.317  20.103  0.00  0.00    +0.000 N 
ATOM     23  C   UNL     1       1.204  14.518  21.219  0.00  0.00    +0.000 C 
ATOM     24  C   UNL     1       2.444  13.730  20.801  0.00  0.00    +0.000 C 
ATOM     25  C   UNL     1       2.182  12.835  19.575  0.00  0.00    +0.000 C 
ATOM     26  C   UNL     1       1.699  13.750  18.446  0.00  0.00    +0.000 C 
ATOM     27  C   UNL     1       0.509  14.607  18.845  0.00  0.00    +0.000 C 
BRANCH  20  33
ATOM     28  C   UNL     1       1.186  17.957  17.356  0.00  0.00    +0.000 C 
ATOM     29  C   UNL     1      -0.095  17.985  18.116  0.00  0.00    +0.000 A 
ATOM     30  N   UNL     1      -1.148  18.624  17.467  0.00  0.00    +0.000 NA
ATOM     31  C   UNL     1      -2.252  18.501  18.162  0.00  0.00    +0.000 A 
ATOM     32  S   UNL     1      -2.105  17.707  19.661  0.00  0.00    +0.000 S 
ATOM     33  C   UNL     1      -0.413  17.436  19.357  0.00  0.00    +0.000 A 
ENDBRANCH  20  33
ENDBRANCH  18  25
ENDBRANCH   1  18
TORSDOF 6
ENDMDL
MODEL 8
REMARK VINA RESULT:      -7.7      4.746      6.813
REMARK  Name = 
REMARK  7 active torsions:
REMARK  status: ('A' for Active; 'I' for Inactive)
REMARK    1  A    between atoms: C_1  and  C_2
REMARK    2  A    between atoms: C_6  and  C_7
REMARK    3  A    between atoms: C_12  and  N_13
REMARK    4  A    between atoms: N_13  and  C_14
REMARK    5  A    between atoms: C_14  and  C_15
REMARK    6  A    between atoms: C_14  and  C_25
REMARK    7  A    between atoms: C_18  and  C_19
REMARK                            x       y       z     vdW  Elec       q    Type
REMARK                         _______ _______ _______ _____ _____    ______ ____
ROOT
ATOM      1  C   UNL     1       2.154   6.282  19.676  0.00  0.00    +0.000 C 
ENDROOT
BRANCH   1   2
ATOM      2  C   UNL     1       3.499   6.273  18.962  0.00  0.00    +0.000 A 
ATOM      3  C   UNL     1       4.569   5.500  19.447  0.00  0.00    +0.000 A 
ATOM      4  C   UNL     1       5.747   5.375  18.711  0.00  0.00    +0.000 A 
ATOM      5  C   UNL     1       5.890   6.029  17.479  0.00  0.00    +0.000 A 
ATOM      6  C   UNL     1       4.855   6.862  17.030  0.00  0.00    +0.000 A 
ATOM      7  C   UNL     1       3.673   6.979  17.754  0.00  0.00    +0.000 A 
BRANCH   5   8
ATOM      8  C   UNL     1       7.116   5.818  16.627  0.00  0.00    +0.000 C 
ATOM      9  F   UNL     1       6.834   5.505  15.331  0.00  0.00    +0.000 F 
ATOM     10  F   UNL     1       7.907   6.925  16.577  0.00  0.00    +0.000 F 
ATOM     11  F   UNL     1       7.911   4.813  17.088  0.00  0.00    +0.000 F 
ENDBRANCH   5   8
ENDBRANCH   1   2
BRANCH   1  12
ATOM     12  C   UNL     1       1.842   4.920  20.288  0.00  0.00    +0.000 A 
ATOM     13  C   UNL     1       1.051   3.961  19.647  0.00  0.00    +0.000 A 
ATOM     14  C   UNL     1       0.830   2.721  20.238  0.00  0.00    +0.000 A 
ATOM     15  C   UNL     1       1.402   2.478  21.473  0.00  0.00    +0.000 A 
ATOM     16  N   UNL     1       2.143   3.381  22.149  0.00  0.00    +0.000 NA
ATOM     17  C   UNL     1       2.337   4.585  21.550  0.00  0.00    +0.000 A 
ENDBRANCH   1  12
BRANCH   1  18
ATOM     18  N   UNL     1       2.024   7.345  20.694  0.00  0.00    +0.000 NA
ATOM     19  H   UNL     1       2.354   6.953  21.575  0.00  0.00    +0.000 HD
BRANCH  18  25
ATOM     20  C   UNL     1       0.755  12.132  19.924  0.00  0.00    +0.000 C 
ATOM     21  O   UNL     1       0.386  12.397  18.773  0.00  0.00    +0.000 OA
ATOM     22  N   UNL     1       0.975  10.781  20.259  0.00  0.00    +0.000 N 
ATOM     23  C   UNL     1       0.994   9.790  19.177  0.00  0.00    +0.000 C 
ATOM     24  C   UNL     1       0.191   8.547  19.554  0.00  0.00    +0.000 C 
ATOM     25  C   UNL     1       0.678   7.914  20.871  0.00  0.00    +0.000 C 
ATOM     26  C   UNL     1       0.572   8.993  21.953  0.00  0.00    +0.000 C 
ATOM     27  C   UNL     1       1.298  10.276  21.585  0.00  0.00    +0.000 C 
BRANCH  20  33
ATOM     28  C   UNL     1       3.410  14.014  20.875  0.00  0.00    +0.000 C 
ATOM     29  C   UNL     1       1.991  13.996  21.325  0.00  0.00    +0.000 A 
ATOM     30  N   UNL     1       1.665  14.955  22.282  0.00  0.00    +0.000 NA
ATOM     31  C   UNL     1       0.380  14.931  22.531  0.00  0.00    +0.000 A 
ATOM     32  S   UNL     1      -0.514  13.724  21.726  0.00  0.00    +0.000 S 
ATOM     33  C   UNL     1       0.928  13.195  20.909  0.00  0.00    +0.000 A 
ENDBRANCH  20  33
ENDBRANCH  18  25
ENDBRANCH   1  18
TORSDOF 6
ENDMDL
MODEL 9
REMARK VINA RESULT:      -7.6      7.975     12.711
REMARK  Name = 
REMARK  7 active torsions:
REMARK  status: ('A' for Active; 'I' for Inactive)
REMARK    1  A    between atoms: C_1  and  C_2
REMARK    2  A    between atoms: C_6  and  C_7
REMARK    3  A    between atoms: C_12  and  N_13
REMARK    4  A    between atoms: N_13  and  C_14
REMARK    5  A    between atoms: C_14  and  C_15
REMARK    6  A    between atoms: C_14  and  C_25
REMARK    7  A    between atoms: C_18  and  C_19
REMARK                            x       y       z     vdW  Elec       q    Type
REMARK                         _______ _______ _______ _____ _____    ______ ____
ROOT
ATOM      1  C   UNL     1       3.754   5.880  18.580  0.00  0.00    +0.000 C 
ENDROOT
BRANCH   1   2
ATOM      2  C   UNL     1       2.893   7.122  18.767  0.00  0.00    +0.000 A 
ATOM      3  C   UNL     1       2.683   8.023  17.708  0.00  0.00    +0.000 A 
ATOM      4  C   UNL     1       1.777   9.074  17.838  0.00  0.00    +0.000 A 
ATOM      5  C   UNL     1       1.066   9.260  19.031  0.00  0.00    +0.000 A 
ATOM      6  C   UNL     1       1.329   8.409  20.115  0.00  0.00    +0.000 A 
ATOM      7  C   UNL     1       2.223   7.351  19.987  0.00  0.00    +0.000 A 
BRANCH   5   8
ATOM      8  C   UNL     1       0.009  10.328  19.147  0.00  0.00    +0.000 C 
ATOM      9  F   UNL     1      -0.632  10.336  20.350  0.00  0.00    +0.000 F 
ATOM     10  F   UNL     1       0.520  11.580  18.992  0.00  0.00    +0.000 F 
ATOM     11  F   UNL     1      -0.968  10.205  18.206  0.00  0.00    +0.000 F 
ENDBRANCH   5   8
ENDBRANCH   1   2
BRANCH   1  12
ATOM     12  C   UNL     1       2.953   4.607  18.834  0.00  0.00    +0.000 A 
ATOM     13  C   UNL     1       1.844   4.240  18.066  0.00  0.00    +0.000 A 
ATOM     14  C   UNL     1       1.174   3.047  18.322  0.00  0.00    +0.000 A 
ATOM     15  C   UNL     1       1.631   2.254  19.359  0.00  0.00    +0.000 A 
ATOM     16  N   UNL     1       2.673   2.579  20.151  0.00  0.00    +0.000 NA
ATOM     17  C   UNL     1       3.304   3.752  19.881  0.00  0.00    +0.000 A 
ENDBRANCH   1  12
BRANCH   1  18
ATOM     18  N   UNL     1       4.426   5.811  17.266  0.00  0.00    +0.000 NA
ATOM     19  H   UNL     1       3.734   5.481  16.596  0.00  0.00    +0.000 HD
BRANCH  18  25
ATOM     20  C   UNL     1       6.769   4.407  13.064  0.00  0.00    +0.000 C 
ATOM     21  O   UNL     1       7.654   5.180  12.675  0.00  0.00    +0.000 OA
ATOM     22  N   UNL     1       6.177   4.650  14.318  0.00  0.00    +0.000 N 
ATOM     23  C   UNL     1       6.458   5.927  14.985  0.00  0.00    +0.000 C 
ATOM     24  C   UNL     1       6.764   5.719  16.467  0.00  0.00    +0.000 C 
ATOM     25  C   UNL     1       5.633   4.969  17.197  0.00  0.00    +0.000 C 
ATOM     26  C   UNL     1       5.443   3.631  16.476  0.00  0.00    +0.000 C 
ATOM     27  C   UNL     1       5.209   3.790  14.983  0.00  0.00    +0.000 C 
BRANCH  20  33
ATOM     28  C   UNL     1       3.835   3.443  11.665  0.00  0.00    +0.000 C 
ATOM     29  C   UNL     1       5.193   2.831  11.650  0.00  0.00    +0.000 A 
ATOM     30  N   UNL     1       5.307   1.672  10.887  0.00  0.00    +0.000 NA
ATOM     31  C   UNL     1       6.554   1.275  10.847  0.00  0.00    +0.000 A 
ATOM     32  S   UNL     1       7.656   2.183  11.775  0.00  0.00    +0.000 S 
ATOM     33  C   UNL     1       6.376   3.262  12.249  0.00  0.00    +0.000 A 
ENDBRANCH  20  33
ENDBRANCH  18  25
ENDBRANCH   1  18
TORSDOF 6
ENDMDL
