MODEL 1
REMARK VINA RESULT:      -6.7      0.000      0.000
REMARK  Name = 
REMARK  7 active torsions:
REMARK  status: ('A' for Active; 'I' for Inactive)
REMARK    1  A    between atoms: C_2  and  C_3
REMARK    2  A    between atoms: C_3  and  N_4
REMARK    3  A    between atoms: C_8  and  C_9
REMARK    4  A    between atoms: C_11  and  C_12
REMARK    5  A    between atoms: N_13  and  C_14
REMARK    6  A    between atoms: C_14  and  C_15
REMARK    7  A    between atoms: C_16  and  C_17
REMARK                            x       y       z     vdW  Elec       q    Type
REMARK                         _______ _______ _______ _____ _____    ______ ____
ROOT
ATOM      1  N   UNL     1       0.966  10.354  19.488  0.00  0.00    +0.000 N 
ATOM      2  C   UNL     1       1.592   9.456  18.642  0.00  0.00    +0.000 C 
ATOM      3  O   UNL     1       1.935   9.670  17.485  0.00  0.00    +0.000 OA
ATOM      4  C   UNL     1       1.794   8.155  19.327  0.00  0.00    +0.000 C 
ATOM      5  C   UNL     1       2.316   7.093  18.695  0.00  0.00    +0.000 C 
ATOM      6  S   UNL     1       1.240   8.248  20.949  0.00  0.00    +0.000 S 
ATOM      7  C   UNL     1       0.644   9.892  20.748  0.00  0.00    +0.000 C 
ATOM      8  S   UNL     1      -0.197  10.677  21.958  0.00  0.00    +0.000 S 
ENDROOT
BRANCH   5   9
ATOM      9  C   UNL     1       2.563   5.808  19.250  0.00  0.00    +0.000 A 
ATOM     10  C   UNL     1       1.913   5.257  20.369  0.00  0.00    +0.000 A 
ATOM     11  C   UNL     1       2.463   4.015  20.605  0.00  0.00    +0.000 A 
ATOM     12  C   UNL     1       2.118   3.043  21.678  0.00  0.00    +0.000 C 
ATOM     13  N   UNL     1       3.432   3.795  19.640  0.00  0.00    +0.000 N 
ATOM     14  C   UNL     1       3.513   4.900  18.805  0.00  0.00    +0.000 A 
ATOM     15  C   UNL     1       4.452   5.037  17.656  0.00  0.00    +0.000 C 
BRANCH  13  16
ATOM     16  C   UNL     1       4.188   2.554  19.509  0.00  0.00    +0.000 C 
ATOM     17  C   UNL     1       3.560   1.559  18.546  0.00  0.00    +0.000 C 
ENDBRANCH  13  16
ENDBRANCH   5   9
BRANCH   1  18
ATOM     18  C   UNL     1       0.621  11.678  18.971  0.00  0.00    +0.000 C 
BRANCH  18  20
ATOM     19  C   UNL     1      -1.524  10.910  17.898  0.00  0.00    +0.000 C 
ATOM     20  C   UNL     1      -0.856  11.751  18.700  0.00  0.00    +0.000 C 
ENDBRANCH  18  20
ENDBRANCH   1  18
TORSDOF 4
ENDMDL
MODEL 2
REMARK VINA RESULT:      -6.6      0.688      1.225
REMARK  Name = 
REMARK  7 active torsions:
REMARK  status: ('A' for Active; 'I' for Inactive)
REMARK    1  A    between atoms: C_2  and  C_3
REMARK    2  A    between atoms: C_3  and  N_4
REMARK    3  A    between atoms: C_8  and  C_9
REMARK    4  A    between atoms: C_11  and  C_12
REMARK    5  A    between atoms: N_13  and  C_14
REMARK    6  A    between atoms: C_14  and  C_15
REMARK    7  A    between atoms: C_16  and  C_17
REMARK                            x       y       z     vdW  Elec       q    Type
REMARK                         _______ _______ _______ _____ _____    ______ ____
ROOT
ATOM      1  N   UNL     1       1.042  10.304  19.442  0.00  0.00    +0.000 N 
ATOM      2  C   UNL     1       1.651   9.383  18.607  0.00  0.00    +0.000 C 
ATOM      3  O   UNL     1       2.001   9.576  17.449  0.00  0.00    +0.000 OA
ATOM      4  C   UNL     1       1.822   8.085  19.307  0.00  0.00    +0.000 C 
ATOM      5  C   UNL     1       2.322   7.005  18.688  0.00  0.00    +0.000 C 
ATOM      6  S   UNL     1       1.266   8.208  20.926  0.00  0.00    +0.000 S 
ATOM      7  C   UNL     1       0.707   9.863  20.706  0.00  0.00    +0.000 C 
ATOM      8  S   UNL     1      -0.120  10.679  21.905  0.00  0.00    +0.000 S 
ENDROOT
BRANCH   5   9
ATOM      9  C   UNL     1       2.540   5.721  19.257  0.00  0.00    +0.000 A 
ATOM     10  C   UNL     1       1.806   5.157  20.318  0.00  0.00    +0.000 A 
ATOM     11  C   UNL     1       2.351   3.922  20.594  0.00  0.00    +0.000 A 
ATOM     12  C   UNL     1       1.932   2.940  21.633  0.00  0.00    +0.000 C 
ATOM     13  N   UNL     1       3.399   3.717  19.711  0.00  0.00    +0.000 N 
ATOM     14  C   UNL     1       3.534   4.826  18.890  0.00  0.00    +0.000 A 
ATOM     15  C   UNL     1       4.562   4.980  17.821  0.00  0.00    +0.000 C 
BRANCH  13  16
ATOM     16  C   UNL     1       4.179   2.487  19.639  0.00  0.00    +0.000 C 
ATOM     17  C   UNL     1       3.636   1.482  18.635  0.00  0.00    +0.000 C 
ENDBRANCH  13  16
ENDBRANCH   5   9
BRANCH   1  18
ATOM     18  C   UNL     1       0.728  11.628  18.909  0.00  0.00    +0.000 C 
BRANCH  18  20
ATOM     19  C   UNL     1       1.695  13.910  19.353  0.00  0.00    +0.000 C 
ATOM     20  C   UNL     1       1.844  12.585  19.226  0.00  0.00    +0.000 C 
ENDBRANCH  18  20
ENDBRANCH   1  18
TORSDOF 4
ENDMDL
MODEL 3
REMARK VINA RESULT:      -6.6      1.483      2.294
REMARK  Name = 
REMARK  7 active torsions:
REMARK  status: ('A' for Active; 'I' for Inactive)
REMARK    1  A    between atoms: C_2  and  C_3
REMARK    2  A    between atoms: C_3  and  N_4
REMARK    3  A    between atoms: C_8  and  C_9
REMARK    4  A    between atoms: C_11  and  C_12
REMARK    5  A    between atoms: N_13  and  C_14
REMARK    6  A    between atoms: C_14  and  C_15
REMARK    7  A    between atoms: C_16  and  C_17
REMARK                            x       y       z     vdW  Elec       q    Type
REMARK                         _______ _______ _______ _____ _____    ______ ____
ROOT
ATOM      1  N   UNL     1       0.724   9.837  19.569  0.00  0.00    +0.000 N 
ATOM      2  C   UNL     1       1.474   9.521  18.449  0.00  0.00    +0.000 C 
ATOM      3  O   UNL     1       1.540  10.175  17.414  0.00  0.00    +0.000 OA
ATOM      4  C   UNL     1       2.202   8.244  18.657  0.00  0.00    +0.000 C 
ATOM      5  C   UNL     1       2.942   7.683  17.690  0.00  0.00    +0.000 C 
ATOM      6  S   UNL     1       1.909   7.648  20.240  0.00  0.00    +0.000 S 
ATOM      7  C   UNL     1       0.776   8.941  20.618  0.00  0.00    +0.000 C 
ATOM      8  S   UNL     1      -0.079   8.971  22.052  0.00  0.00    +0.000 S 
ENDROOT
BRANCH   5   9
ATOM      9  C   UNL     1       3.688   6.476  17.780  0.00  0.00    +0.000 A 
ATOM     10  C   UNL     1       5.091   6.376  17.798  0.00  0.00    +0.000 A 
ATOM     11  C   UNL     1       5.416   5.038  17.856  0.00  0.00    +0.000 A 
ATOM     12  C   UNL     1       6.769   4.417  17.890  0.00  0.00    +0.000 C 
ATOM     13  N   UNL     1       4.232   4.319  17.884  0.00  0.00    +0.000 N 
ATOM     14  C   UNL     1       3.158   5.195  17.824  0.00  0.00    +0.000 A 
ATOM     15  C   UNL     1       1.723   4.790  17.819  0.00  0.00    +0.000 C 
BRANCH  13  16
ATOM     16  C   UNL     1       4.159   2.869  18.022  0.00  0.00    +0.000 C 
ATOM     17  C   UNL     1       4.054   2.400  19.465  0.00  0.00    +0.000 C 
ENDBRANCH  13  16
ENDBRANCH   5   9
BRANCH   1  18
ATOM     18  C   UNL     1      -0.119  11.031  19.531  0.00  0.00    +0.000 C 
BRANCH  18  20
ATOM     19  C   UNL     1      -1.881  10.911  17.738  0.00  0.00    +0.000 C 
ATOM     20  C   UNL     1      -1.478  10.679  18.995  0.00  0.00    +0.000 C 
ENDBRANCH  18  20
ENDBRANCH   1  18
TORSDOF 4
ENDMDL
MODEL 4
REMARK VINA RESULT:      -6.4      2.130      6.987
REMARK  Name = 
REMARK  7 active torsions:
REMARK  status: ('A' for Active; 'I' for Inactive)
REMARK    1  A    between atoms: C_2  and  C_3
REMARK    2  A    between atoms: C_3  and  N_4
REMARK    3  A    between atoms: C_8  and  C_9
REMARK    4  A    between atoms: C_11  and  C_12
REMARK    5  A    between atoms: N_13  and  C_14
REMARK    6  A    between atoms: C_14  and  C_15
REMARK    7  A    between atoms: C_16  and  C_17
REMARK                            x       y       z     vdW  Elec       q    Type
REMARK                         _______ _______ _______ _____ _____    ______ ____
ROOT
ATOM      1  N   UNL     1       3.414   4.373  19.465  0.00  0.00    +0.000 N 
ATOM      2  C   UNL     1       3.397   5.675  18.996  0.00  0.00    +0.000 C 
ATOM      3  O   UNL     1       4.095   6.129  18.095  0.00  0.00    +0.000 OA
ATOM      4  C   UNL     1       2.406   6.484  19.749  0.00  0.00    +0.000 C 
ATOM      5  C   UNL     1       2.252   7.798  19.533  0.00  0.00    +0.000 C 
ATOM      6  S   UNL     1       1.584   5.499  20.889  0.00  0.00    +0.000 S 
ATOM      7  C   UNL     1       2.559   4.084  20.509  0.00  0.00    +0.000 C 
ATOM      8  S   UNL     1       2.410   2.657  21.364  0.00  0.00    +0.000 S 
ENDROOT
BRANCH   5   9
ATOM      9  C   UNL     1       1.333   8.666  20.183  0.00  0.00    +0.000 A 
ATOM     10  C   UNL     1       1.058   8.688  21.563  0.00  0.00    +0.000 A 
ATOM     11  C   UNL     1       0.088   9.642  21.783  0.00  0.00    +0.000 A 
ATOM     12  C   UNL     1      -0.541  10.037  23.073  0.00  0.00    +0.000 C 
ATOM     13  N   UNL     1      -0.226  10.212  20.560  0.00  0.00    +0.000 N 
ATOM     14  C   UNL     1       0.526   9.609  19.562  0.00  0.00    +0.000 A 
ATOM     15  C   UNL     1       0.453   9.948  18.112  0.00  0.00    +0.000 C 
BRANCH  13  16
ATOM     16  C   UNL     1      -1.161  11.319  20.389  0.00  0.00    +0.000 C 
ATOM     17  C   UNL     1      -0.500  12.687  20.456  0.00  0.00    +0.000 C 
ENDBRANCH  13  16
ENDBRANCH   5   9
BRANCH   1  18
ATOM     18  C   UNL     1       4.376   3.435  18.889  0.00  0.00    +0.000 C 
BRANCH  18  20
ATOM     19  C   UNL     1       2.659   2.118  17.603  0.00  0.00    +0.000 C 
ATOM     20  C   UNL     1       3.804   2.814  17.646  0.00  0.00    +0.000 C 
ENDBRANCH  18  20
ENDBRANCH   1  18
TORSDOF 4
ENDMDL
MODEL 5
REMARK VINA RESULT:      -6.3      2.833      7.099
REMARK  Name = 
REMARK  7 active torsions:
REMARK  status: ('A' for Active; 'I' for Inactive)
REMARK    1  A    between atoms: C_2  and  C_3
REMARK    2  A    between atoms: C_3  and  N_4
REMARK    3  A    between atoms: C_8  and  C_9
REMARK    4  A    between atoms: C_11  and  C_12
REMARK    5  A    between atoms: N_13  and  C_14
REMARK    6  A    between atoms: C_14  and  C_15
REMARK    7  A    between atoms: C_16  and  C_17
REMARK                            x       y       z     vdW  Elec       q    Type
REMARK                         _______ _______ _______ _____ _____    ______ ____
ROOT
ATOM      1  N   UNL     1       4.395   4.839  17.216  0.00  0.00    +0.000 N 
ATOM      2  C   UNL     1       4.469   6.217  17.311  0.00  0.00    +0.000 C 
ATOM      3  O   UNL     1       5.437   6.912  17.021  0.00  0.00    +0.000 OA
ATOM      4  C   UNL     1       3.194   6.769  17.834  0.00  0.00    +0.000 C 
ATOM      5  C   UNL     1       3.038   8.077  18.087  0.00  0.00    +0.000 C 
ATOM      6  S   UNL     1       2.057   5.506  18.072  0.00  0.00    +0.000 S 
ATOM      7  C   UNL     1       3.211   4.256  17.622  0.00  0.00    +0.000 C 
ATOM      8  S   UNL     1       2.838   2.632  17.732  0.00  0.00    +0.000 S 
ENDROOT
BRANCH   5   9
ATOM      9  C   UNL     1       1.866   8.715  18.577  0.00  0.00    +0.000 A 
ATOM     10  C   UNL     1       1.024   9.566  17.837  0.00  0.00    +0.000 A 
ATOM     11  C   UNL     1       0.025  10.005  18.680  0.00  0.00    +0.000 A 
ATOM     12  C   UNL     1      -1.104  10.926  18.372  0.00  0.00    +0.000 C 
ATOM     13  N   UNL     1       0.238   9.426  19.921  0.00  0.00    +0.000 N 
ATOM     14  C   UNL     1       1.379   8.638  19.873  0.00  0.00    +0.000 A 
ATOM     15  C   UNL     1       1.934   7.867  21.022  0.00  0.00    +0.000 C 
BRANCH  13  16
ATOM     16  C   UNL     1      -0.655   9.588  21.063  0.00  0.00    +0.000 C 
ATOM     17  C   UNL     1      -0.212  10.673  22.031  0.00  0.00    +0.000 C 
ENDBRANCH  13  16
ENDBRANCH   5   9
BRANCH   1  18
ATOM     18  C   UNL     1       5.581   4.103  16.780  0.00  0.00    +0.000 C 
BRANCH  18  20
ATOM     19  C   UNL     1       6.567   4.437  14.488  0.00  0.00    +0.000 C 
ATOM     20  C   UNL     1       5.587   3.985  15.281  0.00  0.00    +0.000 C 
ENDBRANCH  18  20
ENDBRANCH   1  18
TORSDOF 4
ENDMDL
MODEL 6
REMARK VINA RESULT:      -6.3      1.567      2.477
REMARK  Name = 
REMARK  7 active torsions:
REMARK  status: ('A' for Active; 'I' for Inactive)
REMARK    1  A    between atoms: C_2  and  C_3
REMARK    2  A    between atoms: C_3  and  N_4
REMARK    3  A    between atoms: C_8  and  C_9
REMARK    4  A    between atoms: C_11  and  C_12
REMARK    5  A    between atoms: N_13  and  C_14
REMARK    6  A    between atoms: C_14  and  C_15
REMARK    7  A    between atoms: C_16  and  C_17
REMARK                            x       y       z     vdW  Elec       q    Type
REMARK                         _______ _______ _______ _____ _____    ______ ____
ROOT
ATOM      1  N   UNL     1       0.650   9.804  19.702  0.00  0.00    +0.000 N 
ATOM      2  C   UNL     1       1.357   9.487  18.555  0.00  0.00    +0.000 C 
ATOM      3  O   UNL     1       1.380  10.136  17.515  0.00  0.00    +0.000 OA
ATOM      4  C   UNL     1       2.103   8.217  18.741  0.00  0.00    +0.000 C 
ATOM      5  C   UNL     1       2.808   7.655  17.749  0.00  0.00    +0.000 C 
ATOM      6  S   UNL     1       1.875   7.627  20.337  0.00  0.00    +0.000 S 
ATOM      7  C   UNL     1       0.748   8.914  20.752  0.00  0.00    +0.000 C 
ATOM      8  S   UNL     1      -0.050   8.946  22.218  0.00  0.00    +0.000 S 
ENDROOT
BRANCH   5   9
ATOM      9  C   UNL     1       3.564   6.454  17.815  0.00  0.00    +0.000 A 
ATOM     10  C   UNL     1       4.969   6.366  17.820  0.00  0.00    +0.000 A 
ATOM     11  C   UNL     1       5.305   5.029  17.856  0.00  0.00    +0.000 A 
ATOM     12  C   UNL     1       6.664   4.421  17.869  0.00  0.00    +0.000 C 
ATOM     13  N   UNL     1       4.128   4.300  17.885  0.00  0.00    +0.000 N 
ATOM     14  C   UNL     1       3.046   5.168  17.846  0.00  0.00    +0.000 A 
ATOM     15  C   UNL     1       1.614   4.751  17.848  0.00  0.00    +0.000 C 
BRANCH  13  16
ATOM     16  C   UNL     1       4.068   2.847  18.003  0.00  0.00    +0.000 C 
ATOM     17  C   UNL     1       4.020   2.357  19.441  0.00  0.00    +0.000 C 
ENDBRANCH  13  16
ENDBRANCH   5   9
BRANCH   1  18
ATOM     18  C   UNL     1      -0.201  10.992  19.691  0.00  0.00    +0.000 C 
BRANCH  18  20
ATOM     19  C   UNL     1       1.459  12.878  19.854  0.00  0.00    +0.000 C 
ATOM     20  C   UNL     1       0.492  12.125  20.396  0.00  0.00    +0.000 C 
ENDBRANCH  18  20
ENDBRANCH   1  18
TORSDOF 4
ENDMDL
MODEL 7
REMARK VINA RESULT:      -6.2      2.153      3.099
REMARK  Name = 
REMARK  7 active torsions:
REMARK  status: ('A' for Active; 'I' for Inactive)
REMARK    1  A    between atoms: C_2  and  C_3
REMARK    2  A    between atoms: C_3  and  N_4
REMARK    3  A    between atoms: C_8  and  C_9
REMARK    4  A    between atoms: C_11  and  C_12
REMARK    5  A    between atoms: N_13  and  C_14
REMARK    6  A    between atoms: C_14  and  C_15
REMARK    7  A    between atoms: C_16  and  C_17
REMARK                            x       y       z     vdW  Elec       q    Type
REMARK                         _______ _______ _______ _____ _____    ______ ____
ROOT
ATOM      1  N   UNL     1       0.776  10.331  20.820  0.00  0.00    +0.000 N 
ATOM      2  C   UNL     1       1.177   9.101  21.309  0.00  0.00    +0.000 C 
ATOM      3  O   UNL     1       1.191   8.758  22.487  0.00  0.00    +0.000 OA
ATOM      4  C   UNL     1       1.614   8.219  20.197  0.00  0.00    +0.000 C 
ATOM      5  C   UNL     1       2.118   6.996  20.416  0.00  0.00    +0.000 C 
ATOM      6  S   UNL     1       1.401   9.018  18.693  0.00  0.00    +0.000 S 
ATOM      7  C   UNL     1       0.867  10.512  19.455  0.00  0.00    +0.000 C 
ATOM      8  S   UNL     1       0.567  11.894  18.568  0.00  0.00    +0.000 S 
ENDROOT
BRANCH   5   9
ATOM      9  C   UNL     1       2.556   6.067  19.434  0.00  0.00    +0.000 A 
ATOM     10  C   UNL     1       3.556   6.298  18.472  0.00  0.00    +0.000 A 
ATOM     11  C   UNL     1       3.656   5.167  17.690  0.00  0.00    +0.000 A 
ATOM     12  C   UNL     1       4.564   4.921  16.536  0.00  0.00    +0.000 C 
ATOM     13  N   UNL     1       2.740   4.244  18.168  0.00  0.00    +0.000 N 
ATOM     14  C   UNL     1       2.045   4.793  19.236  0.00  0.00    +0.000 A 
ATOM     15  C   UNL     1       0.967   4.102  20.000  0.00  0.00    +0.000 C 
BRANCH  13  16
ATOM     16  C   UNL     1       2.597   2.889  17.647  0.00  0.00    +0.000 C 
ATOM     17  C   UNL     1       3.446   1.864  18.380  0.00  0.00    +0.000 C 
ENDBRANCH  13  16
ENDBRANCH   5   9
BRANCH   1  18
ATOM     18  C   UNL     1       0.371  11.363  21.774  0.00  0.00    +0.000 C 
BRANCH  18  20
ATOM     19  C   UNL     1      -1.758  11.983  22.966  0.00  0.00    +0.000 C 
ATOM     20  C   UNL     1      -1.097  11.236  22.071  0.00  0.00    +0.000 C 
ENDBRANCH  18  20
ENDBRANCH   1  18
TORSDOF 4
ENDMDL
MODEL 8
REMARK VINA RESULT:      -6.1      1.804      2.385
REMARK  Name = 
REMARK  7 active torsions:
REMARK  status: ('A' for Active; 'I' for Inactive)
REMARK    1  A    between atoms: C_2  and  C_3
REMARK    2  A    between atoms: C_3  and  N_4
REMARK    3  A    between atoms: C_8  and  C_9
REMARK    4  A    between atoms: C_11  and  C_12
REMARK    5  A    between atoms: N_13  and  C_14
REMARK    6  A    between atoms: C_14  and  C_15
REMARK    7  A    between atoms: C_16  and  C_17
REMARK                            x       y       z     vdW  Elec       q    Type
REMARK                         _______ _______ _______ _____ _____    ______ ____
ROOT
ATOM      1  N   UNL     1       0.824   9.886  19.643  0.00  0.00    +0.000 N 
ATOM      2  C   UNL     1       1.580   9.619  18.514  0.00  0.00    +0.000 C 
ATOM      3  O   UNL     1       1.705  10.349  17.537  0.00  0.00    +0.000 OA
ATOM      4  C   UNL     1       2.232   8.291  18.631  0.00  0.00    +0.000 C 
ATOM      5  C   UNL     1       2.961   7.768  17.635  0.00  0.00    +0.000 C 
ATOM      6  S   UNL     1       1.872   7.588  20.155  0.00  0.00    +0.000 S 
ATOM      7  C   UNL     1       0.803   8.908  20.616  0.00  0.00    +0.000 C 
ATOM      8  S   UNL     1      -0.080   8.872  22.033  0.00  0.00    +0.000 S 
ENDROOT
BRANCH   5   9
ATOM      9  C   UNL     1       3.637   6.517  17.639  0.00  0.00    +0.000 A 
ATOM     10  C   UNL     1       3.034   5.258  17.815  0.00  0.00    +0.000 A 
ATOM     11  C   UNL     1       4.033   4.308  17.791  0.00  0.00    +0.000 A 
ATOM     12  C   UNL     1       3.905   2.832  17.941  0.00  0.00    +0.000 C 
ATOM     13  N   UNL     1       5.235   4.966  17.590  0.00  0.00    +0.000 N 
ATOM     14  C   UNL     1       5.005   6.332  17.508  0.00  0.00    +0.000 A 
ATOM     15  C   UNL     1       6.061   7.366  17.309  0.00  0.00    +0.000 C 
BRANCH  13  16
ATOM     16  C   UNL     1       6.519   4.293  17.430  0.00  0.00    +0.000 C 
ATOM     17  C   UNL     1       6.982   4.206  15.984  0.00  0.00    +0.000 C 
ENDBRANCH  13  16
ENDBRANCH   5   9
BRANCH   1  18
ATOM     18  C   UNL     1       0.050  11.125  19.687  0.00  0.00    +0.000 C 
BRANCH  18  20
ATOM     19  C   UNL     1      -2.068  11.885  18.557  0.00  0.00    +0.000 C 
ATOM     20  C   UNL     1      -1.297  10.909  19.055  0.00  0.00    +0.000 C 
ENDBRANCH  18  20
ENDBRANCH   1  18
TORSDOF 4
ENDMDL
MODEL 9
REMARK VINA RESULT:      -6.1      2.307      6.988
REMARK  Name = 
REMARK  7 active torsions:
REMARK  status: ('A' for Active; 'I' for Inactive)
REMARK    1  A    between atoms: C_2  and  C_3
REMARK    2  A    between atoms: C_3  and  N_4
REMARK    3  A    between atoms: C_8  and  C_9
REMARK    4  A    between atoms: C_11  and  C_12
REMARK    5  A    between atoms: N_13  and  C_14
REMARK    6  A    between atoms: C_14  and  C_15
REMARK    7  A    between atoms: C_16  and  C_17
REMARK                            x       y       z     vdW  Elec       q    Type
REMARK                         _______ _______ _______ _____ _____    ______ ____
ROOT
ATOM      1  N   UNL     1       3.858   4.867  18.309  0.00  0.00    +0.000 N 
ATOM      2  C   UNL     1       3.623   6.203  18.036  0.00  0.00    +0.000 C 
ATOM      3  O   UNL     1       4.114   6.853  17.120  0.00  0.00    +0.000 OA
ATOM      4  C   UNL     1       2.681   6.776  19.030  0.00  0.00    +0.000 C 
ATOM      5  C   UNL     1       2.349   8.076  19.028  0.00  0.00    +0.000 C 
ATOM      6  S   UNL     1       2.164   5.559  20.125  0.00  0.00    +0.000 S 
ATOM      7  C   UNL     1       3.217   4.341  19.412  0.00  0.00    +0.000 C 
ATOM      8  S   UNL     1       3.365   2.813  20.068  0.00  0.00    +0.000 S 
ENDROOT
BRANCH   5   9
ATOM      9  C   UNL     1       1.455   8.729  19.919  0.00  0.00    +0.000 A 
ATOM     10  C   UNL     1       1.379   8.518  21.308  0.00  0.00    +0.000 A 
ATOM     11  C   UNL     1       0.365   9.312  21.798  0.00  0.00    +0.000 A 
ATOM     12  C   UNL     1      -0.109   9.440  23.204  0.00  0.00    +0.000 C 
ATOM     13  N   UNL     1      -0.173  10.014  20.731  0.00  0.00    +0.000 N 
ATOM     14  C   UNL     1       0.483   9.652  19.564  0.00  0.00    +0.000 A 
ATOM     15  C   UNL     1       0.172  10.188  18.207  0.00  0.00    +0.000 C 
BRANCH  13  16
ATOM     16  C   UNL     1      -1.222  11.019  20.859  0.00  0.00    +0.000 C 
ATOM     17  C   UNL     1      -0.691  12.425  21.093  0.00  0.00    +0.000 C 
ENDBRANCH  13  16
ENDBRANCH   5   9
BRANCH   1  18
ATOM     18  C   UNL     1       4.814   4.142  17.474  0.00  0.00    +0.000 C 
BRANCH  18  20
ATOM     19  C   UNL     1       7.273   4.637  17.251  0.00  0.00    +0.000 C 
ATOM     20  C   UNL     1       6.207   4.337  18.006  0.00  0.00    +0.000 C 
ENDBRANCH  18  20
ENDBRANCH   1  18
TORSDOF 4
ENDMDL
