MODEL 1
REMARK VINA RESULT:      -7.4      0.000      0.000
REMARK  Name = 
REMARK  8 active torsions:
REMARK  status: ('A' for Active; 'I' for Inactive)
REMARK    1  A    between atoms: C_1  and  C_2
REMARK    2  A    between atoms: C_4  and  C_5
REMARK    3  A    between atoms: C_7  and  S_8
REMARK    4  A    between atoms: S_8  and  C_9
REMARK    5  A    between atoms: C_9  and  C_10
REMARK    6  A    between atoms: C_13  and  S_14
REMARK    7  A    between atoms: S_14  and  C_15
REMARK    8  A    between atoms: C_15  and  C_16
REMARK                            x       y       z     vdW  Elec       q    Type
REMARK                         _______ _______ _______ _____ _____    ______ ____
ROOT
ATOM      1  C   UNL     1       7.449   5.488  17.142  0.00  0.00    +0.000 A 
ATOM      2  N   UNL     1       7.734   5.485  18.428  0.00  0.00    +0.000 NA
ATOM      3  N   UNL     1       7.966   6.801  18.780  0.00  0.00    +0.000 NA
ATOM      4  C   UNL     1       7.792   7.529  17.694  0.00  0.00    +0.000 A 
ATOM      5  O   UNL     1       7.459   6.757  16.609  0.00  0.00    +0.000 OA
ENDROOT
BRANCH   1   6
ATOM      6  C   UNL     1       7.044   4.352  16.268  0.00  0.00    +0.000 C 
BRANCH   6   7
ATOM      7  S   UNL     1       5.355   4.554  15.627  0.00  0.00    +0.000 S 
BRANCH   7  14
ATOM      8  C   UNL     1       3.425   2.875  20.069  0.00  0.00    +0.000 C 
ATOM      9  C   UNL     1       3.581   4.008  19.099  0.00  0.00    +0.000 A 
ATOM     10  C   UNL     1       2.945   5.215  19.326  0.00  0.00    +0.000 A 
ATOM     11  C   UNL     1       3.136   6.200  18.383  0.00  0.00    +0.000 A 
ATOM     12  C   UNL     1       2.495   7.553  18.521  0.00  0.00    +0.000 C 
ATOM     13  N   UNL     1       3.893   6.006  17.283  0.00  0.00    +0.000 NA
ATOM     14  C   UNL     1       4.467   4.802  17.139  0.00  0.00    +0.000 A 
ATOM     15  N   UNL     1       4.355   3.788  18.013  0.00  0.00    +0.000 NA
ENDBRANCH   7  14
ENDBRANCH   6   7
ENDBRANCH   1   6
BRANCH   4  16
ATOM     16  S   UNL     1       7.946   9.264  17.653  0.00  0.00    +0.000 S 
BRANCH  16  17
ATOM     17  C   UNL     1       9.059   9.543  19.057  0.00  0.00    +0.000 C 
BRANCH  17  18
ATOM     18  C   UNL     1       9.721  10.905  19.026  0.00  0.00    +0.000 A 
ATOM     19  C   UNL     1      10.401  11.303  17.857  0.00  0.00    +0.000 A 
ATOM     20  C   UNL     1      10.994  12.570  17.761  0.00  0.00    +0.000 A 
ATOM     21  C   UNL     1      10.919  13.459  18.826  0.00  0.00    +0.000 A 
ATOM     22  C   UNL     1      10.268  13.078  19.999  0.00  0.00    +0.000 A 
ATOM     23  C   UNL     1       9.683  11.807  20.104  0.00  0.00    +0.000 A 
ATOM     24 CL   UNL     1       8.926  11.406  21.605  0.00  0.00    +0.000 Cl
ENDBRANCH  17  18
ENDBRANCH  16  17
ENDBRANCH   4  16
TORSDOF 6
ENDMDL
MODEL 2
REMARK VINA RESULT:      -7.4      0.883      1.785
REMARK  Name = 
REMARK  8 active torsions:
REMARK  status: ('A' for Active; 'I' for Inactive)
REMARK    1  A    between atoms: C_1  and  C_2
REMARK    2  A    between atoms: C_4  and  C_5
REMARK    3  A    between atoms: C_7  and  S_8
REMARK    4  A    between atoms: S_8  and  C_9
REMARK    5  A    between atoms: C_9  and  C_10
REMARK    6  A    between atoms: C_13  and  S_14
REMARK    7  A    between atoms: S_14  and  C_15
REMARK    8  A    between atoms: C_15  and  C_16
REMARK                            x       y       z     vdW  Elec       q    Type
REMARK                         _______ _______ _______ _____ _____    ______ ____
ROOT
ATOM      1  C   UNL     1       7.425   5.813  17.538  0.00  0.00    +0.000 A 
ATOM      2  N   UNL     1       7.968   5.856  18.738  0.00  0.00    +0.000 NA
ATOM      3  N   UNL     1       8.340   7.170  18.950  0.00  0.00    +0.000 NA
ATOM      4  C   UNL     1       7.986   7.851  17.878  0.00  0.00    +0.000 A 
ATOM      5  O   UNL     1       7.394   7.049  16.934  0.00  0.00    +0.000 OA
ENDROOT
BRANCH   1   6
ATOM      6  C   UNL     1       6.787   4.663  16.839  0.00  0.00    +0.000 C 
BRANCH   6   7
ATOM      7  S   UNL     1       5.372   5.184  15.822  0.00  0.00    +0.000 S 
BRANCH   7  14
ATOM      8  C   UNL     1       2.380   7.023  19.557  0.00  0.00    +0.000 C 
ATOM      9  C   UNL     1       2.764   5.858  18.693  0.00  0.00    +0.000 A 
ATOM     10  C   UNL     1       2.170   4.623  18.881  0.00  0.00    +0.000 A 
ATOM     11  C   UNL     1       2.583   3.606  18.051  0.00  0.00    +0.000 A 
ATOM     12  C   UNL     1       2.011   2.221  18.161  0.00  0.00    +0.000 C 
ATOM     13  N   UNL     1       3.528   3.790  17.104  0.00  0.00    +0.000 NA
ATOM     14  C   UNL     1       4.056   5.018  16.996  0.00  0.00    +0.000 A 
ATOM     15  N   UNL     1       3.704   6.075  17.746  0.00  0.00    +0.000 NA
ENDBRANCH   7  14
ENDBRANCH   6   7
ENDBRANCH   1   6
BRANCH   4  16
ATOM     16  S   UNL     1       8.223   9.568  17.696  0.00  0.00    +0.000 S 
BRANCH  16  17
ATOM     17  C   UNL     1       9.065   9.965  19.252  0.00  0.00    +0.000 C 
BRANCH  17  18
ATOM     18  C   UNL     1      10.019  11.135  19.127  0.00  0.00    +0.000 A 
ATOM     19  C   UNL     1      10.715  11.317  17.914  0.00  0.00    +0.000 A 
ATOM     20  C   UNL     1      11.577  12.408  17.732  0.00  0.00    +0.000 A 
ATOM     21  C   UNL     1      11.759  13.333  18.753  0.00  0.00    +0.000 A 
ATOM     22  C   UNL     1      11.096  13.160  19.968  0.00  0.00    +0.000 A 
ATOM     23  C   UNL     1      10.241  12.064  20.159  0.00  0.00    +0.000 A 
ATOM     24 CL   UNL     1       9.487  11.910  21.706  0.00  0.00    +0.000 Cl
ENDBRANCH  17  18
ENDBRANCH  16  17
ENDBRANCH   4  16
TORSDOF 6
ENDMDL
MODEL 3
REMARK VINA RESULT:      -7.3      2.132      2.876
REMARK  Name = 
REMARK  8 active torsions:
REMARK  status: ('A' for Active; 'I' for Inactive)
REMARK    1  A    between atoms: C_1  and  C_2
REMARK    2  A    between atoms: C_4  and  C_5
REMARK    3  A    between atoms: C_7  and  S_8
REMARK    4  A    between atoms: S_8  and  C_9
REMARK    5  A    between atoms: C_9  and  C_10
REMARK    6  A    between atoms: C_13  and  S_14
REMARK    7  A    between atoms: S_14  and  C_15
REMARK    8  A    between atoms: C_15  and  C_16
REMARK                            x       y       z     vdW  Elec       q    Type
REMARK                         _______ _______ _______ _____ _____    ______ ____
ROOT
ATOM      1  C   UNL     1       7.703   7.007  17.954  0.00  0.00    +0.000 A 
ATOM      2  N   UNL     1       7.320   7.846  17.014  0.00  0.00    +0.000 NA
ATOM      3  N   UNL     1       7.842   9.079  17.355  0.00  0.00    +0.000 NA
ATOM      4  C   UNL     1       8.526   8.915  18.471  0.00  0.00    +0.000 A 
ATOM      5  O   UNL     1       8.482   7.615  18.911  0.00  0.00    +0.000 OA
ENDROOT
BRANCH   1   6
ATOM      6  C   UNL     1       7.484   5.536  18.043  0.00  0.00    +0.000 C 
BRANCH   6   7
ATOM      7  S   UNL     1       6.689   4.874  16.547  0.00  0.00    +0.000 S 
BRANCH   7  14
ATOM      8  C   UNL     1       2.495   7.242  18.303  0.00  0.00    +0.000 C 
ATOM      9  C   UNL     1       3.149   5.958  17.884  0.00  0.00    +0.000 A 
ATOM     10  C   UNL     1       2.469   4.759  17.996  0.00  0.00    +0.000 A 
ATOM     11  C   UNL     1       3.143   3.628  17.595  0.00  0.00    +0.000 A 
ATOM     12  C   UNL     1       2.507   2.268  17.670  0.00  0.00    +0.000 C 
ATOM     13  N   UNL     1       4.407   3.672  17.126  0.00  0.00    +0.000 NA
ATOM     14  C   UNL     1       4.994   4.877  17.058  0.00  0.00    +0.000 A 
ATOM     15  N   UNL     1       4.411   6.035  17.407  0.00  0.00    +0.000 NA
ENDBRANCH   7  14
ENDBRANCH   6   7
ENDBRANCH   1   6
BRANCH   4  16
ATOM     16  S   UNL     1       9.398  10.192  19.273  0.00  0.00    +0.000 S 
BRANCH  16  17
ATOM     17  C   UNL     1       9.828  11.252  17.865  0.00  0.00    +0.000 C 
BRANCH  17  18
ATOM     18  C   UNL     1       9.151  12.606  17.915  0.00  0.00    +0.000 A 
ATOM     19  C   UNL     1       7.850  12.735  17.390  0.00  0.00    +0.000 A 
ATOM     20  C   UNL     1       7.163  13.956  17.451  0.00  0.00    +0.000 A 
ATOM     21  C   UNL     1       7.761  15.066  18.034  0.00  0.00    +0.000 A 
ATOM     22  C   UNL     1       9.056  14.964  18.542  0.00  0.00    +0.000 A 
ATOM     23  C   UNL     1       9.752  13.748  18.474  0.00  0.00    +0.000 A 
ATOM     24 CL   UNL     1      11.363  13.722  19.097  0.00  0.00    +0.000 Cl
ENDBRANCH  17  18
ENDBRANCH  16  17
ENDBRANCH   4  16
TORSDOF 6
ENDMDL
MODEL 4
REMARK VINA RESULT:      -7.3      1.208      1.365
REMARK  Name = 
REMARK  8 active torsions:
REMARK  status: ('A' for Active; 'I' for Inactive)
REMARK    1  A    between atoms: C_1  and  C_2
REMARK    2  A    between atoms: C_4  and  C_5
REMARK    3  A    between atoms: C_7  and  S_8
REMARK    4  A    between atoms: S_8  and  C_9
REMARK    5  A    between atoms: C_9  and  C_10
REMARK    6  A    between atoms: C_13  and  S_14
REMARK    7  A    between atoms: S_14  and  C_15
REMARK    8  A    between atoms: C_15  and  C_16
REMARK                            x       y       z     vdW  Elec       q    Type
REMARK                         _______ _______ _______ _____ _____    ______ ____
ROOT
ATOM      1  C   UNL     1       7.320   6.547  17.400  0.00  0.00    +0.000 A 
ATOM      2  N   UNL     1       7.977   6.418  18.535  0.00  0.00    +0.000 NA
ATOM      3  N   UNL     1       8.470   7.671  18.845  0.00  0.00    +0.000 NA
ATOM      4  C   UNL     1       8.069   8.491  17.893  0.00  0.00    +0.000 A 
ATOM      5  O   UNL     1       7.329   7.842  16.937  0.00  0.00    +0.000 OA
ENDROOT
BRANCH   1   6
ATOM      6  C   UNL     1       6.529   5.529  16.654  0.00  0.00    +0.000 C 
BRANCH   6   7
ATOM      7  S   UNL     1       4.792   6.028  16.453  0.00  0.00    +0.000 S 
BRANCH   7  14
ATOM      8  C   UNL     1       3.536   1.457  18.405  0.00  0.00    +0.000 C 
ATOM      9  C   UNL     1       3.443   2.951  18.506  0.00  0.00    +0.000 A 
ATOM     10  C   UNL     1       2.671   3.538  19.491  0.00  0.00    +0.000 A 
ATOM     11  C   UNL     1       2.636   4.914  19.509  0.00  0.00    +0.000 A 
ATOM     12  C   UNL     1       1.831   5.665  20.533  0.00  0.00    +0.000 C 
ATOM     13  N   UNL     1       3.306   5.663  18.609  0.00  0.00    +0.000 NA
ATOM     14  C   UNL     1       4.024   5.010  17.682  0.00  0.00    +0.000 A 
ATOM     15  N   UNL     1       4.135   3.675  17.597  0.00  0.00    +0.000 NA
ENDBRANCH   7  14
ENDBRANCH   6   7
ENDBRANCH   1   6
BRANCH   4  16
ATOM     16  S   UNL     1       8.422  10.197  17.870  0.00  0.00    +0.000 S 
BRANCH  16  17
ATOM     17  C   UNL     1       9.451  10.356  19.355  0.00  0.00    +0.000 C 
BRANCH  17  18
ATOM     18  C   UNL     1      10.394  11.540  19.298  0.00  0.00    +0.000 A 
ATOM     19  C   UNL     1      11.221  11.695  18.168  0.00  0.00    +0.000 A 
ATOM     20  C   UNL     1      12.081  12.796  18.046  0.00  0.00    +0.000 A 
ATOM     21  C   UNL     1      12.130  13.758  19.048  0.00  0.00    +0.000 A 
ATOM     22  C   UNL     1      11.334  13.612  20.184  0.00  0.00    +0.000 A 
ATOM     23  C   UNL     1      10.481  12.506  20.316  0.00  0.00    +0.000 A 
ATOM     24 CL   UNL     1       9.556  12.390  21.770  0.00  0.00    +0.000 Cl
ENDBRANCH  17  18
ENDBRANCH  16  17
ENDBRANCH   4  16
TORSDOF 6
ENDMDL
MODEL 5
REMARK VINA RESULT:      -7.3      4.477      7.628
REMARK  Name = 
REMARK  8 active torsions:
REMARK  status: ('A' for Active; 'I' for Inactive)
REMARK    1  A    between atoms: C_1  and  C_2
REMARK    2  A    between atoms: C_4  and  C_5
REMARK    3  A    between atoms: C_7  and  S_8
REMARK    4  A    between atoms: S_8  and  C_9
REMARK    5  A    between atoms: C_9  and  C_10
REMARK    6  A    between atoms: C_13  and  S_14
REMARK    7  A    between atoms: S_14  and  C_15
REMARK    8  A    between atoms: C_15  and  C_16
REMARK                            x       y       z     vdW  Elec       q    Type
REMARK                         _______ _______ _______ _____ _____    ______ ____
ROOT
ATOM      1  C   UNL     1       2.357   5.232  18.998  0.00  0.00    +0.000 A 
ATOM      2  N   UNL     1       2.297   5.772  20.198  0.00  0.00    +0.000 NA
ATOM      3  N   UNL     1       2.174   7.135  20.007  0.00  0.00    +0.000 NA
ATOM      4  C   UNL     1       2.147   7.343  18.705  0.00  0.00    +0.000 A 
ATOM      5  O   UNL     1       2.259   6.172  17.997  0.00  0.00    +0.000 OA
ENDROOT
BRANCH   1   6
ATOM      6  C   UNL     1       2.416   3.793  18.619  0.00  0.00    +0.000 C 
BRANCH   6   7
ATOM      7  S   UNL     1       3.945   2.998  19.202  0.00  0.00    +0.000 S 
BRANCH   7  14
ATOM      8  C   UNL     1       7.961   6.171  18.912  0.00  0.00    +0.000 C 
ATOM      9  C   UNL     1       6.921   5.367  18.188  0.00  0.00    +0.000 A 
ATOM     10  C   UNL     1       6.829   5.423  16.809  0.00  0.00    +0.000 A 
ATOM     11  C   UNL     1       5.844   4.660  16.225  0.00  0.00    +0.000 A 
ATOM     12  C   UNL     1       5.647   4.639  14.735  0.00  0.00    +0.000 C 
ATOM     13  N   UNL     1       4.995   3.902  16.951  0.00  0.00    +0.000 NA
ATOM     14  C   UNL     1       5.150   3.914  18.283  0.00  0.00    +0.000 A 
ATOM     15  N   UNL     1       6.093   4.609  18.941  0.00  0.00    +0.000 NA
ENDBRANCH   7  14
ENDBRANCH   6   7
ENDBRANCH   1   6
BRANCH   4  16
ATOM     16  S   UNL     1       1.970   8.916  17.976  0.00  0.00    +0.000 S 
BRANCH  16  17
ATOM     17  C   UNL     1       1.056   9.794  19.272  0.00  0.00    +0.000 C 
BRANCH  17  18
ATOM     18  C   UNL     1      -0.284  10.321  18.799  0.00  0.00    +0.000 A 
ATOM     19  C   UNL     1      -0.840   9.796  17.615  0.00  0.00    +0.000 A 
ATOM     20  C   UNL     1      -2.096  10.218  17.157  0.00  0.00    +0.000 A 
ATOM     21  C   UNL     1      -2.816  11.169  17.870  0.00  0.00    +0.000 A 
ATOM     22  C   UNL     1      -2.275  11.715  19.033  0.00  0.00    +0.000 A 
ATOM     23  C   UNL     1      -1.013  11.305  19.489  0.00  0.00    +0.000 A 
ATOM     24 CL   UNL     1      -0.406  12.058  20.920  0.00  0.00    +0.000 Cl
ENDBRANCH  17  18
ENDBRANCH  16  17
ENDBRANCH   4  16
TORSDOF 6
ENDMDL
MODEL 6
REMARK VINA RESULT:      -7.3      1.511      2.534
REMARK  Name = 
REMARK  8 active torsions:
REMARK  status: ('A' for Active; 'I' for Inactive)
REMARK    1  A    between atoms: C_1  and  C_2
REMARK    2  A    between atoms: C_4  and  C_5
REMARK    3  A    between atoms: C_7  and  S_8
REMARK    4  A    between atoms: S_8  and  C_9
REMARK    5  A    between atoms: C_9  and  C_10
REMARK    6  A    between atoms: C_13  and  S_14
REMARK    7  A    between atoms: S_14  and  C_15
REMARK    8  A    between atoms: C_15  and  C_16
REMARK                            x       y       z     vdW  Elec       q    Type
REMARK                         _______ _______ _______ _____ _____    ______ ____
ROOT
ATOM      1  C   UNL     1       6.972   6.497  17.160  0.00  0.00    +0.000 A 
ATOM      2  N   UNL     1       7.679   6.193  18.229  0.00  0.00    +0.000 NA
ATOM      3  N   UNL     1       8.291   7.363  18.637  0.00  0.00    +0.000 NA
ATOM      4  C   UNL     1       7.908   8.311  17.805  0.00  0.00    +0.000 A 
ATOM      5  O   UNL     1       7.063   7.831  16.835  0.00  0.00    +0.000 OA
ENDROOT
BRANCH   1   6
ATOM      6  C   UNL     1       6.057   5.631  16.364  0.00  0.00    +0.000 C 
BRANCH   6   7
ATOM      7  S   UNL     1       5.386   4.260  17.352  0.00  0.00    +0.000 S 
BRANCH   7  14
ATOM      8  C   UNL     1       2.334   8.309  18.113  0.00  0.00    +0.000 C 
ATOM      9  C   UNL     1       2.759   6.937  18.548  0.00  0.00    +0.000 A 
ATOM     10  C   UNL     1       2.211   6.363  19.681  0.00  0.00    +0.000 A 
ATOM     11  C   UNL     1       2.660   5.105  20.014  0.00  0.00    +0.000 A 
ATOM     12  C   UNL     1       2.138   4.381  21.223  0.00  0.00    +0.000 C 
ATOM     13  N   UNL     1       3.596   4.459  19.286  0.00  0.00    +0.000 NA
ATOM     14  C   UNL     1       4.079   5.094  18.208  0.00  0.00    +0.000 A 
ATOM     15  N   UNL     1       3.689   6.310  17.794  0.00  0.00    +0.000 NA
ENDBRANCH   7  14
ENDBRANCH   6   7
ENDBRANCH   1   6
BRANCH   4  16
ATOM     16  S   UNL     1       8.401   9.977  17.937  0.00  0.00    +0.000 S 
BRANCH  16  17
ATOM     17  C   UNL     1       9.440   9.911  19.423  0.00  0.00    +0.000 C 
BRANCH  17  18
ATOM     18  C   UNL     1       9.761  11.282  19.981  0.00  0.00    +0.000 A 
ATOM     19  C   UNL     1       9.070  11.728  21.126  0.00  0.00    +0.000 A 
ATOM     20  C   UNL     1       9.360  12.970  21.708  0.00  0.00    +0.000 A 
ATOM     21  C   UNL     1      10.342  13.786  21.159  0.00  0.00    +0.000 A 
ATOM     22  C   UNL     1      11.024  13.372  20.015  0.00  0.00    +0.000 A 
ATOM     23  C   UNL     1      10.729  12.135  19.422  0.00  0.00    +0.000 A 
ATOM     24 CL   UNL     1      11.598  11.718  17.989  0.00  0.00    +0.000 Cl
ENDBRANCH  17  18
ENDBRANCH  16  17
ENDBRANCH   4  16
TORSDOF 6
ENDMDL
MODEL 7
REMARK VINA RESULT:      -7.2      2.113      2.313
REMARK  Name = 
REMARK  8 active torsions:
REMARK  status: ('A' for Active; 'I' for Inactive)
REMARK    1  A    between atoms: C_1  and  C_2
REMARK    2  A    between atoms: C_4  and  C_5
REMARK    3  A    between atoms: C_7  and  S_8
REMARK    4  A    between atoms: S_8  and  C_9
REMARK    5  A    between atoms: C_9  and  C_10
REMARK    6  A    between atoms: C_13  and  S_14
REMARK    7  A    between atoms: S_14  and  C_15
REMARK    8  A    between atoms: C_15  and  C_16
REMARK                            x       y       z     vdW  Elec       q    Type
REMARK                         _______ _______ _______ _____ _____    ______ ____
ROOT
ATOM      1  C   UNL     1       7.721   7.004  17.959  0.00  0.00    +0.000 A 
ATOM      2  N   UNL     1       7.321   7.851  17.033  0.00  0.00    +0.000 NA
ATOM      3  N   UNL     1       7.832   9.086  17.386  0.00  0.00    +0.000 NA
ATOM      4  C   UNL     1       8.527   8.915  18.494  0.00  0.00    +0.000 A 
ATOM      5  O   UNL     1       8.501   7.610  18.918  0.00  0.00    +0.000 OA
ENDROOT
BRANCH   1   6
ATOM      6  C   UNL     1       7.520   5.530  18.032  0.00  0.00    +0.000 C 
BRANCH   6   7
ATOM      7  S   UNL     1       6.654   4.888  16.567  0.00  0.00    +0.000 S 
BRANCH   7  14
ATOM      8  C   UNL     1       2.406   2.246  17.689  0.00  0.00    +0.000 C 
ATOM      9  C   UNL     1       3.104   3.574  17.647  0.00  0.00    +0.000 A 
ATOM     10  C   UNL     1       2.428   4.730  17.995  0.00  0.00    +0.000 A 
ATOM     11  C   UNL     1       3.139   5.906  17.922  0.00  0.00    +0.000 A 
ATOM     12  C   UNL     1       2.511   7.225  18.275  0.00  0.00    +0.000 C 
ATOM     13  N   UNL     1       4.428   5.944  17.523  0.00  0.00    +0.000 NA
ATOM     14  C   UNL     1       5.002   4.777  17.196  0.00  0.00    +0.000 A 
ATOM     15  N   UNL     1       4.397   3.580  17.254  0.00  0.00    +0.000 NA
ENDBRANCH   7  14
ENDBRANCH   6   7
ENDBRANCH   1   6
BRANCH   4  16
ATOM     16  S   UNL     1       9.390  10.193  19.305  0.00  0.00    +0.000 S 
BRANCH  16  17
ATOM     17  C   UNL     1       9.669  11.345  17.933  0.00  0.00    +0.000 C 
BRANCH  17  18
ATOM     18  C   UNL     1       8.951  12.666  18.114  0.00  0.00    +0.000 A 
ATOM     19  C   UNL     1       7.782  12.912  17.365  0.00  0.00    +0.000 A 
ATOM     20  C   UNL     1       7.056  14.101  17.527  0.00  0.00    +0.000 A 
ATOM     21  C   UNL     1       7.483  15.062  18.435  0.00  0.00    +0.000 A 
ATOM     22  C   UNL     1       8.649  14.847  19.171  0.00  0.00    +0.000 A 
ATOM     23  C   UNL     1       9.384  13.664  19.004  0.00  0.00    +0.000 A 
ATOM     24 CL   UNL     1      10.832  13.496  19.932  0.00  0.00    +0.000 Cl
ENDBRANCH  17  18
ENDBRANCH  16  17
ENDBRANCH   4  16
TORSDOF 6
ENDMDL
MODEL 8
REMARK VINA RESULT:      -7.2      6.300      9.909
REMARK  Name = 
REMARK  8 active torsions:
REMARK  status: ('A' for Active; 'I' for Inactive)
REMARK    1  A    between atoms: C_1  and  C_2
REMARK    2  A    between atoms: C_4  and  C_5
REMARK    3  A    between atoms: C_7  and  S_8
REMARK    4  A    between atoms: S_8  and  C_9
REMARK    5  A    between atoms: C_9  and  C_10
REMARK    6  A    between atoms: C_13  and  S_14
REMARK    7  A    between atoms: S_14  and  C_15
REMARK    8  A    between atoms: C_15  and  C_16
REMARK                            x       y       z     vdW  Elec       q    Type
REMARK                         _______ _______ _______ _____ _____    ______ ____
ROOT
ATOM      1  C   UNL     1       0.899  10.085  18.952  0.00  0.00    +0.000 A 
ATOM      2  N   UNL     1       0.931   9.409  20.083  0.00  0.00    +0.000 NA
ATOM      3  N   UNL     1       1.708   8.291  19.848  0.00  0.00    +0.000 NA
ATOM      4  C   UNL     1       2.116   8.359  18.596  0.00  0.00    +0.000 A 
ATOM      5  O   UNL     1       1.638   9.480  17.962  0.00  0.00    +0.000 OA
ENDROOT
BRANCH   1   6
ATOM      6  C   UNL     1       0.269  11.404  18.666  0.00  0.00    +0.000 C 
BRANCH   6   7
ATOM      7  S   UNL     1      -1.184  11.707  19.717  0.00  0.00    +0.000 S 
BRANCH   7  14
ATOM      8  C   UNL     1      -2.890  10.439  15.051  0.00  0.00    +0.000 C 
ATOM      9  C   UNL     1      -3.210  10.935  16.431  0.00  0.00    +0.000 A 
ATOM     10  C   UNL     1      -4.501  11.310  16.756  0.00  0.00    +0.000 A 
ATOM     11  C   UNL     1      -4.708  11.759  18.041  0.00  0.00    +0.000 A 
ATOM     12  C   UNL     1      -6.068  12.195  18.510  0.00  0.00    +0.000 C 
ATOM     13  N   UNL     1      -3.708  11.845  18.943  0.00  0.00    +0.000 NA
ATOM     14  C   UNL     1      -2.485  11.468  18.539  0.00  0.00    +0.000 A 
ATOM     15  N   UNL     1      -2.191  10.999  17.316  0.00  0.00    +0.000 NA
ENDBRANCH   7  14
ENDBRANCH   6   7
ENDBRANCH   1   6
BRANCH   4  16
ATOM     16  S   UNL     1       3.155   7.178  17.847  0.00  0.00    +0.000 S 
BRANCH  16  17
ATOM     17  C   UNL     1       3.447   6.048  19.235  0.00  0.00    +0.000 C 
BRANCH  17  18
ATOM     18  C   UNL     1       2.602   4.793  19.164  0.00  0.00    +0.000 A 
ATOM     19  C   UNL     1       1.612   4.584  20.145  0.00  0.00    +0.000 A 
ATOM     20  C   UNL     1       0.775   3.460  20.100  0.00  0.00    +0.000 A 
ATOM     21  C   UNL     1       0.912   2.527  19.079  0.00  0.00    +0.000 A 
ATOM     22  C   UNL     1       1.899   2.705  18.110  0.00  0.00    +0.000 A 
ATOM     23  C   UNL     1       2.747   3.822  18.157  0.00  0.00    +0.000 A 
ATOM     24 CL   UNL     1       3.963   3.945  16.936  0.00  0.00    +0.000 Cl
ENDBRANCH  17  18
ENDBRANCH  16  17
ENDBRANCH   4  16
TORSDOF 6
ENDMDL
MODEL 9
REMARK VINA RESULT:      -7.1      1.912      2.821
REMARK  Name = 
REMARK  8 active torsions:
REMARK  status: ('A' for Active; 'I' for Inactive)
REMARK    1  A    between atoms: C_1  and  C_2
REMARK    2  A    between atoms: C_4  and  C_5
REMARK    3  A    between atoms: C_7  and  S_8
REMARK    4  A    between atoms: S_8  and  C_9
REMARK    5  A    between atoms: C_9  and  C_10
REMARK    6  A    between atoms: C_13  and  S_14
REMARK    7  A    between atoms: S_14  and  C_15
REMARK    8  A    between atoms: C_15  and  C_16
REMARK                            x       y       z     vdW  Elec       q    Type
REMARK                         _______ _______ _______ _____ _____    ______ ____
ROOT
ATOM      1  C   UNL     1       7.687   6.893  17.941  0.00  0.00    +0.000 A 
ATOM      2  N   UNL     1       7.290   7.698  16.977  0.00  0.00    +0.000 NA
ATOM      3  N   UNL     1       7.786   8.951  17.284  0.00  0.00    +0.000 NA
ATOM      4  C   UNL     1       8.469   8.832  18.406  0.00  0.00    +0.000 A 
ATOM      5  O   UNL     1       8.450   7.545  18.883  0.00  0.00    +0.000 OA
ENDROOT
BRANCH   1   6
ATOM      6  C   UNL     1       7.498   5.421  18.072  0.00  0.00    +0.000 C 
BRANCH   6   7
ATOM      7  S   UNL     1       6.717   4.702  16.596  0.00  0.00    +0.000 S 
BRANCH   7  14
ATOM      8  C   UNL     1       2.517   7.137  18.243  0.00  0.00    +0.000 C 
ATOM      9  C   UNL     1       3.169   5.839  17.867  0.00  0.00    +0.000 A 
ATOM     10  C   UNL     1       2.483   4.646  18.008  0.00  0.00    +0.000 A 
ATOM     11  C   UNL     1       3.155   3.501  17.646  0.00  0.00    +0.000 A 
ATOM     12  C   UNL     1       2.513   2.147  17.756  0.00  0.00    +0.000 C 
ATOM     13  N   UNL     1       4.424   3.526  17.188  0.00  0.00    +0.000 NA
ATOM     14  C   UNL     1       5.017   4.726  17.091  0.00  0.00    +0.000 A 
ATOM     15  N   UNL     1       4.436   5.897  17.400  0.00  0.00    +0.000 NA
ENDBRANCH   7  14
ENDBRANCH   6   7
ENDBRANCH   1   6
BRANCH   4  16
ATOM     16  S   UNL     1       9.310  10.150  19.175  0.00  0.00    +0.000 S 
BRANCH  16  17
ATOM     17  C   UNL     1       8.933  11.510  18.035  0.00  0.00    +0.000 C 
BRANCH  17  18
ATOM     18  C   UNL     1       9.418  12.854  18.536  0.00  0.00    +0.000 A 
ATOM     19  C   UNL     1       8.488  13.739  19.118  0.00  0.00    +0.000 A 
ATOM     20  C   UNL     1       8.893  14.977  19.636  0.00  0.00    +0.000 A 
ATOM     21  C   UNL     1      10.230  15.353  19.582  0.00  0.00    +0.000 A 
ATOM     22  C   UNL     1      11.163  14.500  18.993  0.00  0.00    +0.000 A 
ATOM     23  C   UNL     1      10.761  13.265  18.463  0.00  0.00    +0.000 A 
ATOM     24 CL   UNL     1      11.978  12.289  17.722  0.00  0.00    +0.000 Cl
ENDBRANCH  17  18
ENDBRANCH  16  17
ENDBRANCH   4  16
TORSDOF 6
ENDMDL
