MODEL 1
REMARK VINA RESULT:      -6.9      0.000      0.000
REMARK  Name = 
REMARK  6 active torsions:
REMARK  status: ('A' for Active; 'I' for Inactive)
REMARK    1  A    between atoms: C_1  and  C_2
REMARK    2  A    between atoms: C_4  and  C_5
REMARK    3  A    between atoms: C_13  and  O_14
REMARK    4  A    between atoms: O_14  and  C_15
REMARK    5  A    between atoms: C_15  and  C_16
REMARK    6  A    between atoms: C_15  and  C_17
REMARK                            x       y       z     vdW  Elec       q    Type
REMARK                         _______ _______ _______ _____ _____    ______ ____
ROOT
ATOM      1  C   UNL     1       0.644  10.021  19.189  0.00  0.00    +0.000 C 
ATOM      2  C   UNL     1       1.554   8.838  19.114  0.00  0.00    +0.000 A 
ATOM      3  S   UNL     1       2.575   8.642  17.766  0.00  0.00    +0.000 S 
ATOM      4  C   UNL     1       3.219   7.167  18.365  0.00  0.00    +0.000 A 
ATOM      5  C   UNL     1       2.588   6.781  19.538  0.00  0.00    +0.000 A 
ATOM      6  C   UNL     1       1.703   7.812  20.025  0.00  0.00    +0.000 A 
ATOM      7 CL   UNL     1       0.889   7.812  21.537  0.00  0.00    +0.000 Cl
ENDROOT
BRANCH   4   8
ATOM      8  C   UNL     1       4.275   6.523  17.586  0.00  0.00    +0.000 C 
ATOM      9  O   UNL     1       4.364   6.653  16.369  0.00  0.00    +0.000 OA
ATOM     10  N   UNL     1       5.186   5.824  18.346  0.00  0.00    +0.000 N 
ATOM     11  C   UNL     1       6.289   5.202  17.833  0.00  0.00    +0.000 A 
ATOM     12  N   UNL     1       6.573   5.057  16.501  0.00  0.00    +0.000 NA
ATOM     13  N   UNL     1       7.732   4.417  16.422  0.00  0.00    +0.000 NA
ATOM     14  N   UNL     1       8.093   4.229  17.693  0.00  0.00    +0.000 N 
ATOM     15  N   UNL     1       7.231   4.673  18.625  0.00  0.00    +0.000 NA
ATOM     16  H   UNL     1       5.106   5.803  19.351  0.00  0.00    +0.000 HD
ATOM     17  H   UNL     1       8.973   3.781  17.934  0.00  0.00    +0.000 HD
ENDBRANCH   4   8
BRANCH   5  18
ATOM     18  O   UNL     1       2.900   5.568  20.076  0.00  0.00    +0.000 OA
BRANCH  18  19
ATOM     19  C   UNL     1       1.861   4.574  20.082  0.00  0.00    +0.000 C 
ATOM     20  C   UNL     1       1.838   3.679  18.840  0.00  0.00    +0.000 C 
ATOM     21  C   UNL     1       2.099   3.699  21.314  0.00  0.00    +0.000 C 
ENDBRANCH  18  19
ENDBRANCH   5  18
TORSDOF 3
ENDMDL
MODEL 2
REMARK VINA RESULT:      -6.6      2.459      4.077
REMARK  Name = 
REMARK  6 active torsions:
REMARK  status: ('A' for Active; 'I' for Inactive)
REMARK    1  A    between atoms: C_1  and  C_2
REMARK    2  A    between atoms: C_4  and  C_5
REMARK    3  A    between atoms: C_13  and  O_14
REMARK    4  A    between atoms: O_14  and  C_15
REMARK    5  A    between atoms: C_15  and  C_16
REMARK    6  A    between atoms: C_15  and  C_17
REMARK                            x       y       z     vdW  Elec       q    Type
REMARK                         _______ _______ _______ _____ _____    ______ ____
ROOT
ATOM      1  C   UNL     1       2.550   2.123  21.542  0.00  0.00    +0.000 C 
ATOM      2  C   UNL     1       2.959   3.058  20.450  0.00  0.00    +0.000 A 
ATOM      3  S   UNL     1       4.572   3.067  19.905  0.00  0.00    +0.000 S 
ATOM      4  C   UNL     1       4.267   4.317  18.768  0.00  0.00    +0.000 A 
ATOM      5  C   UNL     1       2.967   4.788  18.873  0.00  0.00    +0.000 A 
ATOM      6  C   UNL     1       2.183   3.976  19.772  0.00  0.00    +0.000 A 
ATOM      7 CL   UNL     1       0.489   4.100  20.027  0.00  0.00    +0.000 Cl
ENDROOT
BRANCH   4   8
ATOM      8  C   UNL     1       5.370   4.726  17.899  0.00  0.00    +0.000 C 
ATOM      9  O   UNL     1       6.456   5.087  18.344  0.00  0.00    +0.000 OA
ATOM     10  N   UNL     1       5.100   4.605  16.555  0.00  0.00    +0.000 N 
ATOM     11  C   UNL     1       6.008   4.867  15.568  0.00  0.00    +0.000 A 
ATOM     12  N   UNL     1       7.248   5.418  15.755  0.00  0.00    +0.000 NA
ATOM     13  N   UNL     1       7.819   5.492  14.560  0.00  0.00    +0.000 NA
ATOM     14  N   UNL     1       6.914   4.971  13.728  0.00  0.00    +0.000 N 
ATOM     15  N   UNL     1       5.754   4.581  14.284  0.00  0.00    +0.000 NA
ATOM     16  H   UNL     1       4.214   4.240  16.241  0.00  0.00    +0.000 HD
ATOM     17  H   UNL     1       7.102   4.873  12.734  0.00  0.00    +0.000 HD
ENDBRANCH   4   8
BRANCH   5  18
ATOM     18  O   UNL     1       2.603   5.866  18.122  0.00  0.00    +0.000 OA
BRANCH  18  19
ATOM     19  C   UNL     1       2.920   7.164  18.653  0.00  0.00    +0.000 C 
ATOM     20  C   UNL     1       2.617   8.325  17.701  0.00  0.00    +0.000 C 
ATOM     21  C   UNL     1       2.082   7.337  19.921  0.00  0.00    +0.000 C 
ENDBRANCH  18  19
ENDBRANCH   5  18
TORSDOF 3
ENDMDL
MODEL 3
REMARK VINA RESULT:      -6.5      2.454      4.160
REMARK  Name = 
REMARK  6 active torsions:
REMARK  status: ('A' for Active; 'I' for Inactive)
REMARK    1  A    between atoms: C_1  and  C_2
REMARK    2  A    between atoms: C_4  and  C_5
REMARK    3  A    between atoms: C_13  and  O_14
REMARK    4  A    between atoms: O_14  and  C_15
REMARK    5  A    between atoms: C_15  and  C_16
REMARK    6  A    between atoms: C_15  and  C_17
REMARK                            x       y       z     vdW  Elec       q    Type
REMARK                         _______ _______ _______ _____ _____    ______ ____
ROOT
ATOM      1  C   UNL     1       1.541   1.603  19.455  0.00  0.00    +0.000 C 
ATOM      2  C   UNL     1       2.334   2.808  19.065  0.00  0.00    +0.000 A 
ATOM      3  S   UNL     1       3.665   2.641  18.016  0.00  0.00    +0.000 S 
ATOM      4  C   UNL     1       4.026   4.318  18.075  0.00  0.00    +0.000 A 
ATOM      5  C   UNL     1       3.196   4.982  18.965  0.00  0.00    +0.000 A 
ATOM      6  C   UNL     1       2.145   4.121  19.448  0.00  0.00    +0.000 A 
ATOM      7 CL   UNL     1       0.803   4.604  20.406  0.00  0.00    +0.000 Cl
ENDROOT
BRANCH   4   8
ATOM      8  C   UNL     1       5.129   4.803  17.245  0.00  0.00    +0.000 C 
ATOM      9  O   UNL     1       6.046   5.479  17.703  0.00  0.00    +0.000 OA
ATOM     10  N   UNL     1       5.075   4.378  15.937  0.00  0.00    +0.000 N 
ATOM     11  C   UNL     1       6.035   4.656  15.005  0.00  0.00    +0.000 A 
ATOM     12  N   UNL     1       7.097   5.502  15.186  0.00  0.00    +0.000 NA
ATOM     13  N   UNL     1       7.798   5.485  14.060  0.00  0.00    +0.000 NA
ATOM     14  N   UNL     1       7.142   4.626  13.275  0.00  0.00    +0.000 N 
ATOM     15  N   UNL     1       6.022   4.089  13.791  0.00  0.00    +0.000 NA
ATOM     16  H   UNL     1       4.334   3.769  15.626  0.00  0.00    +0.000 HD
ATOM     17  H   UNL     1       7.480   4.393  12.345  0.00  0.00    +0.000 HD
ENDBRANCH   4   8
BRANCH   5  18
ATOM     18  O   UNL     1       3.435   6.301  19.219  0.00  0.00    +0.000 OA
BRANCH  18  19
ATOM     19  C   UNL     1       2.382   7.225  18.898  0.00  0.00    +0.000 C 
ATOM     20  C   UNL     1       1.867   8.033  20.093  0.00  0.00    +0.000 C 
ATOM     21  C   UNL     1       2.949   8.193  17.858  0.00  0.00    +0.000 C 
ENDBRANCH  18  19
ENDBRANCH   5  18
TORSDOF 3
ENDMDL
MODEL 4
REMARK VINA RESULT:      -6.4      2.265      2.931
REMARK  Name = 
REMARK  6 active torsions:
REMARK  status: ('A' for Active; 'I' for Inactive)
REMARK    1  A    between atoms: C_1  and  C_2
REMARK    2  A    between atoms: C_4  and  C_5
REMARK    3  A    between atoms: C_13  and  O_14
REMARK    4  A    between atoms: O_14  and  C_15
REMARK    5  A    between atoms: C_15  and  C_16
REMARK    6  A    between atoms: C_15  and  C_17
REMARK                            x       y       z     vdW  Elec       q    Type
REMARK                         _______ _______ _______ _____ _____    ______ ____
ROOT
ATOM      1  C   UNL     1       1.026   6.879  20.920  0.00  0.00    +0.000 C 
ATOM      2  C   UNL     1       2.130   6.147  20.227  0.00  0.00    +0.000 A 
ATOM      3  S   UNL     1       3.081   6.954  19.067  0.00  0.00    +0.000 S 
ATOM      4  C   UNL     1       4.019   5.553  18.744  0.00  0.00    +0.000 A 
ATOM      5  C   UNL     1       3.546   4.455  19.446  0.00  0.00    +0.000 A 
ATOM      6  C   UNL     1       2.522   4.834  20.389  0.00  0.00    +0.000 A 
ATOM      7 CL   UNL     1       1.821   3.816  21.581  0.00  0.00    +0.000 Cl
ENDROOT
BRANCH   4   8
ATOM      8  C   UNL     1       5.123   5.682  17.793  0.00  0.00    +0.000 C 
ATOM      9  O   UNL     1       6.179   6.236  18.085  0.00  0.00    +0.000 OA
ATOM     10  N   UNL     1       4.893   5.072  16.580  0.00  0.00    +0.000 N 
ATOM     11  C   UNL     1       5.812   5.011  15.571  0.00  0.00    +0.000 A 
ATOM     12  N   UNL     1       7.020   5.658  15.555  0.00  0.00    +0.000 NA
ATOM     13  N   UNL     1       7.617   5.330  14.417  0.00  0.00    +0.000 NA
ATOM     14  N   UNL     1       6.759   4.497  13.822  0.00  0.00    +0.000 N 
ATOM     15  N   UNL     1       5.605   4.271  14.474  0.00  0.00    +0.000 NA
ATOM     16  H   UNL     1       4.034   4.572  16.413  0.00  0.00    +0.000 HD
ATOM     17  H   UNL     1       6.977   4.059  12.931  0.00  0.00    +0.000 HD
ENDBRANCH   4   8
BRANCH   5  18
ATOM     18  O   UNL     1       4.108   3.237  19.205  0.00  0.00    +0.000 OA
BRANCH  18  19
ATOM     19  C   UNL     1       3.228   2.194  18.751  0.00  0.00    +0.000 C 
ATOM     20  C   UNL     1       2.381   2.571  17.532  0.00  0.00    +0.000 C 
ATOM     21  C   UNL     1       4.113   1.001  18.385  0.00  0.00    +0.000 C 
ENDBRANCH  18  19
ENDBRANCH   5  18
TORSDOF 3
ENDMDL
MODEL 5
REMARK VINA RESULT:      -6.2      3.870      5.744
REMARK  Name = 
REMARK  6 active torsions:
REMARK  status: ('A' for Active; 'I' for Inactive)
REMARK    1  A    between atoms: C_1  and  C_2
REMARK    2  A    between atoms: C_4  and  C_5
REMARK    3  A    between atoms: C_13  and  O_14
REMARK    4  A    between atoms: O_14  and  C_15
REMARK    5  A    between atoms: C_15  and  C_16
REMARK    6  A    between atoms: C_15  and  C_17
REMARK                            x       y       z     vdW  Elec       q    Type
REMARK                         _______ _______ _______ _____ _____    ______ ____
ROOT
ATOM      1  C   UNL     1       6.025   4.344  16.271  0.00  0.00    +0.000 C 
ATOM      2  C   UNL     1       4.836   4.892  16.992  0.00  0.00    +0.000 A 
ATOM      3  S   UNL     1       4.631   6.577  17.127  0.00  0.00    +0.000 S 
ATOM      4  C   UNL     1       3.182   6.411  18.031  0.00  0.00    +0.000 A 
ATOM      5  C   UNL     1       2.910   5.080  18.310  0.00  0.00    +0.000 A 
ATOM      6  C   UNL     1       3.812   4.200  17.607  0.00  0.00    +0.000 A 
ATOM      7 CL   UNL     1       3.693   2.488  17.524  0.00  0.00    +0.000 Cl
ENDROOT
BRANCH   4   8
ATOM      8  C   UNL     1       2.470   7.634  18.402  0.00  0.00    +0.000 C 
ATOM      9  O   UNL     1       2.229   8.523  17.590  0.00  0.00    +0.000 OA
ATOM     10  N   UNL     1       2.044   7.661  19.711  0.00  0.00    +0.000 N 
ATOM     11  C   UNL     1       1.305   8.675  20.251  0.00  0.00    +0.000 A 
ATOM     12  N   UNL     1       1.005   9.859  19.630  0.00  0.00    +0.000 NA
ATOM     13  N   UNL     1       0.261  10.558  20.476  0.00  0.00    +0.000 NA
ATOM     14  N   UNL     1       0.134   9.763  21.541  0.00  0.00    +0.000 N 
ATOM     15  N   UNL     1       0.777   8.584  21.478  0.00  0.00    +0.000 NA
ATOM     16  H   UNL     1       2.210   6.875  20.320  0.00  0.00    +0.000 HD
ATOM     17  H   UNL     1      -0.422  10.039  22.345  0.00  0.00    +0.000 HD
ENDBRANCH   4   8
BRANCH   5  18
ATOM     18  O   UNL     1       1.858   4.787  19.126  0.00  0.00    +0.000 OA
BRANCH  18  19
ATOM     19  C   UNL     1       1.938   3.562  19.875  0.00  0.00    +0.000 C 
ATOM     20  C   UNL     1       1.998   3.756  21.393  0.00  0.00    +0.000 C 
ATOM     21  C   UNL     1       0.686   2.755  19.530  0.00  0.00    +0.000 C 
ENDBRANCH  18  19
ENDBRANCH   5  18
TORSDOF 3
ENDMDL
MODEL 6
REMARK VINA RESULT:      -6.1      1.334      1.680
REMARK  Name = 
REMARK  6 active torsions:
REMARK  status: ('A' for Active; 'I' for Inactive)
REMARK    1  A    between atoms: C_1  and  C_2
REMARK    2  A    between atoms: C_4  and  C_5
REMARK    3  A    between atoms: C_13  and  O_14
REMARK    4  A    between atoms: O_14  and  C_15
REMARK    5  A    between atoms: C_15  and  C_16
REMARK    6  A    between atoms: C_15  and  C_17
REMARK                            x       y       z     vdW  Elec       q    Type
REMARK                         _______ _______ _______ _____ _____    ______ ____
ROOT
ATOM      1  C   UNL     1       1.018   9.819  18.959  0.00  0.00    +0.000 C 
ATOM      2  C   UNL     1       1.775   8.536  19.072  0.00  0.00    +0.000 A 
ATOM      3  S   UNL     1       2.793   8.041  17.800  0.00  0.00    +0.000 S 
ATOM      4  C   UNL     1       3.236   6.593  18.610  0.00  0.00    +0.000 A 
ATOM      5  C   UNL     1       2.538   6.446  19.798  0.00  0.00    +0.000 A 
ATOM      6  C   UNL     1       1.778   7.631  20.114  0.00  0.00    +0.000 A 
ATOM      7 CL   UNL     1       0.938   7.931  21.582  0.00  0.00    +0.000 Cl
ENDROOT
BRANCH   4   8
ATOM      8  C   UNL     1       4.222   5.729  17.961  0.00  0.00    +0.000 C 
ATOM      9  O   UNL     1       4.521   4.625  18.408  0.00  0.00    +0.000 OA
ATOM     10  N   UNL     1       4.722   6.235  16.783  0.00  0.00    +0.000 N 
ATOM     11  C   UNL     1       5.602   5.566  15.979  0.00  0.00    +0.000 A 
ATOM     12  N   UNL     1       6.219   4.383  16.287  0.00  0.00    +0.000 NA
ATOM     13  N   UNL     1       6.976   4.062  15.246  0.00  0.00    +0.000 NA
ATOM     14  N   UNL     1       6.764   5.044  14.367  0.00  0.00    +0.000 N 
ATOM     15  N   UNL     1       5.936   6.026  14.766  0.00  0.00    +0.000 NA
ATOM     16  H   UNL     1       4.394   7.118  16.424  0.00  0.00    +0.000 HD
ATOM     17  H   UNL     1       7.201   5.039  13.450  0.00  0.00    +0.000 HD
ENDBRANCH   4   8
BRANCH   5  18
ATOM     18  O   UNL     1       2.686   5.287  20.501  0.00  0.00    +0.000 OA
BRANCH  18  19
ATOM     19  C   UNL     1       1.530   4.438  20.605  0.00  0.00    +0.000 C 
ATOM     20  C   UNL     1       1.146   3.735  19.300  0.00  0.00    +0.000 C 
ATOM     21  C   UNL     1       1.858   3.377  21.657  0.00  0.00    +0.000 C 
ENDBRANCH  18  19
ENDBRANCH   5  18
TORSDOF 3
ENDMDL
MODEL 7
REMARK VINA RESULT:      -6.1      2.099      2.616
REMARK  Name = 
REMARK  6 active torsions:
REMARK  status: ('A' for Active; 'I' for Inactive)
REMARK    1  A    between atoms: C_1  and  C_2
REMARK    2  A    between atoms: C_4  and  C_5
REMARK    3  A    between atoms: C_13  and  O_14
REMARK    4  A    between atoms: O_14  and  C_15
REMARK    5  A    between atoms: C_15  and  C_16
REMARK    6  A    between atoms: C_15  and  C_17
REMARK                            x       y       z     vdW  Elec       q    Type
REMARK                         _______ _______ _______ _____ _____    ______ ____
ROOT
ATOM      1  C   UNL     1       1.338   8.405  19.762  0.00  0.00    +0.000 C 
ATOM      2  C   UNL     1       2.343   7.465  19.176  0.00  0.00    +0.000 A 
ATOM      3  S   UNL     1       3.279   7.954  17.841  0.00  0.00    +0.000 S 
ATOM      4  C   UNL     1       4.093   6.444  17.756  0.00  0.00    +0.000 A 
ATOM      5  C   UNL     1       3.584   5.544  18.679  0.00  0.00    +0.000 A 
ATOM      6  C   UNL     1       2.648   6.179  19.574  0.00  0.00    +0.000 A 
ATOM      7 CL   UNL     1       1.946   5.469  20.972  0.00  0.00    +0.000 Cl
ENDROOT
BRANCH   4   8
ATOM      8  C   UNL     1       5.145   6.298  16.750  0.00  0.00    +0.000 C 
ATOM      9  O   UNL     1       6.183   6.952  16.788  0.00  0.00    +0.000 OA
ATOM     10  N   UNL     1       4.892   5.323  15.811  0.00  0.00    +0.000 N 
ATOM     11  C   UNL     1       5.767   4.973  14.822  0.00  0.00    +0.000 A 
ATOM     12  N   UNL     1       6.938   5.620  14.530  0.00  0.00    +0.000 NA
ATOM     13  N   UNL     1       7.499   4.964  13.523  0.00  0.00    +0.000 NA
ATOM     14  N   UNL     1       6.659   3.956  13.276  0.00  0.00    +0.000 N 
ATOM     15  N   UNL     1       5.548   3.912  14.033  0.00  0.00    +0.000 NA
ATOM     16  H   UNL     1       4.052   4.768  15.863  0.00  0.00    +0.000 HD
ATOM     17  H   UNL     1       6.858   3.262  12.561  0.00  0.00    +0.000 HD
ENDBRANCH   4   8
BRANCH   5  18
ATOM     18  O   UNL     1       4.041   4.259  18.655  0.00  0.00    +0.000 OA
BRANCH  18  19
ATOM     19  C   UNL     1       3.053   3.221  18.536  0.00  0.00    +0.000 C 
ATOM     20  C   UNL     1       2.255   3.259  17.230  0.00  0.00    +0.000 C 
ATOM     21  C   UNL     1       3.804   1.891  18.615  0.00  0.00    +0.000 C 
ENDBRANCH  18  19
ENDBRANCH   5  18
TORSDOF 3
ENDMDL
MODEL 8
REMARK VINA RESULT:      -6.1      2.429      3.208
REMARK  Name = 
REMARK  6 active torsions:
REMARK  status: ('A' for Active; 'I' for Inactive)
REMARK    1  A    between atoms: C_1  and  C_2
REMARK    2  A    between atoms: C_4  and  C_5
REMARK    3  A    between atoms: C_13  and  O_14
REMARK    4  A    between atoms: O_14  and  C_15
REMARK    5  A    between atoms: C_15  and  C_16
REMARK    6  A    between atoms: C_15  and  C_17
REMARK                            x       y       z     vdW  Elec       q    Type
REMARK                         _______ _______ _______ _____ _____    ______ ____
ROOT
ATOM      1  C   UNL     1       1.793   7.357  20.144  0.00  0.00    +0.000 C 
ATOM      2  C   UNL     1       2.810   6.560  19.392  0.00  0.00    +0.000 A 
ATOM      3  S   UNL     1       3.638   7.267  18.082  0.00  0.00    +0.000 S 
ATOM      4  C   UNL     1       4.526   5.832  17.764  0.00  0.00    +0.000 A 
ATOM      5  C   UNL     1       4.123   4.795  18.591  0.00  0.00    +0.000 A 
ATOM      6  C   UNL     1       3.209   5.256  19.608  0.00  0.00    +0.000 A 
ATOM      7 CL   UNL     1       2.632   4.337  20.939  0.00  0.00    +0.000 Cl
ENDROOT
BRANCH   4   8
ATOM      8  C   UNL     1       5.522   5.876  16.694  0.00  0.00    +0.000 C 
ATOM      9  O   UNL     1       6.527   6.577  16.763  0.00  0.00    +0.000 OA
ATOM     10  N   UNL     1       5.262   5.016  15.650  0.00  0.00    +0.000 N 
ATOM     11  C   UNL     1       6.093   4.846  14.579  0.00  0.00    +0.000 A 
ATOM     12  N   UNL     1       7.211   5.591  14.313  0.00  0.00    +0.000 NA
ATOM     13  N   UNL     1       7.743   5.102  13.201  0.00  0.00    +0.000 NA
ATOM     14  N   UNL     1       6.941   4.088  12.869  0.00  0.00    +0.000 N 
ATOM     15  N   UNL     1       5.881   3.885  13.670  0.00  0.00    +0.000 NA
ATOM     16  H   UNL     1       4.456   4.412  15.673  0.00  0.00    +0.000 HD
ATOM     17  H   UNL     1       7.132   3.504  12.059  0.00  0.00    +0.000 HD
ENDBRANCH   4   8
BRANCH   5  18
ATOM     18  O   UNL     1       4.646   3.554  18.381  0.00  0.00    +0.000 OA
BRANCH  18  19
ATOM     19  C   UNL     1       3.777   2.573  17.790  0.00  0.00    +0.000 C 
ATOM     20  C   UNL     1       3.334   1.465  18.749  0.00  0.00    +0.000 C 
ATOM     21  C   UNL     1       2.538   3.325  17.300  0.00  0.00    +0.000 C 
ENDBRANCH  18  19
ENDBRANCH   5  18
TORSDOF 3
ENDMDL
MODEL 9
REMARK VINA RESULT:      -6.1      2.387      4.019
REMARK  Name = 
REMARK  6 active torsions:
REMARK  status: ('A' for Active; 'I' for Inactive)
REMARK    1  A    between atoms: C_1  and  C_2
REMARK    2  A    between atoms: C_4  and  C_5
REMARK    3  A    between atoms: C_13  and  O_14
REMARK    4  A    between atoms: O_14  and  C_15
REMARK    5  A    between atoms: C_15  and  C_16
REMARK    6  A    between atoms: C_15  and  C_17
REMARK                            x       y       z     vdW  Elec       q    Type
REMARK                         _______ _______ _______ _____ _____    ______ ____
ROOT
ATOM      1  C   UNL     1       2.602   2.591  21.659  0.00  0.00    +0.000 C 
ATOM      2  C   UNL     1       2.824   3.265  20.344  0.00  0.00    +0.000 A 
ATOM      3  S   UNL     1       4.029   2.686  19.289  0.00  0.00    +0.000 S 
ATOM      4  C   UNL     1       3.705   3.900  18.120  0.00  0.00    +0.000 A 
ATOM      5  C   UNL     1       2.750   4.797  18.575  0.00  0.00    +0.000 A 
ATOM      6  C   UNL     1       2.163   4.357  19.817  0.00  0.00    +0.000 A 
ATOM      7 CL   UNL     1       0.817   5.073  20.607  0.00  0.00    +0.000 Cl
ENDROOT
BRANCH   4   8
ATOM      8  C   UNL     1       4.461   3.854  16.869  0.00  0.00    +0.000 C 
ATOM      9  O   UNL     1       4.085   3.202  15.899  0.00  0.00    +0.000 OA
ATOM     10  N   UNL     1       5.580   4.655  16.860  0.00  0.00    +0.000 N 
ATOM     11  C   UNL     1       6.394   4.816  15.775  0.00  0.00    +0.000 A 
ATOM     12  N   UNL     1       6.307   4.110  14.604  0.00  0.00    +0.000 NA
ATOM     13  N   UNL     1       7.258   4.574  13.804  0.00  0.00    +0.000 NA
ATOM     14  N   UNL     1       7.849   5.537  14.516  0.00  0.00    +0.000 N 
ATOM     15  N   UNL     1       7.377   5.727  15.760  0.00  0.00    +0.000 NA
ATOM     16  H   UNL     1       5.810   5.224  17.661  0.00  0.00    +0.000 HD
ATOM     17  H   UNL     1       8.607   6.093  14.130  0.00  0.00    +0.000 HD
ENDBRANCH   4   8
BRANCH   5  18
ATOM     18  O   UNL     1       2.470   5.892  17.812  0.00  0.00    +0.000 OA
BRANCH  18  19
ATOM     19  C   UNL     1       3.099   7.127  18.193  0.00  0.00    +0.000 C 
ATOM     20  C   UNL     1       4.215   7.582  17.248  0.00  0.00    +0.000 C 
ATOM     21  C   UNL     1       2.001   8.192  18.208  0.00  0.00    +0.000 C 
ENDBRANCH  18  19
ENDBRANCH   5  18
TORSDOF 3
ENDMDL
