MODEL 1
REMARK VINA RESULT:      -7.6      0.000      0.000
REMARK  Name = 
REMARK  4 active torsions:
REMARK  status: ('A' for Active; 'I' for Inactive)
REMARK    1  A    between atoms: C_1  and  O_2
REMARK    2  A    between atoms: O_2  and  C_3
REMARK    3  A    between atoms: C_5  and  C_6
REMARK    4  A    between atoms: C_22  and  O_23
REMARK                            x       y       z     vdW  Elec       q    Type
REMARK                         _______ _______ _______ _____ _____    ______ ____
ROOT
ATOM      1  C   UNL     1       2.084   7.563  19.535  0.00  0.00    +0.000 A 
ATOM      2  C   UNL     1       2.375   8.179  18.389  0.00  0.00    +0.000 A 
ATOM      3  C   UNL     1       1.893   9.541  18.154  0.00  0.00    +0.000 A 
ATOM      4  O   UNL     1       2.137  10.123  17.112  0.00  0.00    +0.000 OA
ATOM      5  C   UNL     1       1.111  10.155  19.231  0.00  0.00    +0.000 A 
ATOM      6  C   UNL     1       0.623  11.453  19.083  0.00  0.00    +0.000 A 
ATOM      7  C   UNL     1      -0.113  12.024  20.115  0.00  0.00    +0.000 A 
ATOM      8 BR   UNL     1      -0.786  13.780  19.919  0.00  0.00    +0.000 Br
ATOM      9  C   UNL     1      -0.360  11.314  21.288  0.00  0.00    +0.000 A 
ATOM     10  C   UNL     1       0.134  10.011  21.428  0.00  0.00    +0.000 A 
ATOM     11 BR   UNL     1      -0.225   9.088  23.046  0.00  0.00    +0.000 Br
ATOM     12  C   UNL     1       0.872   9.420  20.397  0.00  0.00    +0.000 A 
ATOM     13  O   UNL     1       1.337   8.134  20.559  0.00  0.00    +0.000 OA
ENDROOT
BRANCH   1  16
ATOM     14  C   UNL     1       4.259   4.447  19.562  0.00  0.00    +0.000 A 
ATOM     15  C   UNL     1       3.816   5.760  19.345  0.00  0.00    +0.000 A 
ATOM     16  C   UNL     1       2.561   6.189  19.801  0.00  0.00    +0.000 A 
ATOM     17  C   UNL     1       1.758   5.278  20.506  0.00  0.00    +0.000 A 
ATOM     18  C   UNL     1       2.198   3.980  20.738  0.00  0.00    +0.000 A 
ATOM     19 CL   UNL     1       1.181   2.892  21.609  0.00  0.00    +0.000 Cl
ATOM     20  C   UNL     1       3.444   3.563  20.276  0.00  0.00    +0.000 A 
BRANCH  14  22
ATOM     21  C   UNL     1       6.416   5.270  19.060  0.00  0.00    +0.000 C 
ATOM     22  O   UNL     1       5.511   4.169  19.078  0.00  0.00    +0.000 OA
ENDBRANCH  14  22
BRANCH  20  23
ATOM     23  O   UNL     1       3.870   2.286  20.546  0.00  0.00    +0.000 OA
ATOM     24  H   UNL     1       4.268   1.920  19.737  0.00  0.00    +0.000 HD
ENDBRANCH  20  23
ENDBRANCH   1  16
TORSDOF 3
ENDMDL
MODEL 2
REMARK VINA RESULT:      -7.3      2.522      3.709
REMARK  Name = 
REMARK  4 active torsions:
REMARK  status: ('A' for Active; 'I' for Inactive)
REMARK    1  A    between atoms: C_1  and  O_2
REMARK    2  A    between atoms: O_2  and  C_3
REMARK    3  A    between atoms: C_5  and  C_6
REMARK    4  A    between atoms: C_22  and  O_23
REMARK                            x       y       z     vdW  Elec       q    Type
REMARK                         _______ _______ _______ _____ _____    ______ ____
ROOT
ATOM      1  C   UNL     1       1.110   8.378  20.727  0.00  0.00    +0.000 A 
ATOM      2  C   UNL     1       1.172   8.532  22.049  0.00  0.00    +0.000 A 
ATOM      3  C   UNL     1       0.411   9.605  22.692  0.00  0.00    +0.000 A 
ATOM      4  O   UNL     1       0.458   9.773  23.898  0.00  0.00    +0.000 OA
ATOM      5  C   UNL     1      -0.398  10.453  21.813  0.00  0.00    +0.000 A 
ATOM      6  C   UNL     1      -1.155  11.492  22.353  0.00  0.00    +0.000 A 
ATOM      7  C   UNL     1      -1.923  12.286  21.507  0.00  0.00    +0.000 A 
ATOM      8 BR   UNL     1      -2.944  13.702  22.231  0.00  0.00    +0.000 Br
ATOM      9  C   UNL     1      -1.942  12.047  20.135  0.00  0.00    +0.000 A 
ATOM     10  C   UNL     1      -1.178  11.001  19.601  0.00  0.00    +0.000 A 
ATOM     11 BR   UNL     1      -1.243  10.714  17.727  0.00  0.00    +0.000 Br
ATOM     12  C   UNL     1      -0.397  10.197  20.438  0.00  0.00    +0.000 A 
ATOM     13  O   UNL     1       0.350   9.183  19.883  0.00  0.00    +0.000 OA
ENDROOT
BRANCH   1  16
ATOM     14  C   UNL     1       2.618   4.978  19.951  0.00  0.00    +0.000 A 
ATOM     15  C   UNL     1       1.876   5.997  20.566  0.00  0.00    +0.000 A 
ATOM     16  C   UNL     1       1.864   7.301  20.051  0.00  0.00    +0.000 A 
ATOM     17  C   UNL     1       2.596   7.567  18.883  0.00  0.00    +0.000 A 
ATOM     18  C   UNL     1       3.322   6.558  18.260  0.00  0.00    +0.000 A 
ATOM     19 CL   UNL     1       4.209   6.926  16.826  0.00  0.00    +0.000 Cl
ATOM     20  C   UNL     1       3.332   5.267  18.783  0.00  0.00    +0.000 A 
BRANCH  14  22
ATOM     21  C   UNL     1       1.207   3.220  20.657  0.00  0.00    +0.000 C 
ATOM     22  O   UNL     1       2.526   3.749  20.550  0.00  0.00    +0.000 OA
ENDBRANCH  14  22
BRANCH  20  23
ATOM     23  O   UNL     1       4.029   4.280  18.131  0.00  0.00    +0.000 OA
ATOM     24  H   UNL     1       3.789   4.310  17.188  0.00  0.00    +0.000 HD
ENDBRANCH  20  23
ENDBRANCH   1  16
TORSDOF 3
ENDMDL
MODEL 3
REMARK VINA RESULT:      -7.0      2.092      3.061
REMARK  Name = 
REMARK  4 active torsions:
REMARK  status: ('A' for Active; 'I' for Inactive)
REMARK    1  A    between atoms: C_1  and  O_2
REMARK    2  A    between atoms: O_2  and  C_3
REMARK    3  A    between atoms: C_5  and  C_6
REMARK    4  A    between atoms: C_22  and  O_23
REMARK                            x       y       z     vdW  Elec       q    Type
REMARK                         _______ _______ _______ _____ _____    ______ ____
ROOT
ATOM      1  C   UNL     1       1.167   8.265  20.725  0.00  0.00    +0.000 A 
ATOM      2  C   UNL     1       1.254   8.469  22.039  0.00  0.00    +0.000 A 
ATOM      3  C   UNL     1       0.517   9.576  22.652  0.00  0.00    +0.000 A 
ATOM      4  O   UNL     1       0.587   9.791  23.849  0.00  0.00    +0.000 OA
ATOM      5  C   UNL     1      -0.296  10.400  21.754  0.00  0.00    +0.000 A 
ATOM      6  C   UNL     1      -1.031  11.469  22.265  0.00  0.00    +0.000 A 
ATOM      7  C   UNL     1      -1.803  12.239  21.401  0.00  0.00    +0.000 A 
ATOM      8 BR   UNL     1      -2.795  13.695  22.086  0.00  0.00    +0.000 Br
ATOM      9  C   UNL     1      -1.848  11.947  20.040  0.00  0.00    +0.000 A 
ATOM     10  C   UNL     1      -1.107  10.871  19.535  0.00  0.00    +0.000 A 
ATOM     11 BR   UNL     1      -1.207  10.512  17.675  0.00  0.00    +0.000 Br
ATOM     12  C   UNL     1      -0.322  10.090  20.390  0.00  0.00    +0.000 A 
ATOM     13  O   UNL     1       0.403   9.046  19.863  0.00  0.00    +0.000 OA
ENDROOT
BRANCH   1  16
ATOM     14  C   UNL     1       3.282   6.296  18.257  0.00  0.00    +0.000 A 
ATOM     15  C   UNL     1       2.618   7.354  18.894  0.00  0.00    +0.000 A 
ATOM     16  C   UNL     1       1.896   7.152  20.079  0.00  0.00    +0.000 A 
ATOM     17  C   UNL     1       1.869   5.863  20.635  0.00  0.00    +0.000 A 
ATOM     18  C   UNL     1       2.537   4.813  20.016  0.00  0.00    +0.000 A 
ATOM     19 CL   UNL     1       2.478   3.244  20.732  0.00  0.00    +0.000 Cl
ATOM     20  C   UNL     1       3.247   5.024  18.836  0.00  0.00    +0.000 A 
BRANCH  14  22
ATOM     21  C   UNL     1       5.350   6.911  17.294  0.00  0.00    +0.000 C 
ATOM     22  O   UNL     1       3.962   6.639  17.117  0.00  0.00    +0.000 OA
ENDBRANCH  14  22
BRANCH  20  23
ATOM     23  O   UNL     1       3.926   3.977  18.262  0.00  0.00    +0.000 OA
ATOM     24  H   UNL     1       4.364   4.304  17.458  0.00  0.00    +0.000 HD
ENDBRANCH  20  23
ENDBRANCH   1  16
TORSDOF 3
ENDMDL
MODEL 4
REMARK VINA RESULT:      -7.0      1.626      2.278
REMARK  Name = 
REMARK  4 active torsions:
REMARK  status: ('A' for Active; 'I' for Inactive)
REMARK    1  A    between atoms: C_1  and  O_2
REMARK    2  A    between atoms: O_2  and  C_3
REMARK    3  A    between atoms: C_5  and  C_6
REMARK    4  A    between atoms: C_22  and  O_23
REMARK                            x       y       z     vdW  Elec       q    Type
REMARK                         _______ _______ _______ _____ _____    ______ ____
ROOT
ATOM      1  C   UNL     1       2.069   7.938  19.099  0.00  0.00    +0.000 A 
ATOM      2  C   UNL     1       2.432   8.724  18.085  0.00  0.00    +0.000 A 
ATOM      3  C   UNL     1       1.999  10.122  18.059  0.00  0.00    +0.000 A 
ATOM      4  O   UNL     1       2.308  10.859  17.139  0.00  0.00    +0.000 OA
ATOM      5  C   UNL     1       1.183  10.577  19.188  0.00  0.00    +0.000 A 
ATOM      6  C   UNL     1       0.737  11.897  19.237  0.00  0.00    +0.000 A 
ATOM      7  C   UNL     1      -0.032  12.317  20.317  0.00  0.00    +0.000 A 
ATOM      8 BR   UNL     1      -0.647  14.103  20.385  0.00  0.00    +0.000 Br
ATOM      9  C   UNL     1      -0.354  11.432  21.344  0.00  0.00    +0.000 A 
ATOM     10  C   UNL     1       0.097  10.107  21.286  0.00  0.00    +0.000 A 
ATOM     11 BR   UNL     1      -0.363   8.944  22.712  0.00  0.00    +0.000 Br
ATOM     12  C   UNL     1       0.868   9.669  20.204  0.00  0.00    +0.000 A 
ATOM     13  O   UNL     1       1.289   8.359  20.171  0.00  0.00    +0.000 OA
ENDROOT
BRANCH   1  16
ATOM     14  C   UNL     1       2.678   4.406  20.361  0.00  0.00    +0.000 A 
ATOM     15  C   UNL     1       2.244   5.738  20.287  0.00  0.00    +0.000 A 
ATOM     16  C   UNL     1       2.496   6.524  19.153  0.00  0.00    +0.000 A 
ATOM     17  C   UNL     1       3.176   5.941  18.072  0.00  0.00    +0.000 A 
ATOM     18  C   UNL     1       3.595   4.616  18.133  0.00  0.00    +0.000 A 
ATOM     19 CL   UNL     1       4.428   3.938  16.782  0.00  0.00    +0.000 Cl
ATOM     20  C   UNL     1       3.345   3.846  19.266  0.00  0.00    +0.000 A 
BRANCH  14  22
ATOM     21  C   UNL     1       1.281   2.814  21.408  0.00  0.00    +0.000 C 
ATOM     22  O   UNL     1       2.350   3.751  21.519  0.00  0.00    +0.000 OA
ENDBRANCH  14  22
BRANCH  20  23
ATOM     23  O   UNL     1       3.740   2.531  19.288  0.00  0.00    +0.000 OA
ATOM     24  H   UNL     1       3.598   2.156  18.402  0.00  0.00    +0.000 HD
ENDBRANCH  20  23
ENDBRANCH   1  16
TORSDOF 3
ENDMDL
MODEL 5
REMARK VINA RESULT:      -6.6      5.488      9.606
REMARK  Name = 
REMARK  4 active torsions:
REMARK  status: ('A' for Active; 'I' for Inactive)
REMARK    1  A    between atoms: C_1  and  O_2
REMARK    2  A    between atoms: O_2  and  C_3
REMARK    3  A    between atoms: C_5  and  C_6
REMARK    4  A    between atoms: C_22  and  O_23
REMARK                            x       y       z     vdW  Elec       q    Type
REMARK                         _______ _______ _______ _____ _____    ______ ____
ROOT
ATOM      1  C   UNL     1      -1.859  11.849  22.290  0.00  0.00    +0.000 A 
ATOM      2  C   UNL     1      -1.054  11.183  23.118  0.00  0.00    +0.000 A 
ATOM      3  C   UNL     1      -0.037  10.282  22.573  0.00  0.00    +0.000 A 
ATOM      4  O   UNL     1       0.704   9.653  23.308  0.00  0.00    +0.000 OA
ATOM      5  C   UNL     1       0.035  10.179  21.113  0.00  0.00    +0.000 A 
ATOM      6  C   UNL     1       0.981   9.345  20.520  0.00  0.00    +0.000 A 
ATOM      7  C   UNL     1       1.041   9.261  19.133  0.00  0.00    +0.000 A 
ATOM      8 BR   UNL     1       2.316   8.125  18.322  0.00  0.00    +0.000 Br
ATOM      9  C   UNL     1       0.170  10.005  18.340  0.00  0.00    +0.000 A 
ATOM     10  C   UNL     1      -0.778  10.840  18.944  0.00  0.00    +0.000 A 
ATOM     11 BR   UNL     1      -1.938  11.835  17.820  0.00  0.00    +0.000 Br
ATOM     12  C   UNL     1      -0.855  10.931  20.338  0.00  0.00    +0.000 A 
ATOM     13  O   UNL     1      -1.803  11.753  20.903  0.00  0.00    +0.000 OA
ENDROOT
BRANCH   1  16
ATOM     14  C   UNL     1      -5.203  13.562  22.855  0.00  0.00    +0.000 A 
ATOM     15  C   UNL     1      -4.226  12.669  22.393  0.00  0.00    +0.000 A 
ATOM     16  C   UNL     1      -2.891  12.770  22.812  0.00  0.00    +0.000 A 
ATOM     17  C   UNL     1      -2.552  13.777  23.729  0.00  0.00    +0.000 A 
ATOM     18  C   UNL     1      -3.519  14.656  24.204  0.00  0.00    +0.000 A 
ATOM     19 CL   UNL     1      -3.061  15.879  25.331  0.00  0.00    +0.000 Cl
ATOM     20  C   UNL     1      -4.841  14.550  23.777  0.00  0.00    +0.000 A 
BRANCH  14  22
ATOM     21  C   UNL     1      -7.276  12.475  23.174  0.00  0.00    +0.000 C 
ATOM     22  O   UNL     1      -6.468  13.337  22.378  0.00  0.00    +0.000 OA
ENDBRANCH  14  22
BRANCH  20  23
ATOM     23  O   UNL     1      -5.784  15.409  24.285  0.00  0.00    +0.000 OA
ATOM     24  H   UNL     1      -5.408  16.306  24.288  0.00  0.00    +0.000 HD
ENDBRANCH  20  23
ENDBRANCH   1  16
TORSDOF 3
ENDMDL
MODEL 6
REMARK VINA RESULT:      -6.6      2.298      3.466
REMARK  Name = 
REMARK  4 active torsions:
REMARK  status: ('A' for Active; 'I' for Inactive)
REMARK    1  A    between atoms: C_1  and  O_2
REMARK    2  A    between atoms: O_2  and  C_3
REMARK    3  A    between atoms: C_5  and  C_6
REMARK    4  A    between atoms: C_22  and  O_23
REMARK                            x       y       z     vdW  Elec       q    Type
REMARK                         _______ _______ _______ _____ _____    ______ ____
ROOT
ATOM      1  C   UNL     1       1.521   7.995  20.168  0.00  0.00    +0.000 A 
ATOM      2  C   UNL     1       0.709   7.750  21.196  0.00  0.00    +0.000 A 
ATOM      3  C   UNL     1      -0.074   8.840  21.780  0.00  0.00    +0.000 A 
ATOM      4  O   UNL     1      -0.816   8.644  22.726  0.00  0.00    +0.000 OA
ATOM      5  C   UNL     1       0.086  10.163  21.170  0.00  0.00    +0.000 A 
ATOM      6  C   UNL     1      -0.631  11.250  21.668  0.00  0.00    +0.000 A 
ATOM      7  C   UNL     1      -0.472  12.498  21.076  0.00  0.00    +0.000 A 
ATOM      8 BR   UNL     1      -1.434  13.979  21.751  0.00  0.00    +0.000 Br
ATOM      9  C   UNL     1       0.389  12.665  19.993  0.00  0.00    +0.000 A 
ATOM     10  C   UNL     1       1.105  11.567  19.500  0.00  0.00    +0.000 A 
ATOM     11 BR   UNL     1       2.260  11.846  18.021  0.00  0.00    +0.000 Br
ATOM     12  C   UNL     1       0.961  10.307  20.087  0.00  0.00    +0.000 A 
ATOM     13  O   UNL     1       1.685   9.249  19.587  0.00  0.00    +0.000 OA
ENDROOT
BRANCH   1  16
ATOM     14  C   UNL     1       3.121   4.603  19.557  0.00  0.00    +0.000 A 
ATOM     15  C   UNL     1       2.337   5.626  20.112  0.00  0.00    +0.000 A 
ATOM     16  C   UNL     1       2.320   6.913  19.555  0.00  0.00    +0.000 A 
ATOM     17  C   UNL     1       3.090   7.156  18.408  0.00  0.00    +0.000 A 
ATOM     18  C   UNL     1       3.858   6.143  17.844  0.00  0.00    +0.000 A 
ATOM     19 CL   UNL     1       4.791   6.484  16.433  0.00  0.00    +0.000 Cl
ATOM     20  C   UNL     1       3.872   4.869  18.408  0.00  0.00    +0.000 A 
BRANCH  14  22
ATOM     21  C   UNL     1       2.283   3.394  21.405  0.00  0.00    +0.000 C 
ATOM     22  O   UNL     1       3.030   3.392  20.191  0.00  0.00    +0.000 OA
ENDBRANCH  14  22
BRANCH  20  23
ATOM     23  O   UNL     1       4.612   3.877  17.813  0.00  0.00    +0.000 OA
ATOM     24  H   UNL     1       4.464   3.922  16.853  0.00  0.00    +0.000 HD
ENDBRANCH  20  23
ENDBRANCH   1  16
TORSDOF 3
ENDMDL
MODEL 7
REMARK VINA RESULT:      -6.6      2.511      3.733
REMARK  Name = 
REMARK  4 active torsions:
REMARK  status: ('A' for Active; 'I' for Inactive)
REMARK    1  A    between atoms: C_1  and  O_2
REMARK    2  A    between atoms: O_2  and  C_3
REMARK    3  A    between atoms: C_5  and  C_6
REMARK    4  A    between atoms: C_22  and  O_23
REMARK                            x       y       z     vdW  Elec       q    Type
REMARK                         _______ _______ _______ _____ _____    ______ ____
ROOT
ATOM      1  C   UNL     1       1.175   8.685  20.687  0.00  0.00    +0.000 A 
ATOM      2  C   UNL     1       0.402   8.573  21.768  0.00  0.00    +0.000 A 
ATOM      3  C   UNL     1      -0.233   9.764  22.334  0.00  0.00    +0.000 A 
ATOM      4  O   UNL     1      -0.936   9.690  23.326  0.00  0.00    +0.000 OA
ATOM      5  C   UNL     1       0.025  11.033  21.648  0.00  0.00    +0.000 A 
ATOM      6  C   UNL     1      -0.549  12.211  22.125  0.00  0.00    +0.000 A 
ATOM      7  C   UNL     1      -0.299  13.407  21.461  0.00  0.00    +0.000 A 
ATOM      8 BR   UNL     1      -1.067  15.009  22.107  0.00  0.00    +0.000 Br
ATOM      9  C   UNL     1       0.511  13.434  20.328  0.00  0.00    +0.000 A 
ATOM     10  C   UNL     1       1.084  12.246  19.856  0.00  0.00    +0.000 A 
ATOM     11 BR   UNL     1       2.175  12.335  18.307  0.00  0.00    +0.000 Br
ATOM     12  C   UNL     1       0.847  11.035  20.515  0.00  0.00    +0.000 A 
ATOM     13  O   UNL     1       1.431   9.886  20.034  0.00  0.00    +0.000 OA
ENDROOT
BRANCH   1  16
ATOM     14  C   UNL     1       2.336   5.109  20.141  0.00  0.00    +0.000 A 
ATOM     15  C   UNL     1       1.694   6.232  20.680  0.00  0.00    +0.000 A 
ATOM     16  C   UNL     1       1.824   7.498  20.091  0.00  0.00    +0.000 A 
ATOM     17  C   UNL     1       2.599   7.618  18.927  0.00  0.00    +0.000 A 
ATOM     18  C   UNL     1       3.227   6.505  18.378  0.00  0.00    +0.000 A 
ATOM     19 CL   UNL     1       4.170   6.695  16.946  0.00  0.00    +0.000 Cl
ATOM     20  C   UNL     1       3.095   5.253  18.975  0.00  0.00    +0.000 A 
BRANCH  14  22
ATOM     21  C   UNL     1       0.995   3.174  20.344  0.00  0.00    +0.000 C 
ATOM     22  O   UNL     1       2.109   3.933  20.808  0.00  0.00    +0.000 OA
ENDBRANCH  14  22
BRANCH  20  23
ATOM     23  O   UNL     1       3.697   4.163  18.395  0.00  0.00    +0.000 OA
ATOM     24  H   UNL     1       4.519   3.977  18.881  0.00  0.00    +0.000 HD
ENDBRANCH  20  23
ENDBRANCH   1  16
TORSDOF 3
ENDMDL
MODEL 8
REMARK VINA RESULT:      -6.5      2.055      3.057
REMARK  Name = 
REMARK  4 active torsions:
REMARK  status: ('A' for Active; 'I' for Inactive)
REMARK    1  A    between atoms: C_1  and  O_2
REMARK    2  A    between atoms: O_2  and  C_3
REMARK    3  A    between atoms: C_5  and  C_6
REMARK    4  A    between atoms: C_22  and  O_23
REMARK                            x       y       z     vdW  Elec       q    Type
REMARK                         _______ _______ _______ _____ _____    ______ ____
ROOT
ATOM      1  C   UNL     1       1.140   8.631  20.714  0.00  0.00    +0.000 A 
ATOM      2  C   UNL     1       0.365   8.626  21.799  0.00  0.00    +0.000 A 
ATOM      3  C   UNL     1      -0.223   9.877  22.277  0.00  0.00    +0.000 A 
ATOM      4  O   UNL     1      -0.927   9.901  23.272  0.00  0.00    +0.000 OA
ATOM      5  C   UNL     1       0.081  11.084  21.503  0.00  0.00    +0.000 A 
ATOM      6  C   UNL     1      -0.447  12.313  21.894  0.00  0.00    +0.000 A 
ATOM      7  C   UNL     1      -0.154  13.449  21.146  0.00  0.00    +0.000 A 
ATOM      8 BR   UNL     1      -0.860  15.121  21.675  0.00  0.00    +0.000 Br
ATOM      9  C   UNL     1       0.655  13.364  20.015  0.00  0.00    +0.000 A 
ATOM     10  C   UNL     1       1.182  12.124  19.630  0.00  0.00    +0.000 A 
ATOM     11 BR   UNL     1       2.274  12.061  18.080  0.00  0.00    +0.000 Br
ATOM     12  C   UNL     1       0.901  10.974  20.374  0.00  0.00    +0.000 A 
ATOM     13  O   UNL     1       1.440   9.772  19.977  0.00  0.00    +0.000 OA
ENDROOT
BRANCH   1  16
ATOM     14  C   UNL     1       3.031   6.182  18.508  0.00  0.00    +0.000 A 
ATOM     15  C   UNL     1       2.486   7.371  19.016  0.00  0.00    +0.000 A 
ATOM     16  C   UNL     1       1.744   7.381  20.205  0.00  0.00    +0.000 A 
ATOM     17  C   UNL     1       1.572   6.172  20.898  0.00  0.00    +0.000 A 
ATOM     18  C   UNL     1       2.122   4.993  20.408  0.00  0.00    +0.000 A 
ATOM     19 CL   UNL     1       1.889   3.528  21.290  0.00  0.00    +0.000 Cl
ATOM     20  C   UNL     1       2.854   4.993  19.223  0.00  0.00    +0.000 A 
BRANCH  14  22
ATOM     21  C   UNL     1       5.150   6.512  17.516  0.00  0.00    +0.000 C 
ATOM     22  O   UNL     1       3.747   6.321  17.348  0.00  0.00    +0.000 OA
ENDBRANCH  14  22
BRANCH  20  23
ATOM     23  O   UNL     1       3.415   3.822  18.777  0.00  0.00    +0.000 OA
ATOM     24  H   UNL     1       4.072   3.530  19.432  0.00  0.00    +0.000 HD
ENDBRANCH  20  23
ENDBRANCH   1  16
TORSDOF 3
ENDMDL
MODEL 9
REMARK VINA RESULT:      -6.5      7.229      9.975
REMARK  Name = 
REMARK  4 active torsions:
REMARK  status: ('A' for Active; 'I' for Inactive)
REMARK    1  A    between atoms: C_1  and  O_2
REMARK    2  A    between atoms: O_2  and  C_3
REMARK    3  A    between atoms: C_5  and  C_6
REMARK    4  A    between atoms: C_22  and  O_23
REMARK                            x       y       z     vdW  Elec       q    Type
REMARK                         _______ _______ _______ _____ _____    ______ ____
ROOT
ATOM      1  C   UNL     1      -4.327  12.513  20.055  0.00  0.00    +0.000 A 
ATOM      2  C   UNL     1      -5.446  12.743  19.368  0.00  0.00    +0.000 A 
ATOM      3  C   UNL     1      -5.547  12.302  17.976  0.00  0.00    +0.000 A 
ATOM      4  O   UNL     1      -6.554  12.510  17.322  0.00  0.00    +0.000 OA
ATOM      5  C   UNL     1      -4.382  11.608  17.421  0.00  0.00    +0.000 A 
ATOM      6  C   UNL     1      -4.405  11.152  16.104  0.00  0.00    +0.000 A 
ATOM      7  C   UNL     1      -3.294  10.490  15.593  0.00  0.00    +0.000 A 
ATOM      8 BR   UNL     1      -3.315   9.878  13.804  0.00  0.00    +0.000 Br
ATOM      9  C   UNL     1      -2.168  10.278  16.386  0.00  0.00    +0.000 A 
ATOM     10  C   UNL     1      -2.154  10.739  17.708  0.00  0.00    +0.000 A 
ATOM     11 BR   UNL     1      -0.600  10.419  18.748  0.00  0.00    +0.000 Br
ATOM     12  C   UNL     1      -3.261  11.411  18.236  0.00  0.00    +0.000 A 
ATOM     13  O   UNL     1      -3.214  11.860  19.536  0.00  0.00    +0.000 OA
ENDROOT
BRANCH   1  16
ATOM     14  C   UNL     1      -5.207  13.415  23.640  0.00  0.00    +0.000 A 
ATOM     15  C   UNL     1      -5.315  12.974  22.313  0.00  0.00    +0.000 A 
ATOM     16  C   UNL     1      -4.199  12.943  21.464  0.00  0.00    +0.000 A 
ATOM     17  C   UNL     1      -2.955  13.343  21.977  0.00  0.00    +0.000 A 
ATOM     18  C   UNL     1      -2.839  13.767  23.297  0.00  0.00    +0.000 A 
ATOM     19 CL   UNL     1      -1.292  14.251  23.889  0.00  0.00    +0.000 Cl
ATOM     20  C   UNL     1      -3.955  13.799  24.130  0.00  0.00    +0.000 A 
BRANCH  14  22
ATOM     21  C   UNL     1      -7.443  12.660  23.752  0.00  0.00    +0.000 C 
ATOM     22  O   UNL     1      -6.372  13.377  24.361  0.00  0.00    +0.000 OA
ENDBRANCH  14  22
BRANCH  20  23
ATOM     23  O   UNL     1      -3.808  14.191  25.438  0.00  0.00    +0.000 OA
ATOM     24  H   UNL     1      -3.014  14.750  25.501  0.00  0.00    +0.000 HD
ENDBRANCH  20  23
ENDBRANCH   1  16
TORSDOF 3
ENDMDL
