MODEL 1
REMARK VINA RESULT:      -8.3      0.000      0.000
REMARK  Name = 
REMARK  8 active torsions:
REMARK  status: ('A' for Active; 'I' for Inactive)
REMARK    1  A    between atoms: C_2  and  C_3
REMARK    2  A    between atoms: C_3  and  O_4
REMARK    3  A    between atoms: O_4  and  C_5
REMARK    4  A    between atoms: C_5  and  C_7
REMARK    5  A    between atoms: C_7  and  C_8
REMARK    6  A    between atoms: C_8  and  C_9
REMARK    7  A    between atoms: N_18  and  C_19
REMARK    8  A    between atoms: C_19  and  C_20
REMARK                            x       y       z     vdW  Elec       q    Type
REMARK                         _______ _______ _______ _____ _____    ______ ____
ROOT
ATOM      1  C   UNL     1       2.614   2.112  19.103  0.00  0.00    +0.000 C 
ENDROOT
BRANCH   1   3
ATOM      2  O   UNL     1       2.315   3.708  17.311  0.00  0.00    +0.000 OA
ATOM      3  C   UNL     1       3.096   3.010  17.953  0.00  0.00    +0.000 C 
ATOM      4  N   UNL     1       4.452   2.989  17.728  0.00  0.00    +0.000 N 
ATOM      5  H   UNL     1       5.031   2.402  18.311  0.00  0.00    +0.000 HD
BRANCH   4   6
ATOM      6  C   UNL     1       5.099   3.733  16.676  0.00  0.00    +0.000 C 
BRANCH   6   7
ATOM      7  C   UNL     1       5.990   4.801  17.260  0.00  0.00    +0.000 A 
ATOM      8  C   UNL     1       6.894   4.468  18.295  0.00  0.00    +0.000 A 
ATOM      9  C   UNL     1       7.771   5.421  18.823  0.00  0.00    +0.000 A 
ATOM     10  C   UNL     1       7.727   6.695  18.300  0.00  0.00    +0.000 A 
ATOM     11  C   UNL     1       6.847   7.032  17.297  0.00  0.00    +0.000 A 
ATOM     12  C   UNL     1       5.974   6.113  16.751  0.00  0.00    +0.000 A 
ATOM     13  O   UNL     1       6.964   8.340  16.932  0.00  0.00    +0.000 OA
ATOM     14  C   UNL     1       7.975   8.790  17.856  0.00  0.00    +0.000 C 
ATOM     15  O   UNL     1       8.504   7.738  18.689  0.00  0.00    +0.000 OA
ENDBRANCH   6   7
ENDBRANCH   4   6
ENDBRANCH   1   3
BRANCH   1  16
ATOM     16  O   UNL     1       1.476   2.605  19.815  0.00  0.00    +0.000 OA
BRANCH  16  17
ATOM     17  C   UNL     1       1.776   3.358  20.910  0.00  0.00    +0.000 C 
ATOM     18  O   UNL     1       2.306   2.938  21.927  0.00  0.00    +0.000 OA
BRANCH  17  19
ATOM     19  C   UNL     1       1.458   4.808  20.663  0.00  0.00    +0.000 C 
BRANCH  19  20
ATOM     20  C   UNL     1       2.717   5.581  20.306  0.00  0.00    +0.000 C 
BRANCH  20  21
ATOM     21  C   UNL     1       2.423   6.817  19.518  0.00  0.00    +0.000 A 
ATOM     22  C   UNL     1       2.798   7.069  18.213  0.00  0.00    +0.000 A 
ATOM     23  N   UNL     1       2.340   8.313  17.866  0.00  0.00    +0.000 N 
ATOM     24  C   UNL     1       1.687   8.893  18.928  0.00  0.00    +0.000 A 
ATOM     25  C   UNL     1       1.079  10.151  19.037  0.00  0.00    +0.000 A 
ATOM     26  C   UNL     1       0.495  10.483  20.263  0.00  0.00    +0.000 A 
ATOM     27  C   UNL     1       0.504   9.587  21.329  0.00  0.00    +0.000 A 
ATOM     28  C   UNL     1       1.105   8.330  21.198  0.00  0.00    +0.000 A 
ATOM     29  C   UNL     1       1.717   7.974  19.979  0.00  0.00    +0.000 A 
ATOM     30  H   UNL     1       2.472   8.753  16.966  0.00  0.00    +0.000 HD
ENDBRANCH  20  21
ENDBRANCH  19  20
ENDBRANCH  17  19
ENDBRANCH  16  17
ENDBRANCH   1  16
TORSDOF 8
ENDMDL
MODEL 2
REMARK VINA RESULT:      -8.0      0.694      1.334
REMARK  Name = 
REMARK  8 active torsions:
REMARK  status: ('A' for Active; 'I' for Inactive)
REMARK    1  A    between atoms: C_2  and  C_3
REMARK    2  A    between atoms: C_3  and  O_4
REMARK    3  A    between atoms: O_4  and  C_5
REMARK    4  A    between atoms: C_5  and  C_7
REMARK    5  A    between atoms: C_7  and  C_8
REMARK    6  A    between atoms: C_8  and  C_9
REMARK    7  A    between atoms: N_18  and  C_19
REMARK    8  A    between atoms: C_19  and  C_20
REMARK                            x       y       z     vdW  Elec       q    Type
REMARK                         _______ _______ _______ _____ _____    ______ ____
ROOT
ATOM      1  C   UNL     1       2.664   1.970  19.551  0.00  0.00    +0.000 C 
ENDROOT
BRANCH   1   3
ATOM      2  O   UNL     1       2.044   2.925  17.417  0.00  0.00    +0.000 OA
ATOM      3  C   UNL     1       2.951   2.559  18.161  0.00  0.00    +0.000 C 
ATOM      4  N   UNL     1       4.283   2.665  17.839  0.00  0.00    +0.000 N 
ATOM      5  H   UNL     1       4.971   2.359  18.511  0.00  0.00    +0.000 HD
BRANCH   4   6
ATOM      6  C   UNL     1       4.761   3.160  16.571  0.00  0.00    +0.000 C 
BRANCH   6   7
ATOM      7  C   UNL     1       5.452   4.488  16.752  0.00  0.00    +0.000 A 
ATOM      8  C   UNL     1       5.047   5.599  15.976  0.00  0.00    +0.000 A 
ATOM      9  C   UNL     1       5.630   6.857  16.154  0.00  0.00    +0.000 A 
ATOM     10  C   UNL     1       6.611   6.981  17.114  0.00  0.00    +0.000 A 
ATOM     11  C   UNL     1       7.019   5.906  17.870  0.00  0.00    +0.000 A 
ATOM     12  C   UNL     1       6.458   4.653  17.722  0.00  0.00    +0.000 A 
ATOM     13  O   UNL     1       8.002   6.244  18.751  0.00  0.00    +0.000 OA
ATOM     14  C   UNL     1       8.196   7.634  18.421  0.00  0.00    +0.000 C 
ATOM     15  O   UNL     1       7.279   8.122  17.421  0.00  0.00    +0.000 OA
ENDBRANCH   6   7
ENDBRANCH   4   6
ENDBRANCH   1   3
BRANCH   1  16
ATOM     16  O   UNL     1       1.495   2.486  20.193  0.00  0.00    +0.000 OA
BRANCH  16  17
ATOM     17  C   UNL     1       1.732   3.505  21.065  0.00  0.00    +0.000 C 
ATOM     18  O   UNL     1       2.257   3.383  22.162  0.00  0.00    +0.000 OA
BRANCH  17  19
ATOM     19  C   UNL     1       1.351   4.827  20.456  0.00  0.00    +0.000 C 
BRANCH  19  20
ATOM     20  C   UNL     1       2.591   5.640  20.118  0.00  0.00    +0.000 C 
BRANCH  20  21
ATOM     21  C   UNL     1       2.256   6.962  19.507  0.00  0.00    +0.000 A 
ATOM     22  C   UNL     1       2.510   7.355  18.207  0.00  0.00    +0.000 A 
ATOM     23  N   UNL     1       2.055   8.638  18.048  0.00  0.00    +0.000 N 
ATOM     24  C   UNL     1       1.523   9.103  19.227  0.00  0.00    +0.000 A 
ATOM     25  C   UNL     1       0.963  10.350  19.536  0.00  0.00    +0.000 A 
ATOM     26  C   UNL     1       0.509  10.551  20.842  0.00  0.00    +0.000 A 
ATOM     27  C   UNL     1       0.596   9.539  21.795  0.00  0.00    +0.000 A 
ATOM     28  C   UNL     1       1.147   8.296  21.466  0.00  0.00    +0.000 A 
ATOM     29  C   UNL     1       1.629   8.070  20.161  0.00  0.00    +0.000 A 
ATOM     30  H   UNL     1       2.112   9.176  17.194  0.00  0.00    +0.000 HD
ENDBRANCH  20  21
ENDBRANCH  19  20
ENDBRANCH  17  19
ENDBRANCH  16  17
ENDBRANCH   1  16
TORSDOF 8
ENDMDL
MODEL 3
REMARK VINA RESULT:      -8.0      3.475      6.113
REMARK  Name = 
REMARK  8 active torsions:
REMARK  status: ('A' for Active; 'I' for Inactive)
REMARK    1  A    between atoms: C_2  and  C_3
REMARK    2  A    between atoms: C_3  and  O_4
REMARK    3  A    between atoms: O_4  and  C_5
REMARK    4  A    between atoms: C_5  and  C_7
REMARK    5  A    between atoms: C_7  and  C_8
REMARK    6  A    between atoms: C_8  and  C_9
REMARK    7  A    between atoms: N_18  and  C_19
REMARK    8  A    between atoms: C_19  and  C_20
REMARK                            x       y       z     vdW  Elec       q    Type
REMARK                         _______ _______ _______ _____ _____    ______ ____
ROOT
ATOM      1  C   UNL     1       7.809   6.300  18.595  0.00  0.00    +0.000 C 
ENDROOT
BRANCH   1   3
ATOM      2  O   UNL     1       7.029   7.597  16.709  0.00  0.00    +0.000 OA
ATOM      3  C   UNL     1       7.682   7.576  17.749  0.00  0.00    +0.000 C 
ATOM      4  N   UNL     1       8.326   8.679  18.260  0.00  0.00    +0.000 N 
ATOM      5  H   UNL     1       8.829   8.586  19.131  0.00  0.00    +0.000 HD
BRANCH   4   6
ATOM      6  C   UNL     1       8.357   9.962  17.603  0.00  0.00    +0.000 C 
BRANCH   6   7
ATOM      7  C   UNL     1       9.022  10.988  18.485  0.00  0.00    +0.000 A 
ATOM      8  C   UNL     1       9.478  10.614  19.771  0.00  0.00    +0.000 A 
ATOM      9  C   UNL     1      10.145  11.526  20.595  0.00  0.00    +0.000 A 
ATOM     10  C   UNL     1      10.347  12.801  20.112  0.00  0.00    +0.000 A 
ATOM     11  C   UNL     1       9.902  13.178  18.865  0.00  0.00    +0.000 A 
ATOM     12  C   UNL     1       9.246  12.299  18.027  0.00  0.00    +0.000 A 
ATOM     13  O   UNL     1      10.197  14.479  18.589  0.00  0.00    +0.000 OA
ATOM     14  C   UNL     1      10.827  14.882  19.822  0.00  0.00    +0.000 C 
ATOM     15  O   UNL     1      10.975  13.808  20.772  0.00  0.00    +0.000 OA
ENDBRANCH   6   7
ENDBRANCH   4   6
ENDBRANCH   1   3
BRANCH   1  16
ATOM     16  O   UNL     1       7.520   5.085  17.898  0.00  0.00    +0.000 OA
BRANCH  16  17
ATOM     17  C   UNL     1       6.356   4.482  18.271  0.00  0.00    +0.000 C 
ATOM     18  O   UNL     1       6.032   4.232  19.423  0.00  0.00    +0.000 OA
BRANCH  17  19
ATOM     19  C   UNL     1       5.469   4.252  17.078  0.00  0.00    +0.000 C 
BRANCH  19  20
ATOM     20  C   UNL     1       4.466   5.385  16.927  0.00  0.00    +0.000 C 
BRANCH  20  21
ATOM     21  C   UNL     1       3.488   5.434  18.055  0.00  0.00    +0.000 A 
ATOM     22  C   UNL     1       3.285   6.488  18.924  0.00  0.00    +0.000 A 
ATOM     23  N   UNL     1       2.308   6.131  19.815  0.00  0.00    +0.000 N 
ATOM     24  C   UNL     1       1.876   4.851  19.560  0.00  0.00    +0.000 A 
ATOM     25  C   UNL     1       0.915   4.073  20.219  0.00  0.00    +0.000 A 
ATOM     26  C   UNL     1       0.690   2.779  19.742  0.00  0.00    +0.000 A 
ATOM     27  C   UNL     1       1.388   2.290  18.639  0.00  0.00    +0.000 A 
ATOM     28  C   UNL     1       2.335   3.085  17.986  0.00  0.00    +0.000 A 
ATOM     29  C   UNL     1       2.595   4.388  18.456  0.00  0.00    +0.000 A 
ATOM     30  H   UNL     1       1.958   6.714  20.563  0.00  0.00    +0.000 HD
ENDBRANCH  20  21
ENDBRANCH  19  20
ENDBRANCH  17  19
ENDBRANCH  16  17
ENDBRANCH   1  16
TORSDOF 8
ENDMDL
MODEL 4
REMARK VINA RESULT:      -7.9      3.928      6.745
REMARK  Name = 
REMARK  8 active torsions:
REMARK  status: ('A' for Active; 'I' for Inactive)
REMARK    1  A    between atoms: C_2  and  C_3
REMARK    2  A    between atoms: C_3  and  O_4
REMARK    3  A    between atoms: O_4  and  C_5
REMARK    4  A    between atoms: C_5  and  C_7
REMARK    5  A    between atoms: C_7  and  C_8
REMARK    6  A    between atoms: C_8  and  C_9
REMARK    7  A    between atoms: N_18  and  C_19
REMARK    8  A    between atoms: C_19  and  C_20
REMARK                            x       y       z     vdW  Elec       q    Type
REMARK                         _______ _______ _______ _____ _____    ______ ____
ROOT
ATOM      1  C   UNL     1       6.930   7.043  16.890  0.00  0.00    +0.000 C 
ENDROOT
BRANCH   1   3
ATOM      2  O   UNL     1       8.198   6.704  18.921  0.00  0.00    +0.000 OA
ATOM      3  C   UNL     1       7.839   7.488  18.046  0.00  0.00    +0.000 C 
ATOM      4  N   UNL     1       8.233   8.805  18.002  0.00  0.00    +0.000 N 
ATOM      5  H   UNL     1       7.910   9.383  17.239  0.00  0.00    +0.000 HD
BRANCH   4   6
ATOM      6  C   UNL     1       9.057   9.426  19.009  0.00  0.00    +0.000 C 
BRANCH   6   7
ATOM      7  C   UNL     1       9.374  10.850  18.624  0.00  0.00    +0.000 A 
ATOM      8  C   UNL     1       8.470  11.571  17.810  0.00  0.00    +0.000 A 
ATOM      9  C   UNL     1       8.707  12.908  17.476  0.00  0.00    +0.000 A 
ATOM     10  C   UNL     1       9.849  13.502  17.968  0.00  0.00    +0.000 A 
ATOM     11  C   UNL     1      10.739  12.807  18.755  0.00  0.00    +0.000 A 
ATOM     12  C   UNL     1      10.530  11.488  19.107  0.00  0.00    +0.000 A 
ATOM     13  O   UNL     1      11.801  13.576  19.127  0.00  0.00    +0.000 OA
ATOM     14  C   UNL     1      11.498  14.807  18.440  0.00  0.00    +0.000 C 
ATOM     15  O   UNL     1      10.233  14.785  17.748  0.00  0.00    +0.000 OA
ENDBRANCH   6   7
ENDBRANCH   4   6
ENDBRANCH   1   3
BRANCH   1  16
ATOM     16  O   UNL     1       7.404   5.911  16.154  0.00  0.00    +0.000 OA
BRANCH  16  17
ATOM     17  C   UNL     1       6.568   5.491  15.163  0.00  0.00    +0.000 C 
ATOM     18  O   UNL     1       6.922   5.150  14.044  0.00  0.00    +0.000 OA
BRANCH  17  19
ATOM     19  C   UNL     1       5.151   5.404  15.661  0.00  0.00    +0.000 C 
BRANCH  19  20
ATOM     20  C   UNL     1       4.876   4.036  16.263  0.00  0.00    +0.000 C 
BRANCH  20  21
ATOM     21  C   UNL     1       4.490   4.114  17.704  0.00  0.00    +0.000 A 
ATOM     22  C   UNL     1       5.299   4.507  18.752  0.00  0.00    +0.000 A 
ATOM     23  N   UNL     1       4.570   4.433  19.910  0.00  0.00    +0.000 N 
ATOM     24  C   UNL     1       3.300   3.980  19.645  0.00  0.00    +0.000 A 
ATOM     25  C   UNL     1       2.228   3.734  20.514  0.00  0.00    +0.000 A 
ATOM     26  C   UNL     1       1.040   3.254  19.956  0.00  0.00    +0.000 A 
ATOM     27  C   UNL     1       0.924   3.045  18.584  0.00  0.00    +0.000 A 
ATOM     28  C   UNL     1       2.000   3.307  17.730  0.00  0.00    +0.000 A 
ATOM     29  C   UNL     1       3.217   3.776  18.266  0.00  0.00    +0.000 A 
ATOM     30  H   UNL     1       4.914   4.664  20.832  0.00  0.00    +0.000 HD
ENDBRANCH  20  21
ENDBRANCH  19  20
ENDBRANCH  17  19
ENDBRANCH  16  17
ENDBRANCH   1  16
TORSDOF 8
ENDMDL
MODEL 5
REMARK VINA RESULT:      -7.8      2.798      6.586
REMARK  Name = 
REMARK  8 active torsions:
REMARK  status: ('A' for Active; 'I' for Inactive)
REMARK    1  A    between atoms: C_2  and  C_3
REMARK    2  A    between atoms: C_3  and  O_4
REMARK    3  A    between atoms: O_4  and  C_5
REMARK    4  A    between atoms: C_5  and  C_7
REMARK    5  A    between atoms: C_7  and  C_8
REMARK    6  A    between atoms: C_8  and  C_9
REMARK    7  A    between atoms: N_18  and  C_19
REMARK    8  A    between atoms: C_19  and  C_20
REMARK                            x       y       z     vdW  Elec       q    Type
REMARK                         _______ _______ _______ _____ _____    ______ ____
ROOT
ATOM      1  C   UNL     1       2.745   2.258  19.466  0.00  0.00    +0.000 C 
ENDROOT
BRANCH   1   3
ATOM      2  O   UNL     1       0.679   3.109  20.392  0.00  0.00    +0.000 OA
ATOM      3  C   UNL     1       1.861   3.324  20.130  0.00  0.00    +0.000 C 
ATOM      4  N   UNL     1       2.497   4.506  20.427  0.00  0.00    +0.000 N 
ATOM      5  H   UNL     1       3.476   4.601  20.196  0.00  0.00    +0.000 HD
BRANCH   4   6
ATOM      6  C   UNL     1       1.837   5.643  21.020  0.00  0.00    +0.000 C 
BRANCH   6   7
ATOM      7  C   UNL     1       1.940   6.843  20.112  0.00  0.00    +0.000 A 
ATOM      8  C   UNL     1       2.652   6.739  18.894  0.00  0.00    +0.000 A 
ATOM      9  C   UNL     1       2.724   7.815  18.004  0.00  0.00    +0.000 A 
ATOM     10  C   UNL     1       2.076   8.981  18.351  0.00  0.00    +0.000 A 
ATOM     11  C   UNL     1       1.386   9.096  19.537  0.00  0.00    +0.000 A 
ATOM     12  C   UNL     1       1.292   8.049  20.432  0.00  0.00    +0.000 A 
ATOM     13  O   UNL     1       0.829  10.330  19.686  0.00  0.00    +0.000 OA
ATOM     14  C   UNL     1       1.293  10.984  18.488  0.00  0.00    +0.000 C 
ATOM     15  O   UNL     1       2.039  10.117  17.610  0.00  0.00    +0.000 OA
ENDBRANCH   6   7
ENDBRANCH   4   6
ENDBRANCH   1   3
BRANCH   1  16
ATOM     16  O   UNL     1       2.455   2.008  18.089  0.00  0.00    +0.000 OA
BRANCH  16  17
ATOM     17  C   UNL     1       2.621   3.085  17.271  0.00  0.00    +0.000 C 
ATOM     18  O   UNL     1       1.723   3.819  16.884  0.00  0.00    +0.000 OA
BRANCH  17  19
ATOM     19  C   UNL     1       4.080   3.318  16.986  0.00  0.00    +0.000 C 
BRANCH  19  20
ATOM     20  C   UNL     1       4.342   4.783  16.681  0.00  0.00    +0.000 C 
BRANCH  20  21
ATOM     21  C   UNL     1       5.584   4.985  15.874  0.00  0.00    +0.000 A 
ATOM     22  C   UNL     1       6.705   5.697  16.253  0.00  0.00    +0.000 A 
ATOM     23  N   UNL     1       7.614   5.645  15.229  0.00  0.00    +0.000 N 
ATOM     24  C   UNL     1       7.103   4.927  14.174  0.00  0.00    +0.000 A 
ATOM     25  C   UNL     1       7.665   4.633  12.925  0.00  0.00    +0.000 A 
ATOM     26  C   UNL     1       6.897   3.883  12.029  0.00  0.00    +0.000 A 
ATOM     27  C   UNL     1       5.626   3.432  12.378  0.00  0.00    +0.000 A 
ATOM     28  C   UNL     1       5.085   3.725  13.635  0.00  0.00    +0.000 A 
ATOM     29  C   UNL     1       5.830   4.493  14.552  0.00  0.00    +0.000 A 
ATOM     30  H   UNL     1       8.526   6.081  15.237  0.00  0.00    +0.000 HD
ENDBRANCH  20  21
ENDBRANCH  19  20
ENDBRANCH  17  19
ENDBRANCH  16  17
ENDBRANCH   1  16
TORSDOF 8
ENDMDL
MODEL 6
REMARK VINA RESULT:      -7.8      3.621      7.972
REMARK  Name = 
REMARK  8 active torsions:
REMARK  status: ('A' for Active; 'I' for Inactive)
REMARK    1  A    between atoms: C_2  and  C_3
REMARK    2  A    between atoms: C_3  and  O_4
REMARK    3  A    between atoms: O_4  and  C_5
REMARK    4  A    between atoms: C_5  and  C_7
REMARK    5  A    between atoms: C_7  and  C_8
REMARK    6  A    between atoms: C_8  and  C_9
REMARK    7  A    between atoms: N_18  and  C_19
REMARK    8  A    between atoms: C_19  and  C_20
REMARK                            x       y       z     vdW  Elec       q    Type
REMARK                         _______ _______ _______ _____ _____    ______ ____
ROOT
ATOM      1  C   UNL     1       7.111   6.387  16.711  0.00  0.00    +0.000 C 
ENDROOT
BRANCH   1   3
ATOM      2  O   UNL     1       5.069   6.700  15.452  0.00  0.00    +0.000 OA
ATOM      3  C   UNL     1       5.607   6.664  16.556  0.00  0.00    +0.000 C 
ATOM      4  N   UNL     1       4.923   6.837  17.737  0.00  0.00    +0.000 N 
ATOM      5  H   UNL     1       5.433   6.775  18.606  0.00  0.00    +0.000 HD
BRANCH   4   6
ATOM      6  C   UNL     1       3.515   7.139  17.807  0.00  0.00    +0.000 C 
BRANCH   6   7
ATOM      7  C   UNL     1       2.771   6.018  18.488  0.00  0.00    +0.000 A 
ATOM      8  C   UNL     1       2.359   6.168  19.833  0.00  0.00    +0.000 A 
ATOM      9  C   UNL     1       1.622   5.171  20.480  0.00  0.00    +0.000 A 
ATOM     10  C   UNL     1       1.307   4.038  19.763  0.00  0.00    +0.000 A 
ATOM     11  C   UNL     1       1.707   3.878  18.456  0.00  0.00    +0.000 A 
ATOM     12  C   UNL     1       2.430   4.846  17.789  0.00  0.00    +0.000 A 
ATOM     13  O   UNL     1       1.298   2.686  17.938  0.00  0.00    +0.000 OA
ATOM     14  C   UNL     1       0.646   2.101  19.084  0.00  0.00    +0.000 C 
ATOM     15  O   UNL     1       0.599   2.977  20.229  0.00  0.00    +0.000 OA
ENDBRANCH   6   7
ENDBRANCH   4   6
ENDBRANCH   1   3
BRANCH   1  16
ATOM     16  O   UNL     1       7.941   7.551  16.702  0.00  0.00    +0.000 OA
BRANCH  16  17
ATOM     17  C   UNL     1       8.179   8.086  17.932  0.00  0.00    +0.000 C 
ATOM     18  O   UNL     1       8.476   7.446  18.931  0.00  0.00    +0.000 OA
BRANCH  17  19
ATOM     19  C   UNL     1       8.128   9.588  17.880  0.00  0.00    +0.000 C 
BRANCH  19  20
ATOM     20  C   UNL     1       9.062  10.195  18.914  0.00  0.00    +0.000 C 
BRANCH  20  21
ATOM     21  C   UNL     1       9.925  11.272  18.341  0.00  0.00    +0.000 A 
ATOM     22  C   UNL     1      11.199  11.121  17.829  0.00  0.00    +0.000 A 
ATOM     23  N   UNL     1      11.644  12.348  17.412  0.00  0.00    +0.000 N 
ATOM     24  C   UNL     1      10.691  13.308  17.658  0.00  0.00    +0.000 A 
ATOM     25  C   UNL     1      10.717  14.689  17.417  0.00  0.00    +0.000 A 
ATOM     26  C   UNL     1       9.593  15.432  17.790  0.00  0.00    +0.000 A 
ATOM     27  C   UNL     1       8.484  14.816  18.364  0.00  0.00    +0.000 A 
ATOM     28  C   UNL     1       8.471  13.434  18.586  0.00  0.00    +0.000 A 
ATOM     29  C   UNL     1       9.597  12.662  18.236  0.00  0.00    +0.000 A 
ATOM     30  H   UNL     1      12.546  12.531  16.994  0.00  0.00    +0.000 HD
ENDBRANCH  20  21
ENDBRANCH  19  20
ENDBRANCH  17  19
ENDBRANCH  16  17
ENDBRANCH   1  16
TORSDOF 8
ENDMDL
MODEL 7
REMARK VINA RESULT:      -7.7      3.115      6.798
REMARK  Name = 
REMARK  8 active torsions:
REMARK  status: ('A' for Active; 'I' for Inactive)
REMARK    1  A    between atoms: C_2  and  C_3
REMARK    2  A    between atoms: C_3  and  O_4
REMARK    3  A    between atoms: O_4  and  C_5
REMARK    4  A    between atoms: C_5  and  C_7
REMARK    5  A    between atoms: C_7  and  C_8
REMARK    6  A    between atoms: C_8  and  C_9
REMARK    7  A    between atoms: N_18  and  C_19
REMARK    8  A    between atoms: C_19  and  C_20
REMARK                            x       y       z     vdW  Elec       q    Type
REMARK                         _______ _______ _______ _____ _____    ______ ____
ROOT
ATOM      1  C   UNL     1       3.953   2.369  19.793  0.00  0.00    +0.000 C 
ENDROOT
BRANCH   1   3
ATOM      2  O   UNL     1       1.996   2.601  21.195  0.00  0.00    +0.000 OA
ATOM      3  C   UNL     1       2.844   3.161  20.504  0.00  0.00    +0.000 C 
ATOM      4  N   UNL     1       2.897   4.523  20.327  0.00  0.00    +0.000 N 
ATOM      5  H   UNL     1       3.636   4.910  19.758  0.00  0.00    +0.000 HD
BRANCH   4   6
ATOM      6  C   UNL     1       1.931   5.439  20.881  0.00  0.00    +0.000 C 
BRANCH   6   7
ATOM      7  C   UNL     1       1.920   6.728  20.099  0.00  0.00    +0.000 A 
ATOM      8  C   UNL     1       2.412   6.745  18.773  0.00  0.00    +0.000 A 
ATOM      9  C   UNL     1       2.369   7.910  18.000  0.00  0.00    +0.000 A 
ATOM     10  C   UNL     1       1.829   9.042  18.572  0.00  0.00    +0.000 A 
ATOM     11  C   UNL     1       1.353   9.039  19.864  0.00  0.00    +0.000 A 
ATOM     12  C   UNL     1       1.376   7.903  20.649  0.00  0.00    +0.000 A 
ATOM     13  O   UNL     1       0.871  10.258  20.234  0.00  0.00    +0.000 OA
ATOM     14  C   UNL     1       1.149  11.031  19.049  0.00  0.00    +0.000 C 
ATOM     15  O   UNL     1       1.705  10.252  17.970  0.00  0.00    +0.000 OA
ENDBRANCH   6   7
ENDBRANCH   4   6
ENDBRANCH   1   3
BRANCH   1  16
ATOM     16  O   UNL     1       5.203   3.053  19.683  0.00  0.00    +0.000 OA
BRANCH  16  17
ATOM     17  C   UNL     1       5.207   4.087  18.795  0.00  0.00    +0.000 C 
ATOM     18  O   UNL     1       5.602   5.218  19.036  0.00  0.00    +0.000 OA
BRANCH  17  19
ATOM     19  C   UNL     1       4.752   3.625  17.438  0.00  0.00    +0.000 C 
BRANCH  19  20
ATOM     20  C   UNL     1       4.600   4.805  16.491  0.00  0.00    +0.000 C 
BRANCH  20  21
ATOM     21  C   UNL     1       5.772   4.956  15.576  0.00  0.00    +0.000 A 
ATOM     22  C   UNL     1       6.929   5.665  15.832  0.00  0.00    +0.000 A 
ATOM     23  N   UNL     1       7.749   5.560  14.739  0.00  0.00    +0.000 N 
ATOM     24  C   UNL     1       7.143   4.810  13.760  0.00  0.00    +0.000 A 
ATOM     25  C   UNL     1       7.594   4.460  12.480  0.00  0.00    +0.000 A 
ATOM     26  C   UNL     1       6.745   3.688  11.683  0.00  0.00    +0.000 A 
ATOM     27  C   UNL     1       5.503   3.270  12.154  0.00  0.00    +0.000 A 
ATOM     28  C   UNL     1       5.073   3.618  13.438  0.00  0.00    +0.000 A 
ATOM     29  C   UNL     1       5.901   4.411  14.259  0.00  0.00    +0.000 A 
ATOM     30  H   UNL     1       8.664   5.982  14.653  0.00  0.00    +0.000 HD
ENDBRANCH  20  21
ENDBRANCH  19  20
ENDBRANCH  17  19
ENDBRANCH  16  17
ENDBRANCH   1  16
TORSDOF 8
ENDMDL
MODEL 8
REMARK VINA RESULT:      -7.7      3.742      6.392
REMARK  Name = 
REMARK  8 active torsions:
REMARK  status: ('A' for Active; 'I' for Inactive)
REMARK    1  A    between atoms: C_2  and  C_3
REMARK    2  A    between atoms: C_3  and  O_4
REMARK    3  A    between atoms: O_4  and  C_5
REMARK    4  A    between atoms: C_5  and  C_7
REMARK    5  A    between atoms: C_7  and  C_8
REMARK    6  A    between atoms: C_8  and  C_9
REMARK    7  A    between atoms: N_18  and  C_19
REMARK    8  A    between atoms: C_19  and  C_20
REMARK                            x       y       z     vdW  Elec       q    Type
REMARK                         _______ _______ _______ _____ _____    ______ ____
ROOT
ATOM      1  C   UNL     1       7.143   7.690  17.175  0.00  0.00    +0.000 C 
ENDROOT
BRANCH   1   3
ATOM      2  O   UNL     1       8.634   7.388  19.055  0.00  0.00    +0.000 OA
ATOM      3  C   UNL     1       8.129   8.169  18.252  0.00  0.00    +0.000 C 
ATOM      4  N   UNL     1       8.414   9.514  18.223  0.00  0.00    +0.000 N 
ATOM      5  H   UNL     1       7.972  10.089  17.520  0.00  0.00    +0.000 HD
BRANCH   4   6
ATOM      6  C   UNL     1       9.287  10.166  19.167  0.00  0.00    +0.000 C 
BRANCH   6   7
ATOM      7  C   UNL     1       9.762  11.489  18.618  0.00  0.00    +0.000 A 
ATOM      8  C   UNL     1      10.926  11.535  17.817  0.00  0.00    +0.000 A 
ATOM      9  C   UNL     1      11.366  12.735  17.248  0.00  0.00    +0.000 A 
ATOM     10  C   UNL     1      10.624  13.871  17.491  0.00  0.00    +0.000 A 
ATOM     11  C   UNL     1       9.493  13.839  18.274  0.00  0.00    +0.000 A 
ATOM     12  C   UNL     1       9.031  12.669  18.844  0.00  0.00    +0.000 A 
ATOM     13  O   UNL     1       8.917  15.068  18.392  0.00  0.00    +0.000 OA
ATOM     14  C   UNL     1       9.845  15.876  17.640  0.00  0.00    +0.000 C 
ATOM     15  O   UNL     1      10.900  15.113  17.019  0.00  0.00    +0.000 OA
ENDBRANCH   6   7
ENDBRANCH   4   6
ENDBRANCH   1   3
BRANCH   1  16
ATOM     16  O   UNL     1       7.651   6.678  16.302  0.00  0.00    +0.000 OA
BRANCH  16  17
ATOM     17  C   UNL     1       6.879   5.558  16.226  0.00  0.00    +0.000 C 
ATOM     18  O   UNL     1       7.301   4.411  16.256  0.00  0.00    +0.000 OA
BRANCH  17  19
ATOM     19  C   UNL     1       5.419   5.918  16.199  0.00  0.00    +0.000 C 
BRANCH  19  20
ATOM     20  C   UNL     1       4.588   4.845  16.884  0.00  0.00    +0.000 C 
BRANCH  20  21
ATOM     21  C   UNL     1       3.923   5.344  18.125  0.00  0.00    +0.000 A 
ATOM     22  C   UNL     1       3.898   4.717  19.355  0.00  0.00    +0.000 A 
ATOM     23  N   UNL     1       3.181   5.498  20.224  0.00  0.00    +0.000 N 
ATOM     24  C   UNL     1       2.717   6.620  19.581  0.00  0.00    +0.000 A 
ATOM     25  C   UNL     1       1.933   7.677  20.062  0.00  0.00    +0.000 A 
ATOM     26  C   UNL     1       1.594   8.693  19.164  0.00  0.00    +0.000 A 
ATOM     27  C   UNL     1       2.036   8.660  17.843  0.00  0.00    +0.000 A 
ATOM     28  C   UNL     1       2.828   7.603  17.383  0.00  0.00    +0.000 A 
ATOM     29  C   UNL     1       3.172   6.556  18.262  0.00  0.00    +0.000 A 
ATOM     30  H   UNL     1       3.004   5.279  21.195  0.00  0.00    +0.000 HD
ENDBRANCH  20  21
ENDBRANCH  19  20
ENDBRANCH  17  19
ENDBRANCH  16  17
ENDBRANCH   1  16
TORSDOF 8
ENDMDL
MODEL 9
REMARK VINA RESULT:      -7.7      2.850      6.541
REMARK  Name = 
REMARK  8 active torsions:
REMARK  status: ('A' for Active; 'I' for Inactive)
REMARK    1  A    between atoms: C_2  and  C_3
REMARK    2  A    between atoms: C_3  and  O_4
REMARK    3  A    between atoms: O_4  and  C_5
REMARK    4  A    between atoms: C_5  and  C_7
REMARK    5  A    between atoms: C_7  and  C_8
REMARK    6  A    between atoms: C_8  and  C_9
REMARK    7  A    between atoms: N_18  and  C_19
REMARK    8  A    between atoms: C_19  and  C_20
REMARK                            x       y       z     vdW  Elec       q    Type
REMARK                         _______ _______ _______ _____ _____    ______ ____
ROOT
ATOM      1  C   UNL     1       1.506   2.434  18.953  0.00  0.00    +0.000 C 
ENDROOT
BRANCH   1   3
ATOM      2  O   UNL     1       1.198   3.134  21.247  0.00  0.00    +0.000 OA
ATOM      3  C   UNL     1       1.495   3.457  20.099  0.00  0.00    +0.000 C 
ATOM      4  N   UNL     1       1.866   4.733  19.745  0.00  0.00    +0.000 N 
ATOM      5  H   UNL     1       2.113   4.916  18.783  0.00  0.00    +0.000 HD
BRANCH   4   6
ATOM      6  C   UNL     1       1.888   5.843  20.664  0.00  0.00    +0.000 C 
BRANCH   6   7
ATOM      7  C   UNL     1       1.908   7.149  19.910  0.00  0.00    +0.000 A 
ATOM      8  C   UNL     1       2.508   7.208  18.630  0.00  0.00    +0.000 A 
ATOM      9  C   UNL     1       2.499   8.389  17.881  0.00  0.00    +0.000 A 
ATOM     10  C   UNL     1       1.884   9.494  18.429  0.00  0.00    +0.000 A 
ATOM     11  C   UNL     1       1.304   9.450  19.677  0.00  0.00    +0.000 A 
ATOM     12  C   UNL     1       1.291   8.298  20.437  0.00  0.00    +0.000 A 
ATOM     13  O   UNL     1       0.761  10.649  20.030  0.00  0.00    +0.000 OA
ATOM     14  C   UNL     1       1.116  11.455  18.888  0.00  0.00    +0.000 C 
ATOM     15  O   UNL     1       1.780  10.714  17.844  0.00  0.00    +0.000 OA
ENDBRANCH   6   7
ENDBRANCH   4   6
ENDBRANCH   1   3
BRANCH   1  16
ATOM     16  O   UNL     1       2.744   1.741  18.778  0.00  0.00    +0.000 OA
BRANCH  16  17
ATOM     17  C   UNL     1       3.831   2.550  18.637  0.00  0.00    +0.000 C 
ATOM     18  O   UNL     1       4.517   2.970  19.557  0.00  0.00    +0.000 OA
BRANCH  17  19
ATOM     19  C   UNL     1       4.141   2.779  17.183  0.00  0.00    +0.000 C 
BRANCH  19  20
ATOM     20  C   UNL     1       4.167   4.265  16.866  0.00  0.00    +0.000 C 
BRANCH  20  21
ATOM     21  C   UNL     1       5.419   4.676  16.161  0.00  0.00    +0.000 A 
ATOM     22  C   UNL     1       6.452   5.425  16.689  0.00  0.00    +0.000 A 
ATOM     23  N   UNL     1       7.407   5.586  15.719  0.00  0.00    +0.000 N 
ATOM     24  C   UNL     1       7.011   4.971  14.555  0.00  0.00    +0.000 A 
ATOM     25  C   UNL     1       7.652   4.893  13.312  0.00  0.00    +0.000 A 
ATOM     26  C   UNL     1       6.996   4.205  12.287  0.00  0.00    +0.000 A 
ATOM     27  C   UNL     1       5.758   3.605  12.504  0.00  0.00    +0.000 A 
ATOM     28  C   UNL     1       5.138   3.683  13.756  0.00  0.00    +0.000 A 
ATOM     29  C   UNL     1       5.768   4.385  14.803  0.00  0.00    +0.000 A 
ATOM     30  H   UNL     1       8.274   6.093  15.833  0.00  0.00    +0.000 HD
ENDBRANCH  20  21
ENDBRANCH  19  20
ENDBRANCH  17  19
ENDBRANCH  16  17
ENDBRANCH   1  16
TORSDOF 8
ENDMDL
