MODEL 1
REMARK VINA RESULT:      -8.1      0.000      0.000
REMARK  Name = 
REMARK  6 active torsions:
REMARK  status: ('A' for Active; 'I' for Inactive)
REMARK    1  A    between atoms: N_5  and  C_6
REMARK    2  A    between atoms: C_9  and  C_10
REMARK    3  A    between atoms: C_10  and  O_11
REMARK    4  A    between atoms: O_11  and  P_12
REMARK    5  A    between atoms: P_12  and  O_14
REMARK    6  A    between atoms: P_12  and  C_15
REMARK                            x       y       z     vdW  Elec       q    Type
REMARK                         _______ _______ _______ _____ _____    ______ ____
ROOT
ATOM      1  C   UNL     1       2.221   5.275  18.007  0.00  0.00    +0.000 C 
ATOM      2  C   UNL     1       2.195   6.737  18.288  0.00  0.00    +0.000 C 
ATOM      3  C   UNL     1       3.379   7.284  18.020  0.00  0.00    +0.000 C 
ATOM      4  C   UNL     1       4.330   6.236  17.559  0.00  0.00    +0.000 C 
ATOM      5  O   UNL     1       3.539   5.026  17.448  0.00  0.00    +0.000 OA
ENDROOT
BRANCH   1  10
ATOM      6  N   UNL     1       1.122   2.242  22.493  0.00  0.00    +0.000 N 
ATOM      7  C   UNL     1       1.409   3.009  21.396  0.00  0.00    +0.000 A 
ATOM      8  C   UNL     1       2.204   4.241  21.564  0.00  0.00    +0.000 A 
ATOM      9  C   UNL     1       2.456   4.929  20.452  0.00  0.00    +0.000 A 
ATOM     10  N   UNL     1       1.994   4.506  19.225  0.00  0.00    +0.000 N 
ATOM     11  C   UNL     1       1.213   3.349  19.113  0.00  0.00    +0.000 A 
ATOM     12  O   UNL     1       0.761   2.998  18.026  0.00  0.00    +0.000 OA
ATOM     13  N   UNL     1       0.963   2.607  20.248  0.00  0.00    +0.000 NA
ATOM     14  H   UNL     1       1.770   2.263  23.269  0.00  0.00    +0.000 HD
ATOM     15  H   UNL     1       0.800   1.309  22.253  0.00  0.00    +0.000 HD
ENDBRANCH   1  10
BRANCH   4  16
ATOM     16  C   UNL     1       5.014   6.577  16.225  0.00  0.00    +0.000 C 
BRANCH  16  17
ATOM     17  O   UNL     1       6.406   6.268  16.230  0.00  0.00    +0.000 OA
BRANCH  17  18
ATOM     18  P   UNL     1       6.903   4.754  15.970  0.00  0.00    +0.000 P 
ATOM     19  O   UNL     1       8.154   4.411  16.722  0.00  0.00    +0.000 OA
BRANCH  18  20
ATOM     20  C   UNL     1       6.838   4.503  14.225  0.00  0.00    +0.000 A 
ATOM     21  C   UNL     1       5.932   3.587  13.666  0.00  0.00    +0.000 A 
ATOM     22  C   UNL     1       5.930   3.331  12.292  0.00  0.00    +0.000 A 
ATOM     23  C   UNL     1       6.827   3.996  11.456  0.00  0.00    +0.000 A 
ATOM     24  C   UNL     1       7.708   4.932  11.992  0.00  0.00    +0.000 A 
ATOM     25  C   UNL     1       7.709   5.188  13.365  0.00  0.00    +0.000 A 
ENDBRANCH  18  20
BRANCH  18  26
ATOM     26  O   UNL     1       5.659   3.946  16.600  0.00  0.00    +0.000 OA
ATOM     27  H   UNL     1       5.947   3.361  17.324  0.00  0.00    +0.000 HD
ENDBRANCH  18  26
ENDBRANCH  17  18
ENDBRANCH  16  17
ENDBRANCH   4  16
TORSDOF 6
ENDMDL
MODEL 2
REMARK VINA RESULT:      -8.0      3.545      5.388
REMARK  Name = 
REMARK  6 active torsions:
REMARK  status: ('A' for Active; 'I' for Inactive)
REMARK    1  A    between atoms: N_5  and  C_6
REMARK    2  A    between atoms: C_9  and  C_10
REMARK    3  A    between atoms: C_10  and  O_11
REMARK    4  A    between atoms: O_11  and  P_12
REMARK    5  A    between atoms: P_12  and  O_14
REMARK    6  A    between atoms: P_12  and  C_15
REMARK                            x       y       z     vdW  Elec       q    Type
REMARK                         _______ _______ _______ _____ _____    ______ ____
ROOT
ATOM      1  C   UNL     1       2.666   6.620  19.329  0.00  0.00    +0.000 C 
ATOM      2  C   UNL     1       2.331   6.095  20.681  0.00  0.00    +0.000 C 
ATOM      3  C   UNL     1       1.632   4.965  20.582  0.00  0.00    +0.000 C 
ATOM      4  C   UNL     1       1.401   4.636  19.149  0.00  0.00    +0.000 C 
ATOM      5  O   UNL     1       2.161   5.619  18.405  0.00  0.00    +0.000 OA
ENDROOT
BRANCH   1  10
ATOM      6  N   UNL     1       0.539  11.616  18.303  0.00  0.00    +0.000 N 
ATOM      7  C   UNL     1       1.053  10.377  18.579  0.00  0.00    +0.000 A 
ATOM      8  C   UNL     1       0.728   9.731  19.865  0.00  0.00    +0.000 A 
ATOM      9  C   UNL     1       1.250   8.522  20.060  0.00  0.00    +0.000 A 
ATOM     10  N   UNL     1       2.048   7.923  19.110  0.00  0.00    +0.000 N 
ATOM     11  C   UNL     1       2.360   8.585  17.915  0.00  0.00    +0.000 A 
ATOM     12  O   UNL     1       3.110   8.070  17.089  0.00  0.00    +0.000 OA
ATOM     13  N   UNL     1       1.808   9.825  17.683  0.00  0.00    +0.000 NA
ATOM     14  H   UNL     1      -0.342  11.870  18.731  0.00  0.00    +0.000 HD
ATOM     15  H   UNL     1       0.604  11.863  17.321  0.00  0.00    +0.000 HD
ENDBRANCH   1  10
BRANCH   4  16
ATOM     16  C   UNL     1       1.825   3.206  18.776  0.00  0.00    +0.000 C 
BRANCH  16  17
ATOM     17  O   UNL     1       2.692   2.622  19.745  0.00  0.00    +0.000 OA
BRANCH  17  18
ATOM     18  P   UNL     1       4.227   2.292  19.370  0.00  0.00    +0.000 P 
ATOM     19  O   UNL     1       5.029   1.817  20.544  0.00  0.00    +0.000 OA
BRANCH  18  20
ATOM     20  C   UNL     1       4.807   3.656  18.412  0.00  0.00    +0.000 A 
ATOM     21  C   UNL     1       4.581   3.708  17.028  0.00  0.00    +0.000 A 
ATOM     22  C   UNL     1       5.104   4.749  16.255  0.00  0.00    +0.000 A 
ATOM     23  C   UNL     1       5.851   5.759  16.859  0.00  0.00    +0.000 A 
ATOM     24  C   UNL     1       6.056   5.740  18.237  0.00  0.00    +0.000 A 
ATOM     25  C   UNL     1       5.533   4.699  19.008  0.00  0.00    +0.000 A 
ENDBRANCH  18  20
BRANCH  18  26
ATOM     26  O   UNL     1       4.001   1.071  18.344  0.00  0.00    +0.000 OA
ATOM     27  H   UNL     1       3.313   0.461  18.665  0.00  0.00    +0.000 HD
ENDBRANCH  18  26
ENDBRANCH  17  18
ENDBRANCH  16  17
ENDBRANCH   4  16
TORSDOF 6
ENDMDL
MODEL 3
REMARK VINA RESULT:      -8.0      1.563      2.097
REMARK  Name = 
REMARK  6 active torsions:
REMARK  status: ('A' for Active; 'I' for Inactive)
REMARK    1  A    between atoms: N_5  and  C_6
REMARK    2  A    between atoms: C_9  and  C_10
REMARK    3  A    between atoms: C_10  and  O_11
REMARK    4  A    between atoms: O_11  and  P_12
REMARK    5  A    between atoms: P_12  and  O_14
REMARK    6  A    between atoms: P_12  and  C_15
REMARK                            x       y       z     vdW  Elec       q    Type
REMARK                         _______ _______ _______ _____ _____    ______ ____
ROOT
ATOM      1  C   UNL     1       3.946   4.491  17.971  0.00  0.00    +0.000 C 
ATOM      2  C   UNL     1       4.356   5.910  18.164  0.00  0.00    +0.000 C 
ATOM      3  C   UNL     1       5.683   6.011  18.203  0.00  0.00    +0.000 C 
ATOM      4  C   UNL     1       6.298   4.662  18.071  0.00  0.00    +0.000 C 
ATOM      5  O   UNL     1       5.192   3.763  17.807  0.00  0.00    +0.000 OA
ENDROOT
BRANCH   1  10
ATOM      6  N   UNL     1       0.920   2.476  22.132  0.00  0.00    +0.000 N 
ATOM      7  C   UNL     1       1.673   2.996  21.114  0.00  0.00    +0.000 A 
ATOM      8  C   UNL     1       2.207   4.366  21.239  0.00  0.00    +0.000 A 
ATOM      9  C   UNL     1       2.943   4.802  20.219  0.00  0.00    +0.000 A 
ATOM     10  N   UNL     1       3.182   4.011  19.117  0.00  0.00    +0.000 N 
ATOM     11  C   UNL     1       2.629   2.727  19.022  0.00  0.00    +0.000 A 
ATOM     12  O   UNL     1       2.802   2.040  18.018  0.00  0.00    +0.000 OA
ATOM     13  N   UNL     1       1.887   2.248  20.079  0.00  0.00    +0.000 NA
ATOM     14  H   UNL     1       1.089   2.814  23.069  0.00  0.00    +0.000 HD
ATOM     15  H   UNL     1       0.814   1.468  22.072  0.00  0.00    +0.000 HD
ENDBRANCH   1  10
BRANCH   4  16
ATOM     16  C   UNL     1       7.358   4.580  16.960  0.00  0.00    +0.000 C 
BRANCH  16  17
ATOM     17  O   UNL     1       6.840   4.036  15.749  0.00  0.00    +0.000 OA
BRANCH  17  18
ATOM     18  P   UNL     1       6.533   5.000  14.490  0.00  0.00    +0.000 P 
ATOM     19  O   UNL     1       5.566   6.098  14.814  0.00  0.00    +0.000 OA
BRANCH  18  20
ATOM     20  C   UNL     1       6.217   3.937  13.117  0.00  0.00    +0.000 A 
ATOM     21  C   UNL     1       4.902   3.652  12.720  0.00  0.00    +0.000 A 
ATOM     22  C   UNL     1       4.647   2.751  11.682  0.00  0.00    +0.000 A 
ATOM     23  C   UNL     1       5.705   2.131  11.020  0.00  0.00    +0.000 A 
ATOM     24  C   UNL     1       7.018   2.430  11.379  0.00  0.00    +0.000 A 
ATOM     25  C   UNL     1       7.271   3.330  12.417  0.00  0.00    +0.000 A 
ENDBRANCH  18  20
BRANCH  18  26
ATOM     26  O   UNL     1       8.000   5.626  14.261  0.00  0.00    +0.000 OA
ATOM     27  H   UNL     1       8.149   6.398  14.835  0.00  0.00    +0.000 HD
ENDBRANCH  18  26
ENDBRANCH  17  18
ENDBRANCH  16  17
ENDBRANCH   4  16
TORSDOF 6
ENDMDL
MODEL 4
REMARK VINA RESULT:      -8.0      2.639      4.160
REMARK  Name = 
REMARK  6 active torsions:
REMARK  status: ('A' for Active; 'I' for Inactive)
REMARK    1  A    between atoms: N_5  and  C_6
REMARK    2  A    between atoms: C_9  and  C_10
REMARK    3  A    between atoms: C_10  and  O_11
REMARK    4  A    between atoms: O_11  and  P_12
REMARK    5  A    between atoms: P_12  and  O_14
REMARK    6  A    between atoms: P_12  and  C_15
REMARK                            x       y       z     vdW  Elec       q    Type
REMARK                         _______ _______ _______ _____ _____    ______ ____
ROOT
ATOM      1  C   UNL     1       2.685   6.519  19.570  0.00  0.00    +0.000 C 
ATOM      2  C   UNL     1       1.813   5.419  19.073  0.00  0.00    +0.000 C 
ATOM      3  C   UNL     1       2.453   4.696  18.156  0.00  0.00    +0.000 C 
ATOM      4  C   UNL     1       3.811   5.259  17.924  0.00  0.00    +0.000 C 
ATOM      5  O   UNL     1       3.960   6.313  18.907  0.00  0.00    +0.000 OA
ENDROOT
BRANCH   1  10
ATOM      6  N   UNL     1       0.321  11.417  18.588  0.00  0.00    +0.000 N 
ATOM      7  C   UNL     1       0.916  10.203  18.808  0.00  0.00    +0.000 A 
ATOM      8  C   UNL     1       1.634   9.541  17.702  0.00  0.00    +0.000 A 
ATOM      9  C   UNL     1       2.200   8.371  17.991  0.00  0.00    +0.000 A 
ATOM     10  N   UNL     1       2.111   7.822  19.252  0.00  0.00    +0.000 N 
ATOM     11  C   UNL     1       1.391   8.467  20.265  0.00  0.00    +0.000 A 
ATOM     12  O   UNL     1       1.271   7.955  21.376  0.00  0.00    +0.000 OA
ATOM     13  N   UNL     1       0.821   9.692  19.994  0.00  0.00    +0.000 NA
ATOM     14  H   UNL     1       0.717  12.017  17.877  0.00  0.00    +0.000 HD
ATOM     15  H   UNL     1       0.078  11.901  19.447  0.00  0.00    +0.000 HD
ENDBRANCH   1  10
BRANCH   4  16
ATOM     16  C   UNL     1       4.934   4.216  18.052  0.00  0.00    +0.000 C 
BRANCH  16  17
ATOM     17  O   UNL     1       5.556   3.926  16.803  0.00  0.00    +0.000 OA
BRANCH  17  18
ATOM     18  P   UNL     1       6.734   4.877  16.241  0.00  0.00    +0.000 P 
ATOM     19  O   UNL     1       6.637   6.287  16.740  0.00  0.00    +0.000 OA
BRANCH  18  20
ATOM     20  C   UNL     1       6.834   4.570  14.507  0.00  0.00    +0.000 A 
ATOM     21  C   UNL     1       7.751   5.269  13.707  0.00  0.00    +0.000 A 
ATOM     22  C   UNL     1       7.781   5.084  12.322  0.00  0.00    +0.000 A 
ATOM     23  C   UNL     1       6.900   4.188  11.719  0.00  0.00    +0.000 A 
ATOM     24  C   UNL     1       6.006   3.461  12.503  0.00  0.00    +0.000 A 
ATOM     25  C   UNL     1       5.978   3.647  13.887  0.00  0.00    +0.000 A 
ENDBRANCH  18  20
BRANCH  18  26
ATOM     26  O   UNL     1       8.010   4.157  16.912  0.00  0.00    +0.000 OA
ATOM     27  H   UNL     1       8.710   3.992  16.255  0.00  0.00    +0.000 HD
ENDBRANCH  18  26
ENDBRANCH  17  18
ENDBRANCH  16  17
ENDBRANCH   4  16
TORSDOF 6
ENDMDL
MODEL 5
REMARK VINA RESULT:      -8.0      1.043      1.264
REMARK  Name = 
REMARK  6 active torsions:
REMARK  status: ('A' for Active; 'I' for Inactive)
REMARK    1  A    between atoms: N_5  and  C_6
REMARK    2  A    between atoms: C_9  and  C_10
REMARK    3  A    between atoms: C_10  and  O_11
REMARK    4  A    between atoms: O_11  and  P_12
REMARK    5  A    between atoms: P_12  and  O_14
REMARK    6  A    between atoms: P_12  and  C_15
REMARK                            x       y       z     vdW  Elec       q    Type
REMARK                         _______ _______ _______ _____ _____    ______ ____
ROOT
ATOM      1  C   UNL     1       2.882   4.972  17.779  0.00  0.00    +0.000 C 
ATOM      2  C   UNL     1       2.484   6.407  17.801  0.00  0.00    +0.000 C 
ATOM      3  C   UNL     1       3.556   7.190  17.701  0.00  0.00    +0.000 C 
ATOM      4  C   UNL     1       4.788   6.357  17.632  0.00  0.00    +0.000 C 
ATOM      5  O   UNL     1       4.318   4.988  17.560  0.00  0.00    +0.000 OA
ENDROOT
BRANCH   1  10
ATOM      6  N   UNL     1       1.377   2.300  22.375  0.00  0.00    +0.000 N 
ATOM      7  C   UNL     1       1.757   2.982  21.250  0.00  0.00    +0.000 A 
ATOM      8  C   UNL     1       2.249   4.367  21.378  0.00  0.00    +0.000 A 
ATOM      9  C   UNL     1       2.614   4.963  20.246  0.00  0.00    +0.000 A 
ATOM     10  N   UNL     1       2.531   4.315  19.033  0.00  0.00    +0.000 N 
ATOM     11  C   UNL     1       2.026   3.011  18.950  0.00  0.00    +0.000 A 
ATOM     12  O   UNL     1       1.907   2.450  17.863  0.00  0.00    +0.000 OA
ATOM     13  N   UNL     1       1.668   2.366  20.114  0.00  0.00    +0.000 NA
ATOM     14  H   UNL     1       1.815   2.548  23.252  0.00  0.00    +0.000 HD
ATOM     15  H   UNL     1       1.297   1.299  22.225  0.00  0.00    +0.000 HD
ENDBRANCH   1  10
BRANCH   4  16
ATOM     16  C   UNL     1       5.689   6.699  16.434  0.00  0.00    +0.000 C 
BRANCH  16  17
ATOM     17  O   UNL     1       5.508   5.804  15.340  0.00  0.00    +0.000 OA
BRANCH  17  18
ATOM     18  P   UNL     1       6.728   4.871  14.841  0.00  0.00    +0.000 P 
ATOM     19  O   UNL     1       8.039   5.595  14.797  0.00  0.00    +0.000 OA
BRANCH  18  20
ATOM     20  C   UNL     1       6.149   4.025  13.405  0.00  0.00    +0.000 A 
ATOM     21  C   UNL     1       4.784   4.013  13.081  0.00  0.00    +0.000 A 
ATOM     22  C   UNL     1       4.313   3.282  11.987  0.00  0.00    +0.000 A 
ATOM     23  C   UNL     1       5.205   2.560  11.194  0.00  0.00    +0.000 A 
ATOM     24  C   UNL     1       6.568   2.590  11.482  0.00  0.00    +0.000 A 
ATOM     25  C   UNL     1       7.036   3.321  12.576  0.00  0.00    +0.000 A 
ENDBRANCH  18  20
BRANCH  18  26
ATOM     26  O   UNL     1       6.751   3.790  16.036  0.00  0.00    +0.000 OA
ATOM     27  H   UNL     1       7.436   3.113  15.887  0.00  0.00    +0.000 HD
ENDBRANCH  18  26
ENDBRANCH  17  18
ENDBRANCH  16  17
ENDBRANCH   4  16
TORSDOF 6
ENDMDL
MODEL 6
REMARK VINA RESULT:      -7.8      4.693      7.098
REMARK  Name = 
REMARK  6 active torsions:
REMARK  status: ('A' for Active; 'I' for Inactive)
REMARK    1  A    between atoms: N_5  and  C_6
REMARK    2  A    between atoms: C_9  and  C_10
REMARK    3  A    between atoms: C_10  and  O_11
REMARK    4  A    between atoms: O_11  and  P_12
REMARK    5  A    between atoms: P_12  and  O_14
REMARK    6  A    between atoms: P_12  and  C_15
REMARK                            x       y       z     vdW  Elec       q    Type
REMARK                         _______ _______ _______ _____ _____    ______ ____
ROOT
ATOM      1  C   UNL     1       1.450  10.034  18.651  0.00  0.00    +0.000 C 
ATOM      2  C   UNL     1       1.387   9.071  19.785  0.00  0.00    +0.000 C 
ATOM      3  C   UNL     1       1.859   7.882  19.413  0.00  0.00    +0.000 C 
ATOM      4  C   UNL     1       2.257   7.920  17.980  0.00  0.00    +0.000 C 
ATOM      5  O   UNL     1       2.102   9.304  17.577  0.00  0.00    +0.000 OA
ENDROOT
BRANCH   1  10
ATOM      6  N   UNL     1      -3.597  11.922  17.427  0.00  0.00    +0.000 N 
ATOM      7  C   UNL     1      -2.353  11.432  17.718  0.00  0.00    +0.000 A 
ATOM      8  C   UNL     1      -2.014  10.047  17.337  0.00  0.00    +0.000 A 
ATOM      9  C   UNL     1      -0.782   9.643  17.639  0.00  0.00    +0.000 A 
ATOM     10  N   UNL     1       0.113  10.478  18.271  0.00  0.00    +0.000 N 
ATOM     11  C   UNL     1      -0.259  11.775  18.647  0.00  0.00    +0.000 A 
ATOM     12  O   UNL     1       0.524  12.503  19.254  0.00  0.00    +0.000 OA
ATOM     13  N   UNL     1      -1.521  12.222  18.320  0.00  0.00    +0.000 NA
ATOM     14  H   UNL     1      -4.083  11.538  16.627  0.00  0.00    +0.000 HD
ATOM     15  H   UNL     1      -3.652  12.933  17.494  0.00  0.00    +0.000 HD
ENDBRANCH   1  10
BRANCH   4  16
ATOM     16  C   UNL     1       3.692   7.427  17.732  0.00  0.00    +0.000 C 
BRANCH  16  17
ATOM     17  O   UNL     1       3.731   6.125  17.152  0.00  0.00    +0.000 OA
BRANCH  17  18
ATOM     18  P   UNL     1       4.333   4.881  17.987  0.00  0.00    +0.000 P 
ATOM     19  O   UNL     1       5.220   3.997  17.163  0.00  0.00    +0.000 OA
BRANCH  18  20
ATOM     20  C   UNL     1       2.978   4.175  18.870  0.00  0.00    +0.000 A 
ATOM     21  C   UNL     1       2.047   3.353  18.216  0.00  0.00    +0.000 A 
ATOM     22  C   UNL     1       0.931   2.854  18.896  0.00  0.00    +0.000 A 
ATOM     23  C   UNL     1       0.738   3.163  20.241  0.00  0.00    +0.000 A 
ATOM     24  C   UNL     1       1.671   3.950  20.913  0.00  0.00    +0.000 A 
ATOM     25  C   UNL     1       2.785   4.447  20.233  0.00  0.00    +0.000 A 
ENDBRANCH  18  20
BRANCH  18  26
ATOM     26  O   UNL     1       5.222   5.679  19.067  0.00  0.00    +0.000 OA
ATOM     27  H   UNL     1       6.021   6.058  18.657  0.00  0.00    +0.000 HD
ENDBRANCH  18  26
ENDBRANCH  17  18
ENDBRANCH  16  17
ENDBRANCH   4  16
TORSDOF 6
ENDMDL
MODEL 7
REMARK VINA RESULT:      -7.7      2.383      3.188
REMARK  Name = 
REMARK  6 active torsions:
REMARK  status: ('A' for Active; 'I' for Inactive)
REMARK    1  A    between atoms: N_5  and  C_6
REMARK    2  A    between atoms: C_9  and  C_10
REMARK    3  A    between atoms: C_10  and  O_11
REMARK    4  A    between atoms: O_11  and  P_12
REMARK    5  A    between atoms: P_12  and  O_14
REMARK    6  A    between atoms: P_12  and  C_15
REMARK                            x       y       z     vdW  Elec       q    Type
REMARK                         _______ _______ _______ _____ _____    ______ ____
ROOT
ATOM      1  C   UNL     1       2.184   5.402  17.888  0.00  0.00    +0.000 C 
ATOM      2  C   UNL     1       2.104   6.857  18.191  0.00  0.00    +0.000 C 
ATOM      3  C   UNL     1       3.249   7.462  17.881  0.00  0.00    +0.000 C 
ATOM      4  C   UNL     1       4.226   6.464  17.366  0.00  0.00    +0.000 C 
ATOM      5  O   UNL     1       3.487   5.221  17.271  0.00  0.00    +0.000 OA
ENDROOT
BRANCH   1  10
ATOM      6  N   UNL     1       1.426   2.255  22.366  0.00  0.00    +0.000 N 
ATOM      7  C   UNL     1       1.626   3.051  21.271  0.00  0.00    +0.000 A 
ATOM      8  C   UNL     1       2.307   4.350  21.438  0.00  0.00    +0.000 A 
ATOM      9  C   UNL     1       2.480   5.065  20.328  0.00  0.00    +0.000 A 
ATOM     10  N   UNL     1       2.043   4.609  19.104  0.00  0.00    +0.000 N 
ATOM     11  C   UNL     1       1.371   3.385  18.993  0.00  0.00    +0.000 A 
ATOM     12  O   UNL     1       0.939   3.000  17.909  0.00  0.00    +0.000 OA
ATOM     13  N   UNL     1       1.205   2.617  20.126  0.00  0.00    +0.000 NA
ATOM     14  H   UNL     1       2.079   2.331  23.135  0.00  0.00    +0.000 HD
ATOM     15  H   UNL     1       1.188   1.298  22.124  0.00  0.00    +0.000 HD
ENDBRANCH   1  10
BRANCH   4  16
ATOM     16  C   UNL     1       4.837   6.852  16.009  0.00  0.00    +0.000 C 
BRANCH  16  17
ATOM     17  O   UNL     1       5.187   5.717  15.222  0.00  0.00    +0.000 OA
BRANCH  17  18
ATOM     18  P   UNL     1       6.576   4.939  15.489  0.00  0.00    +0.000 P 
ATOM     19  O   UNL     1       6.440   3.448  15.402  0.00  0.00    +0.000 OA
BRANCH  18  20
ATOM     20  C   UNL     1       7.282   5.667  16.934  0.00  0.00    +0.000 A 
ATOM     21  C   UNL     1       7.507   4.898  18.086  0.00  0.00    +0.000 A 
ATOM     22  C   UNL     1       7.995   5.488  19.256  0.00  0.00    +0.000 A 
ATOM     23  C   UNL     1       8.274   6.853  19.285  0.00  0.00    +0.000 A 
ATOM     24  C   UNL     1       8.088   7.623  18.139  0.00  0.00    +0.000 A 
ATOM     25  C   UNL     1       7.601   7.033  16.971  0.00  0.00    +0.000 A 
ENDBRANCH  18  20
BRANCH  18  26
ATOM     26  O   UNL     1       7.435   5.474  14.236  0.00  0.00    +0.000 OA
ATOM     27  H   UNL     1       8.316   5.060  14.208  0.00  0.00    +0.000 HD
ENDBRANCH  18  26
ENDBRANCH  17  18
ENDBRANCH  16  17
ENDBRANCH   4  16
TORSDOF 6
ENDMDL
MODEL 8
REMARK VINA RESULT:      -7.7      4.760      7.187
REMARK  Name = 
REMARK  6 active torsions:
REMARK  status: ('A' for Active; 'I' for Inactive)
REMARK    1  A    between atoms: N_5  and  C_6
REMARK    2  A    between atoms: C_9  and  C_10
REMARK    3  A    between atoms: C_10  and  O_11
REMARK    4  A    between atoms: O_11  and  P_12
REMARK    5  A    between atoms: P_12  and  O_14
REMARK    6  A    between atoms: P_12  and  C_15
REMARK                            x       y       z     vdW  Elec       q    Type
REMARK                         _______ _______ _______ _____ _____    ______ ____
ROOT
ATOM      1  C   UNL     1       1.276  10.210  18.621  0.00  0.00    +0.000 C 
ATOM      2  C   UNL     1       1.322   9.258  19.765  0.00  0.00    +0.000 C 
ATOM      3  C   UNL     1       1.798   8.079  19.370  0.00  0.00    +0.000 C 
ATOM      4  C   UNL     1       2.090   8.112  17.911  0.00  0.00    +0.000 C 
ATOM      5  O   UNL     1       1.869   9.487  17.509  0.00  0.00    +0.000 OA
ENDROOT
BRANCH   1  10
ATOM      6  N   UNL     1      -3.906  11.931  17.769  0.00  0.00    +0.000 N 
ATOM      7  C   UNL     1      -2.627  11.484  17.967  0.00  0.00    +0.000 A 
ATOM      8  C   UNL     1      -2.243  10.151  17.463  0.00  0.00    +0.000 A 
ATOM      9  C   UNL     1      -0.980   9.787  17.678  0.00  0.00    +0.000 A 
ATOM     10  N   UNL     1      -0.096  10.615  18.336  0.00  0.00    +0.000 N 
ATOM     11  C   UNL     1      -0.510  11.859  18.828  0.00  0.00    +0.000 A 
ATOM     12  O   UNL     1       0.265  12.576  19.457  0.00  0.00    +0.000 OA
ATOM     13  N   UNL     1      -1.806  12.266  18.593  0.00  0.00    +0.000 NA
ATOM     14  H   UNL     1      -4.410  11.586  16.963  0.00  0.00    +0.000 HD
ATOM     15  H   UNL     1      -4.004  12.931  17.918  0.00  0.00    +0.000 HD
ENDBRANCH   1  10
BRANCH   4  16
ATOM     16  C   UNL     1       3.517   7.655  17.564  0.00  0.00    +0.000 C 
BRANCH  16  17
ATOM     17  O   UNL     1       4.025   6.699  18.491  0.00  0.00    +0.000 OA
BRANCH  17  18
ATOM     18  P   UNL     1       4.156   5.146  18.068  0.00  0.00    +0.000 P 
ATOM     19  O   UNL     1       4.460   4.959  16.612  0.00  0.00    +0.000 OA
BRANCH  18  20
ATOM     20  C   UNL     1       2.771   4.319  18.783  0.00  0.00    +0.000 A 
ATOM     21  C   UNL     1       2.360   4.611  20.093  0.00  0.00    +0.000 A 
ATOM     22  C   UNL     1       1.311   3.904  20.689  0.00  0.00    +0.000 A 
ATOM     23  C   UNL     1       0.652   2.903  19.978  0.00  0.00    +0.000 A 
ATOM     24  C   UNL     1       1.026   2.625  18.665  0.00  0.00    +0.000 A 
ATOM     25  C   UNL     1       2.074   3.331  18.071  0.00  0.00    +0.000 A 
ENDBRANCH  18  20
BRANCH  18  26
ATOM     26  O   UNL     1       5.444   4.732  18.943  0.00  0.00    +0.000 OA
ATOM     27  H   UNL     1       6.247   5.183  18.627  0.00  0.00    +0.000 HD
ENDBRANCH  18  26
ENDBRANCH  17  18
ENDBRANCH  16  17
ENDBRANCH   4  16
TORSDOF 6
ENDMDL
MODEL 9
REMARK VINA RESULT:      -7.5      2.720      4.080
REMARK  Name = 
REMARK  6 active torsions:
REMARK  status: ('A' for Active; 'I' for Inactive)
REMARK    1  A    between atoms: N_5  and  C_6
REMARK    2  A    between atoms: C_9  and  C_10
REMARK    3  A    between atoms: C_10  and  O_11
REMARK    4  A    between atoms: O_11  and  P_12
REMARK    5  A    between atoms: P_12  and  O_14
REMARK    6  A    between atoms: P_12  and  C_15
REMARK                            x       y       z     vdW  Elec       q    Type
REMARK                         _______ _______ _______ _____ _____    ______ ____
ROOT
ATOM      1  C   UNL     1       2.748   6.730  19.681  0.00  0.00    +0.000 C 
ATOM      2  C   UNL     1       1.837   5.571  19.892  0.00  0.00    +0.000 C 
ATOM      3  C   UNL     1       2.039   4.643  18.958  0.00  0.00    +0.000 C 
ATOM      4  C   UNL     1       3.087   5.102  18.006  0.00  0.00    +0.000 C 
ATOM      5  O   UNL     1       3.587   6.345  18.559  0.00  0.00    +0.000 OA
ENDROOT
BRANCH   1  10
ATOM      6  N   UNL     1      -0.279  11.281  18.873  0.00  0.00    +0.000 N 
ATOM      7  C   UNL     1       0.477  10.153  19.049  0.00  0.00    +0.000 A 
ATOM      8  C   UNL     1       1.110   9.519  17.876  0.00  0.00    +0.000 A 
ATOM      9  C   UNL     1       1.842   8.435  18.123  0.00  0.00    +0.000 A 
ATOM     10  N   UNL     1       1.989   7.943  19.402  0.00  0.00    +0.000 N 
ATOM     11  C   UNL     1       1.344   8.555  20.484  0.00  0.00    +0.000 A 
ATOM     12  O   UNL     1       1.436   8.089  21.617  0.00  0.00    +0.000 OA
ATOM     13  N   UNL     1       0.603   9.694  20.253  0.00  0.00    +0.000 NA
ATOM     14  H   UNL     1      -0.056  11.885  18.093  0.00  0.00    +0.000 HD
ATOM     15  H   UNL     1      -0.458  11.778  19.740  0.00  0.00    +0.000 HD
ENDBRANCH   1  10
BRANCH   4  16
ATOM     16  C   UNL     1       4.223   4.084  17.811  0.00  0.00    +0.000 C 
BRANCH  16  17
ATOM     17  O   UNL     1       4.749   4.099  16.487  0.00  0.00    +0.000 OA
BRANCH  17  18
ATOM     18  P   UNL     1       6.092   4.932  16.154  0.00  0.00    +0.000 P 
ATOM     19  O   UNL     1       6.052   6.339  16.670  0.00  0.00    +0.000 OA
BRANCH  18  20
ATOM     20  C   UNL     1       6.449   4.637  14.451  0.00  0.00    +0.000 A 
ATOM     21  C   UNL     1       5.713   3.693  13.718  0.00  0.00    +0.000 A 
ATOM     22  C   UNL     1       6.043   3.403  12.391  0.00  0.00    +0.000 A 
ATOM     23  C   UNL     1       7.106   4.062  11.776  0.00  0.00    +0.000 A 
ATOM     24  C   UNL     1       7.824   5.026  12.479  0.00  0.00    +0.000 A 
ATOM     25  C   UNL     1       7.494   5.315  13.806  0.00  0.00    +0.000 A 
ENDBRANCH  18  20
BRANCH  18  26
ATOM     26  O   UNL     1       7.161   4.078  17.005  0.00  0.00    +0.000 OA
ATOM     27  H   UNL     1       6.904   4.022  17.942  0.00  0.00    +0.000 HD
ENDBRANCH  18  26
ENDBRANCH  17  18
ENDBRANCH  16  17
ENDBRANCH   4  16
TORSDOF 6
ENDMDL
