MODEL 1
REMARK VINA RESULT:      -6.0      0.000      0.000
REMARK  Name = 
REMARK  18 active torsions:
REMARK  status: ('A' for Active; 'I' for Inactive)
REMARK    1  A    between atoms: C_1  and  C_2
REMARK    2  A    between atoms: C_2  and  C_3
REMARK    3  A    between atoms: C_3  and  C_4
REMARK    4  A    between atoms: C_4  and  C_5
REMARK    5  A    between atoms: C_5  and  C_6
REMARK    6  A    between atoms: C_6  and  C_7
REMARK    7  A    between atoms: C_7  and  C_8
REMARK    8  A    between atoms: C_8  and  C_9
REMARK    9  A    between atoms: C_9  and  C_10
REMARK   10  A    between atoms: C_10  and  C_11
REMARK   11  A    between atoms: C_11  and  C_12
REMARK   12  A    between atoms: C_12  and  C_13
REMARK   13  A    between atoms: C_13  and  C_14
REMARK   14  A    between atoms: C_14  and  C_15
REMARK   15  A    between atoms: C_15  and  C_16
REMARK   16  A    between atoms: C_16  and  N_17
REMARK   17  A    between atoms: C_20  and  C_21
REMARK   18  A    between atoms: C_23  and  C_24
REMARK                            x       y       z     vdW  Elec       q    Type
REMARK                         _______ _______ _______ _____ _____    ______ ____
ROOT
ATOM      1  C   UNL     1       2.006   7.287  18.345  0.00  0.00    +0.000 C 
ENDROOT
BRANCH   1   2
ATOM      2  C   UNL     1       2.090   8.789  18.630  0.00  0.00    +0.000 C 
BRANCH   2   3
ATOM      3  N   UNL     1       1.238   9.512  17.704  0.00  0.00    +0.000 N 
ATOM      4  C   UNL     1       0.110  10.070  18.290  0.00  0.00    +0.000 A 
ATOM      5  N   UNL     1      -0.994  10.049  17.564  0.00  0.00    +0.000 NA
ATOM      6  C   UNL     1      -2.060  10.612  18.125  0.00  0.00    +0.000 A 
ATOM      7  C   UNL     1      -3.350  10.595  17.369  0.00  0.00    +0.000 C 
ATOM      8  N   UNL     1      -2.083  11.182  19.331  0.00  0.00    +0.000 NA
ATOM      9  C   UNL     1      -0.927  11.169  20.006  0.00  0.00    +0.000 A 
ATOM     10  N   UNL     1       0.187  10.606  19.513  0.00  0.00    +0.000 NA
ATOM     11  H   UNL     1       0.945   8.980  16.885  0.00  0.00    +0.000 HD
BRANCH   9  12
ATOM     12  C   UNL     1      -0.867  11.791  21.410  0.00  0.00    +0.000 C 
ATOM     13 CL   UNL     1      -2.456  12.444  21.971  0.00  0.00    +0.000 Cl
ATOM     14 CL   UNL     1      -0.346  10.538  22.593  0.00  0.00    +0.000 Cl
ATOM     15 CL   UNL     1       0.313  13.151  21.452  0.00  0.00    +0.000 Cl
ENDBRANCH   9  12
ENDBRANCH   2   3
ENDBRANCH   1   2
BRANCH   1  16
ATOM     16  C   UNL     1       2.749   6.454  19.388  0.00  0.00    +0.000 C 
BRANCH  16  17
ATOM     17  C   UNL     1       1.827   5.982  20.506  0.00  0.00    +0.000 C 
BRANCH  17  18
ATOM     18  C   UNL     1       2.194   4.581  20.969  0.00  0.00    +0.000 C 
BRANCH  18  19
ATOM     19  C   UNL     1       1.003   3.652  20.779  0.00  0.00    +0.000 C 
BRANCH  19  20
ATOM     20  C   UNL     1       0.986   3.106  19.362  0.00  0.00    +0.000 C 
BRANCH  20  21
ATOM     21  C   UNL     1       2.335   2.501  19.017  0.00  0.00    +0.000 C 
BRANCH  21  22
ATOM     22  C   UNL     1       2.575   2.582  17.521  0.00  0.00    +0.000 C 
BRANCH  22  23
ATOM     23  C   UNL     1       3.777   3.459  17.225  0.00  0.00    +0.000 C 
BRANCH  23  24
ATOM     24  C   UNL     1       4.630   3.616  18.471  0.00  0.00    +0.000 C 
BRANCH  24  25
ATOM     25  C   UNL     1       5.919   4.351  18.137  0.00  0.00    +0.000 C 
BRANCH  25  26
ATOM     26  C   UNL     1       5.621   5.589  17.306  0.00  0.00    +0.000 C 
BRANCH  26  27
ATOM     27  C   UNL     1       6.573   5.670  16.117  0.00  0.00    +0.000 C 
BRANCH  27  29
ATOM     28  C   UNL     1       6.260   3.932  14.346  0.00  0.00    +0.000 C 
ATOM     29  C   UNL     1       5.855   5.316  14.822  0.00  0.00    +0.000 C 
ENDBRANCH  27  29
ENDBRANCH  26  27
ENDBRANCH  25  26
ENDBRANCH  24  25
ENDBRANCH  23  24
ENDBRANCH  22  23
ENDBRANCH  21  22
ENDBRANCH  20  21
ENDBRANCH  19  20
ENDBRANCH  18  19
ENDBRANCH  17  18
ENDBRANCH  16  17
ENDBRANCH   1  16
TORSDOF 16
ENDMDL
MODEL 2
REMARK VINA RESULT:      -5.9      1.205      2.050
REMARK  Name = 
REMARK  18 active torsions:
REMARK  status: ('A' for Active; 'I' for Inactive)
REMARK    1  A    between atoms: C_1  and  C_2
REMARK    2  A    between atoms: C_2  and  C_3
REMARK    3  A    between atoms: C_3  and  C_4
REMARK    4  A    between atoms: C_4  and  C_5
REMARK    5  A    between atoms: C_5  and  C_6
REMARK    6  A    between atoms: C_6  and  C_7
REMARK    7  A    between atoms: C_7  and  C_8
REMARK    8  A    between atoms: C_8  and  C_9
REMARK    9  A    between atoms: C_9  and  C_10
REMARK   10  A    between atoms: C_10  and  C_11
REMARK   11  A    between atoms: C_11  and  C_12
REMARK   12  A    between atoms: C_12  and  C_13
REMARK   13  A    between atoms: C_13  and  C_14
REMARK   14  A    between atoms: C_14  and  C_15
REMARK   15  A    between atoms: C_15  and  C_16
REMARK   16  A    between atoms: C_16  and  N_17
REMARK   17  A    between atoms: C_20  and  C_21
REMARK   18  A    between atoms: C_23  and  C_24
REMARK                            x       y       z     vdW  Elec       q    Type
REMARK                         _______ _______ _______ _____ _____    ______ ____
ROOT
ATOM      1  C   UNL     1       2.442   8.878  17.929  0.00  0.00    +0.000 C 
ENDROOT
BRANCH   1   2
ATOM      2  C   UNL     1       1.152   9.274  18.653  0.00  0.00    +0.000 C 
BRANCH   2   3
ATOM      3  N   UNL     1       0.315  10.061  17.766  0.00  0.00    +0.000 N 
ATOM      4  C   UNL     1      -0.723  10.723  18.408  0.00  0.00    +0.000 A 
ATOM      5  N   UNL     1      -1.865  10.793  17.747  0.00  0.00    +0.000 NA
ATOM      6  C   UNL     1      -2.843  11.455  18.360  0.00  0.00    +0.000 A 
ATOM      7  C   UNL     1      -4.171  11.545  17.679  0.00  0.00    +0.000 C 
ATOM      8  N   UNL     1      -2.744  12.037  19.556  0.00  0.00    +0.000 NA
ATOM      9  C   UNL     1      -1.556  11.928  20.164  0.00  0.00    +0.000 A 
ATOM     10  N   UNL     1      -0.527  11.262  19.616  0.00  0.00    +0.000 NA
ATOM     11  H   UNL     1      -0.071   9.549  16.974  0.00  0.00    +0.000 HD
BRANCH   9  12
ATOM     12  C   UNL     1      -1.359  12.556  21.552  0.00  0.00    +0.000 C 
ATOM     13 CL   UNL     1      -1.476  11.359  22.900  0.00  0.00    +0.000 Cl
ATOM     14 CL   UNL     1       0.273  13.312  21.635  0.00  0.00    +0.000 Cl
ATOM     15 CL   UNL     1      -2.600  13.824  21.858  0.00  0.00    +0.000 Cl
ENDBRANCH   9  12
ENDBRANCH   2   3
ENDBRANCH   1   2
BRANCH   1  16
ATOM     16  C   UNL     1       2.624   7.362  17.853  0.00  0.00    +0.000 C 
BRANCH  16  17
ATOM     17  C   UNL     1       2.011   6.651  19.054  0.00  0.00    +0.000 C 
BRANCH  17  18
ATOM     18  C   UNL     1       3.084   6.039  19.940  0.00  0.00    +0.000 C 
BRANCH  18  19
ATOM     19  C   UNL     1       2.461   4.984  20.842  0.00  0.00    +0.000 C 
BRANCH  19  20
ATOM     20  C   UNL     1       1.148   4.499  20.253  0.00  0.00    +0.000 C 
BRANCH  20  21
ATOM     21  C   UNL     1       1.059   2.986  20.344  0.00  0.00    +0.000 C 
BRANCH  21  22
ATOM     22  C   UNL     1       0.912   2.389  18.956  0.00  0.00    +0.000 C 
BRANCH  22  23
ATOM     23  C   UNL     1       1.601   3.266  17.927  0.00  0.00    +0.000 C 
BRANCH  23  24
ATOM     24  C   UNL     1       2.985   2.723  17.619  0.00  0.00    +0.000 C 
BRANCH  24  25
ATOM     25  C   UNL     1       3.764   3.718  16.773  0.00  0.00    +0.000 C 
BRANCH  25  26
ATOM     26  C   UNL     1       5.024   4.159  17.501  0.00  0.00    +0.000 C 
BRANCH  26  27
ATOM     27  C   UNL     1       5.545   5.466  16.914  0.00  0.00    +0.000 C 
BRANCH  27  29
ATOM     28  C   UNL     1       6.561   5.394  19.198  0.00  0.00    +0.000 C 
ATOM     29  C   UNL     1       6.460   6.178  17.902  0.00  0.00    +0.000 C 
ENDBRANCH  27  29
ENDBRANCH  26  27
ENDBRANCH  25  26
ENDBRANCH  24  25
ENDBRANCH  23  24
ENDBRANCH  22  23
ENDBRANCH  21  22
ENDBRANCH  20  21
ENDBRANCH  19  20
ENDBRANCH  18  19
ENDBRANCH  17  18
ENDBRANCH  16  17
ENDBRANCH   1  16
TORSDOF 16
ENDMDL
MODEL 3
REMARK VINA RESULT:      -5.9      2.266      4.475
REMARK  Name = 
REMARK  18 active torsions:
REMARK  status: ('A' for Active; 'I' for Inactive)
REMARK    1  A    between atoms: C_1  and  C_2
REMARK    2  A    between atoms: C_2  and  C_3
REMARK    3  A    between atoms: C_3  and  C_4
REMARK    4  A    between atoms: C_4  and  C_5
REMARK    5  A    between atoms: C_5  and  C_6
REMARK    6  A    between atoms: C_6  and  C_7
REMARK    7  A    between atoms: C_7  and  C_8
REMARK    8  A    between atoms: C_8  and  C_9
REMARK    9  A    between atoms: C_9  and  C_10
REMARK   10  A    between atoms: C_10  and  C_11
REMARK   11  A    between atoms: C_11  and  C_12
REMARK   12  A    between atoms: C_12  and  C_13
REMARK   13  A    between atoms: C_13  and  C_14
REMARK   14  A    between atoms: C_14  and  C_15
REMARK   15  A    between atoms: C_15  and  C_16
REMARK   16  A    between atoms: C_16  and  N_17
REMARK   17  A    between atoms: C_20  and  C_21
REMARK   18  A    between atoms: C_23  and  C_24
REMARK                            x       y       z     vdW  Elec       q    Type
REMARK                         _______ _______ _______ _____ _____    ______ ____
ROOT
ATOM      1  C   UNL     1       2.294   7.901  17.595  0.00  0.00    +0.000 C 
ENDROOT
BRANCH   1   2
ATOM      2  C   UNL     1       2.001   9.398  17.724  0.00  0.00    +0.000 C 
BRANCH   2   3
ATOM      3  N   UNL     1       0.730   9.592  18.397  0.00  0.00    +0.000 N 
ATOM      4  C   UNL     1       0.760  10.554  19.397  0.00  0.00    +0.000 A 
ATOM      5  N   UNL     1       0.033  10.300  20.471  0.00  0.00    +0.000 NA
ATOM      6  C   UNL     1       0.047  11.242  21.410  0.00  0.00    +0.000 A 
ATOM      7  C   UNL     1      -0.731  11.003  22.664  0.00  0.00    +0.000 C 
ATOM      8  N   UNL     1       0.722  12.390  21.335  0.00  0.00    +0.000 NA
ATOM      9  C   UNL     1       1.433  12.580  20.217  0.00  0.00    +0.000 A 
ATOM     10  N   UNL     1       1.481  11.668  19.233  0.00  0.00    +0.000 NA
ATOM     11  H   UNL     1       0.312   8.744  18.778  0.00  0.00    +0.000 HD
BRANCH   9  12
ATOM     12  C   UNL     1       2.253  13.868  20.054  0.00  0.00    +0.000 C 
ATOM     13 CL   UNL     1       1.277  15.371  20.291  0.00  0.00    +0.000 Cl
ATOM     14 CL   UNL     1       3.581  13.885  21.270  0.00  0.00    +0.000 Cl
ATOM     15 CL   UNL     1       2.976  13.958  18.407  0.00  0.00    +0.000 Cl
ENDBRANCH   9  12
ENDBRANCH   2   3
ENDBRANCH   1   2
BRANCH   1  16
ATOM     16  C   UNL     1       3.725   7.550  17.999  0.00  0.00    +0.000 C 
BRANCH  16  17
ATOM     17  C   UNL     1       4.524   6.974  16.835  0.00  0.00    +0.000 C 
BRANCH  17  18
ATOM     18  C   UNL     1       5.991   6.812  17.200  0.00  0.00    +0.000 C 
BRANCH  18  19
ATOM     19  C   UNL     1       6.279   5.352  17.519  0.00  0.00    +0.000 C 
BRANCH  19  20
ATOM     20  C   UNL     1       6.023   5.076  18.990  0.00  0.00    +0.000 C 
BRANCH  20  21
ATOM     21  C   UNL     1       4.812   4.176  19.152  0.00  0.00    +0.000 C 
BRANCH  21  22
ATOM     22  C   UNL     1       4.495   3.486  17.838  0.00  0.00    +0.000 C 
BRANCH  22  23
ATOM     23  C   UNL     1       3.020   3.621  17.512  0.00  0.00    +0.000 C 
BRANCH  23  24
ATOM     24  C   UNL     1       2.307   2.302  17.755  0.00  0.00    +0.000 C 
BRANCH  24  25
ATOM     25  C   UNL     1       1.252   2.465  18.837  0.00  0.00    +0.000 C 
BRANCH  25  26
ATOM     26  C   UNL     1       1.837   2.132  20.200  0.00  0.00    +0.000 C 
BRANCH  26  27
ATOM     27  C   UNL     1       1.658   3.308  21.155  0.00  0.00    +0.000 C 
BRANCH  27  29
ATOM     28  C   UNL     1       1.845   5.735  20.579  0.00  0.00    +0.000 C 
ATOM     29  C   UNL     1       0.995   4.484  20.448  0.00  0.00    +0.000 C 
ENDBRANCH  27  29
ENDBRANCH  26  27
ENDBRANCH  25  26
ENDBRANCH  24  25
ENDBRANCH  23  24
ENDBRANCH  22  23
ENDBRANCH  21  22
ENDBRANCH  20  21
ENDBRANCH  19  20
ENDBRANCH  18  19
ENDBRANCH  17  18
ENDBRANCH  16  17
ENDBRANCH   1  16
TORSDOF 16
ENDMDL
MODEL 4
REMARK VINA RESULT:      -5.8      2.252      3.050
REMARK  Name = 
REMARK  18 active torsions:
REMARK  status: ('A' for Active; 'I' for Inactive)
REMARK    1  A    between atoms: C_1  and  C_2
REMARK    2  A    between atoms: C_2  and  C_3
REMARK    3  A    between atoms: C_3  and  C_4
REMARK    4  A    between atoms: C_4  and  C_5
REMARK    5  A    between atoms: C_5  and  C_6
REMARK    6  A    between atoms: C_6  and  C_7
REMARK    7  A    between atoms: C_7  and  C_8
REMARK    8  A    between atoms: C_8  and  C_9
REMARK    9  A    between atoms: C_9  and  C_10
REMARK   10  A    between atoms: C_10  and  C_11
REMARK   11  A    between atoms: C_11  and  C_12
REMARK   12  A    between atoms: C_12  and  C_13
REMARK   13  A    between atoms: C_13  and  C_14
REMARK   14  A    between atoms: C_14  and  C_15
REMARK   15  A    between atoms: C_15  and  C_16
REMARK   16  A    between atoms: C_16  and  N_17
REMARK   17  A    between atoms: C_20  and  C_21
REMARK   18  A    between atoms: C_23  and  C_24
REMARK                            x       y       z     vdW  Elec       q    Type
REMARK                         _______ _______ _______ _____ _____    ______ ____
ROOT
ATOM      1  C   UNL     1       2.041   7.747  18.087  0.00  0.00    +0.000 C 
ENDROOT
BRANCH   1   2
ATOM      2  C   UNL     1       1.741   9.215  17.772  0.00  0.00    +0.000 C 
BRANCH   2   3
ATOM      3  N   UNL     1       1.355   9.908  18.988  0.00  0.00    +0.000 N 
ATOM      4  C   UNL     1       0.226  10.705  18.850  0.00  0.00    +0.000 A 
ATOM      5  N   UNL     1       0.235  11.846  19.517  0.00  0.00    +0.000 NA
ATOM      6  C   UNL     1      -0.864  12.586  19.401  0.00  0.00    +0.000 A 
ATOM      7  C   UNL     1      -0.906  13.904  20.107  0.00  0.00    +0.000 C 
ATOM      8  N   UNL     1      -1.938  12.259  18.682  0.00  0.00    +0.000 NA
ATOM      9  C   UNL     1      -1.876  11.088  18.037  0.00  0.00    +0.000 A 
ATOM     10  N   UNL     1      -0.796  10.293  18.093  0.00  0.00    +0.000 NA
ATOM     11  H   UNL     1       2.092  10.466  19.417  0.00  0.00    +0.000 HD
BRANCH   9  12
ATOM     12  C   UNL     1      -3.064  10.639  17.174  0.00  0.00    +0.000 C 
ATOM     13 CL   UNL     1      -2.628  10.378  15.439  0.00  0.00    +0.000 Cl
ATOM     14 CL   UNL     1      -3.709   9.083  17.811  0.00  0.00    +0.000 Cl
ATOM     15 CL   UNL     1      -4.379  11.868  17.212  0.00  0.00    +0.000 Cl
ENDBRANCH   9  12
ENDBRANCH   2   3
ENDBRANCH   1   2
BRANCH   1  16
ATOM     16  C   UNL     1       2.144   7.483  19.589  0.00  0.00    +0.000 C 
BRANCH  16  17
ATOM     17  C   UNL     1       2.656   6.078  19.889  0.00  0.00    +0.000 C 
BRANCH  17  18
ATOM     18  C   UNL     1       1.558   5.204  20.472  0.00  0.00    +0.000 C 
BRANCH  18  19
ATOM     19  C   UNL     1       2.178   4.113  21.333  0.00  0.00    +0.000 C 
BRANCH  19  20
ATOM     20  C   UNL     1       2.216   2.801  20.569  0.00  0.00    +0.000 C 
BRANCH  20  21
ATOM     21  C   UNL     1       3.653   2.390  20.304  0.00  0.00    +0.000 C 
BRANCH  21  22
ATOM     22  C   UNL     1       3.846   2.094  18.828  0.00  0.00    +0.000 C 
BRANCH  22  23
ATOM     23  C   UNL     1       2.571   2.383  18.060  0.00  0.00    +0.000 C 
BRANCH  23  24
ATOM     24  C   UNL     1       2.787   3.540  17.101  0.00  0.00    +0.000 C 
BRANCH  24  25
ATOM     25  C   UNL     1       4.186   4.109  17.268  0.00  0.00    +0.000 C 
BRANCH  25  26
ATOM     26  C   UNL     1       4.883   4.203  15.920  0.00  0.00    +0.000 C 
BRANCH  26  27
ATOM     27  C   UNL     1       6.343   4.605  16.105  0.00  0.00    +0.000 C 
BRANCH  27  29
ATOM     28  C   UNL     1       7.714   4.882  18.178  0.00  0.00    +0.000 C 
ATOM     29  C   UNL     1       6.526   5.403  17.390  0.00  0.00    +0.000 C 
ENDBRANCH  27  29
ENDBRANCH  26  27
ENDBRANCH  25  26
ENDBRANCH  24  25
ENDBRANCH  23  24
ENDBRANCH  22  23
ENDBRANCH  21  22
ENDBRANCH  20  21
ENDBRANCH  19  20
ENDBRANCH  18  19
ENDBRANCH  17  18
ENDBRANCH  16  17
ENDBRANCH   1  16
TORSDOF 16
ENDMDL
MODEL 5
REMARK VINA RESULT:      -5.8      2.481      5.063
REMARK  Name = 
REMARK  18 active torsions:
REMARK  status: ('A' for Active; 'I' for Inactive)
REMARK    1  A    between atoms: C_1  and  C_2
REMARK    2  A    between atoms: C_2  and  C_3
REMARK    3  A    between atoms: C_3  and  C_4
REMARK    4  A    between atoms: C_4  and  C_5
REMARK    5  A    between atoms: C_5  and  C_6
REMARK    6  A    between atoms: C_6  and  C_7
REMARK    7  A    between atoms: C_7  and  C_8
REMARK    8  A    between atoms: C_8  and  C_9
REMARK    9  A    between atoms: C_9  and  C_10
REMARK   10  A    between atoms: C_10  and  C_11
REMARK   11  A    between atoms: C_11  and  C_12
REMARK   12  A    between atoms: C_12  and  C_13
REMARK   13  A    between atoms: C_13  and  C_14
REMARK   14  A    between atoms: C_14  and  C_15
REMARK   15  A    between atoms: C_15  and  C_16
REMARK   16  A    between atoms: C_16  and  N_17
REMARK   17  A    between atoms: C_20  and  C_21
REMARK   18  A    between atoms: C_23  and  C_24
REMARK                            x       y       z     vdW  Elec       q    Type
REMARK                         _______ _______ _______ _____ _____    ______ ____
ROOT
ATOM      1  C   UNL     1      -2.240  10.793  17.311  0.00  0.00    +0.000 C 
ENDROOT
BRANCH   1   2
ATOM      2  C   UNL     1      -2.397  11.832  18.425  0.00  0.00    +0.000 C 
BRANCH   2   3
ATOM      3  N   UNL     1      -3.759  12.336  18.435  0.00  0.00    +0.000 N 
ATOM      4  C   UNL     1      -4.352  12.335  19.690  0.00  0.00    +0.000 A 
ATOM      5  N   UNL     1      -5.638  12.031  19.726  0.00  0.00    +0.000 NA
ATOM      6  C   UNL     1      -6.202  12.063  20.930  0.00  0.00    +0.000 A 
ATOM      7  C   UNL     1      -7.648  11.699  21.044  0.00  0.00    +0.000 C 
ATOM      8  N   UNL     1      -5.573  12.375  22.064  0.00  0.00    +0.000 NA
ATOM      9  C   UNL     1      -4.274  12.675  21.950  0.00  0.00    +0.000 A 
ATOM     10  N   UNL     1      -3.632  12.650  20.771  0.00  0.00    +0.000 NA
ATOM     11  H   UNL     1      -4.391  11.878  17.780  0.00  0.00    +0.000 HD
BRANCH   9  12
ATOM     12  C   UNL     1      -3.469  13.032  23.208  0.00  0.00    +0.000 C 
ATOM     13 CL   UNL     1      -1.789  12.366  23.195  0.00  0.00    +0.000 Cl
ATOM     14 CL   UNL     1      -3.342  14.823  23.344  0.00  0.00    +0.000 Cl
ATOM     15 CL   UNL     1      -4.281  12.397  24.685  0.00  0.00    +0.000 Cl
ENDBRANCH   9  12
ENDBRANCH   2   3
ENDBRANCH   1   2
BRANCH   1  16
ATOM     16  C   UNL     1      -1.091   9.822  17.580  0.00  0.00    +0.000 C 
BRANCH  16  17
ATOM     17  C   UNL     1      -0.269  10.229  18.797  0.00  0.00    +0.000 C 
BRANCH  17  18
ATOM     18  C   UNL     1       1.218  10.047  18.544  0.00  0.00    +0.000 C 
BRANCH  18  19
ATOM     19  C   UNL     1       1.657   8.677  19.040  0.00  0.00    +0.000 C 
BRANCH  19  20
ATOM     20  C   UNL     1       2.295   7.890  17.908  0.00  0.00    +0.000 C 
BRANCH  20  21
ATOM     21  C   UNL     1       3.138   6.758  18.467  0.00  0.00    +0.000 C 
BRANCH  21  22
ATOM     22  C   UNL     1       4.151   6.304  17.432  0.00  0.00    +0.000 C 
BRANCH  22  23
ATOM     23  C   UNL     1       4.673   4.921  17.774  0.00  0.00    +0.000 C 
BRANCH  23  24
ATOM     24  C   UNL     1       3.933   3.868  16.968  0.00  0.00    +0.000 C 
BRANCH  24  25
ATOM     25  C   UNL     1       3.705   2.623  17.811  0.00  0.00    +0.000 C 
BRANCH  25  26
ATOM     26  C   UNL     1       2.221   2.297  17.880  0.00  0.00    +0.000 C 
BRANCH  26  27
ATOM     27  C   UNL     1       1.716   2.433  19.313  0.00  0.00    +0.000 C 
BRANCH  27  29
ATOM     28  C   UNL     1       1.705   4.343  20.927  0.00  0.00    +0.000 C 
ATOM     29  C   UNL     1       1.215   3.847  19.579  0.00  0.00    +0.000 C 
ENDBRANCH  27  29
ENDBRANCH  26  27
ENDBRANCH  25  26
ENDBRANCH  24  25
ENDBRANCH  23  24
ENDBRANCH  22  23
ENDBRANCH  21  22
ENDBRANCH  20  21
ENDBRANCH  19  20
ENDBRANCH  18  19
ENDBRANCH  17  18
ENDBRANCH  16  17
ENDBRANCH   1  16
TORSDOF 16
ENDMDL
MODEL 6
REMARK VINA RESULT:      -5.7      1.868      2.789
REMARK  Name = 
REMARK  18 active torsions:
REMARK  status: ('A' for Active; 'I' for Inactive)
REMARK    1  A    between atoms: C_1  and  C_2
REMARK    2  A    between atoms: C_2  and  C_3
REMARK    3  A    between atoms: C_3  and  C_4
REMARK    4  A    between atoms: C_4  and  C_5
REMARK    5  A    between atoms: C_5  and  C_6
REMARK    6  A    between atoms: C_6  and  C_7
REMARK    7  A    between atoms: C_7  and  C_8
REMARK    8  A    between atoms: C_8  and  C_9
REMARK    9  A    between atoms: C_9  and  C_10
REMARK   10  A    between atoms: C_10  and  C_11
REMARK   11  A    between atoms: C_11  and  C_12
REMARK   12  A    between atoms: C_12  and  C_13
REMARK   13  A    between atoms: C_13  and  C_14
REMARK   14  A    between atoms: C_14  and  C_15
REMARK   15  A    between atoms: C_15  and  C_16
REMARK   16  A    between atoms: C_16  and  N_17
REMARK   17  A    between atoms: C_20  and  C_21
REMARK   18  A    between atoms: C_23  and  C_24
REMARK                            x       y       z     vdW  Elec       q    Type
REMARK                         _______ _______ _______ _____ _____    ______ ____
ROOT
ATOM      1  C   UNL     1       2.232   9.204  17.731  0.00  0.00    +0.000 C 
ENDROOT
BRANCH   1   2
ATOM      2  C   UNL     1       1.329   9.414  18.949  0.00  0.00    +0.000 C 
BRANCH   2   3
ATOM      3  N   UNL     1      -0.003   9.793  18.513  0.00  0.00    +0.000 N 
ATOM      4  C   UNL     1      -0.392  11.061  18.921  0.00  0.00    +0.000 A 
ATOM      5  N   UNL     1      -1.663  11.199  19.257  0.00  0.00    +0.000 NA
ATOM      6  C   UNL     1      -2.030  12.426  19.617  0.00  0.00    +0.000 A 
ATOM      7  C   UNL     1      -3.448  12.644  20.039  0.00  0.00    +0.000 C 
ATOM      8  N   UNL     1      -1.226  13.489  19.655  0.00  0.00    +0.000 NA
ATOM      9  C   UNL     1       0.046  13.273  19.298  0.00  0.00    +0.000 A 
ATOM     10  N   UNL     1       0.495  12.061  18.937  0.00  0.00    +0.000 NA
ATOM     11  H   UNL     1      -0.740   9.134  18.763  0.00  0.00    +0.000 HD
BRANCH   9  12
ATOM     12  C   UNL     1       1.045  14.440  19.326  0.00  0.00    +0.000 C 
ATOM     13 CL   UNL     1       2.457  14.197  18.224  0.00  0.00    +0.000 Cl
ATOM     14 CL   UNL     1       0.210  15.951  18.815  0.00  0.00    +0.000 Cl
ATOM     15 CL   UNL     1       1.701  14.675  20.987  0.00  0.00    +0.000 Cl
ENDBRANCH   9  12
ENDBRANCH   2   3
ENDBRANCH   1   2
BRANCH   1  16
ATOM     16  C   UNL     1       3.048   7.916  17.826  0.00  0.00    +0.000 C 
BRANCH  16  17
ATOM     17  C   UNL     1       2.226   6.757  18.379  0.00  0.00    +0.000 C 
BRANCH  17  18
ATOM     18  C   UNL     1       2.886   6.148  19.605  0.00  0.00    +0.000 C 
BRANCH  18  19
ATOM     19  C   UNL     1       1.822   5.552  20.515  0.00  0.00    +0.000 C 
BRANCH  19  20
ATOM     20  C   UNL     1       1.944   4.038  20.542  0.00  0.00    +0.000 C 
BRANCH  20  21
ATOM     21  C   UNL     1       1.062   3.422  19.471  0.00  0.00    +0.000 C 
BRANCH  21  22
ATOM     22  C   UNL     1       1.872   2.461  18.619  0.00  0.00    +0.000 C 
BRANCH  22  23
ATOM     23  C   UNL     1       2.459   3.182  17.421  0.00  0.00    +0.000 C 
BRANCH  23  24
ATOM     24  C   UNL     1       3.976   3.169  17.492  0.00  0.00    +0.000 C 
BRANCH  24  25
ATOM     25  C   UNL     1       4.548   4.374  16.762  0.00  0.00    +0.000 C 
BRANCH  25  26
ATOM     26  C   UNL     1       5.763   3.967  15.943  0.00  0.00    +0.000 C 
BRANCH  26  27
ATOM     27  C   UNL     1       7.024   4.610  16.510  0.00  0.00    +0.000 C 
BRANCH  27  29
ATOM     28  C   UNL     1       7.535   6.408  18.173  0.00  0.00    +0.000 C 
ATOM     29  C   UNL     1       6.760   6.055  16.916  0.00  0.00    +0.000 C 
ENDBRANCH  27  29
ENDBRANCH  26  27
ENDBRANCH  25  26
ENDBRANCH  24  25
ENDBRANCH  23  24
ENDBRANCH  22  23
ENDBRANCH  21  22
ENDBRANCH  20  21
ENDBRANCH  19  20
ENDBRANCH  18  19
ENDBRANCH  17  18
ENDBRANCH  16  17
ENDBRANCH   1  16
TORSDOF 16
ENDMDL
MODEL 7
REMARK VINA RESULT:      -5.7      4.122      9.378
REMARK  Name = 
REMARK  18 active torsions:
REMARK  status: ('A' for Active; 'I' for Inactive)
REMARK    1  A    between atoms: C_1  and  C_2
REMARK    2  A    between atoms: C_2  and  C_3
REMARK    3  A    between atoms: C_3  and  C_4
REMARK    4  A    between atoms: C_4  and  C_5
REMARK    5  A    between atoms: C_5  and  C_6
REMARK    6  A    between atoms: C_6  and  C_7
REMARK    7  A    between atoms: C_7  and  C_8
REMARK    8  A    between atoms: C_8  and  C_9
REMARK    9  A    between atoms: C_9  and  C_10
REMARK   10  A    between atoms: C_10  and  C_11
REMARK   11  A    between atoms: C_11  and  C_12
REMARK   12  A    between atoms: C_12  and  C_13
REMARK   13  A    between atoms: C_13  and  C_14
REMARK   14  A    between atoms: C_14  and  C_15
REMARK   15  A    between atoms: C_15  and  C_16
REMARK   16  A    between atoms: C_16  and  N_17
REMARK   17  A    between atoms: C_20  and  C_21
REMARK   18  A    between atoms: C_23  and  C_24
REMARK                            x       y       z     vdW  Elec       q    Type
REMARK                         _______ _______ _______ _____ _____    ______ ____
ROOT
ATOM      1  C   UNL     1       1.598   9.036  17.852  0.00  0.00    +0.000 C 
ENDROOT
BRANCH   1   2
ATOM      2  C   UNL     1       2.454   7.948  18.505  0.00  0.00    +0.000 C 
BRANCH   2   3
ATOM      3  N   UNL     1       3.498   7.529  17.588  0.00  0.00    +0.000 N 
ATOM      4  C   UNL     1       4.032   6.279  17.871  0.00  0.00    +0.000 A 
ATOM      5  N   UNL     1       5.331   6.143  17.670  0.00  0.00    +0.000 NA
ATOM      6  C   UNL     1       5.826   4.933  17.917  0.00  0.00    +0.000 A 
ATOM      7  C   UNL     1       7.295   4.720  17.738  0.00  0.00    +0.000 C 
ATOM      8  N   UNL     1       5.117   3.885  18.336  0.00  0.00    +0.000 NA
ATOM      9  C   UNL     1       3.807   4.097  18.515  0.00  0.00    +0.000 A 
ATOM     10  N   UNL     1       3.238   5.294  18.301  0.00  0.00    +0.000 NA
ATOM     11  H   UNL     1       4.266   8.191  17.480  0.00  0.00    +0.000 HD
BRANCH   9  12
ATOM     12  C   UNL     1       2.917   2.947  19.011  0.00  0.00    +0.000 C 
ATOM     13 CL   UNL     1       2.773   2.881  20.811  0.00  0.00    +0.000 Cl
ATOM     14 CL   UNL     1       1.259   3.148  18.339  0.00  0.00    +0.000 Cl
ATOM     15 CL   UNL     1       3.571   1.359  18.471  0.00  0.00    +0.000 Cl
ENDBRANCH   9  12
ENDBRANCH   2   3
ENDBRANCH   1   2
BRANCH   1  16
ATOM     16  C   UNL     1       1.409  10.251  18.759  0.00  0.00    +0.000 C 
BRANCH  16  17
ATOM     17  C   UNL     1      -0.013  10.345  19.301  0.00  0.00    +0.000 C 
BRANCH  17  18
ATOM     18  C   UNL     1      -0.191   9.480  20.537  0.00  0.00    +0.000 C 
BRANCH  18  19
ATOM     19  C   UNL     1       0.530  10.118  21.716  0.00  0.00    +0.000 C 
BRANCH  19  20
ATOM     20  C   UNL     1      -0.315  10.003  22.972  0.00  0.00    +0.000 C 
BRANCH  20  21
ATOM     21  C   UNL     1      -1.405  11.059  22.970  0.00  0.00    +0.000 C 
BRANCH  21  22
ATOM     22  C   UNL     1      -0.823  12.408  22.591  0.00  0.00    +0.000 C 
BRANCH  22  23
ATOM     23  C   UNL     1      -1.929  13.432  22.417  0.00  0.00    +0.000 C 
BRANCH  23  24
ATOM     24  C   UNL     1      -3.224  12.742  22.027  0.00  0.00    +0.000 C 
BRANCH  24  25
ATOM     25  C   UNL     1      -3.634  13.147  20.620  0.00  0.00    +0.000 C 
BRANCH  25  26
ATOM     26  C   UNL     1      -3.091  12.154  19.605  0.00  0.00    +0.000 C 
BRANCH  26  27
ATOM     27  C   UNL     1      -4.181  11.764  18.611  0.00  0.00    +0.000 C 
BRANCH  27  29
ATOM     28  C   UNL     1      -3.165   9.764  17.504  0.00  0.00    +0.000 C 
ATOM     29  C   UNL     1      -3.572  11.216  17.326  0.00  0.00    +0.000 C 
ENDBRANCH  27  29
ENDBRANCH  26  27
ENDBRANCH  25  26
ENDBRANCH  24  25
ENDBRANCH  23  24
ENDBRANCH  22  23
ENDBRANCH  21  22
ENDBRANCH  20  21
ENDBRANCH  19  20
ENDBRANCH  18  19
ENDBRANCH  17  18
ENDBRANCH  16  17
ENDBRANCH   1  16
TORSDOF 16
ENDMDL
MODEL 8
REMARK VINA RESULT:      -5.7      2.267      3.180
REMARK  Name = 
REMARK  18 active torsions:
REMARK  status: ('A' for Active; 'I' for Inactive)
REMARK    1  A    between atoms: C_1  and  C_2
REMARK    2  A    between atoms: C_2  and  C_3
REMARK    3  A    between atoms: C_3  and  C_4
REMARK    4  A    between atoms: C_4  and  C_5
REMARK    5  A    between atoms: C_5  and  C_6
REMARK    6  A    between atoms: C_6  and  C_7
REMARK    7  A    between atoms: C_7  and  C_8
REMARK    8  A    between atoms: C_8  and  C_9
REMARK    9  A    between atoms: C_9  and  C_10
REMARK   10  A    between atoms: C_10  and  C_11
REMARK   11  A    between atoms: C_11  and  C_12
REMARK   12  A    between atoms: C_12  and  C_13
REMARK   13  A    between atoms: C_13  and  C_14
REMARK   14  A    between atoms: C_14  and  C_15
REMARK   15  A    between atoms: C_15  and  C_16
REMARK   16  A    between atoms: C_16  and  N_17
REMARK   17  A    between atoms: C_20  and  C_21
REMARK   18  A    between atoms: C_23  and  C_24
REMARK                            x       y       z     vdW  Elec       q    Type
REMARK                         _______ _______ _______ _____ _____    ______ ____
ROOT
ATOM      1  C   UNL     1       2.383   8.978  18.016  0.00  0.00    +0.000 C 
ENDROOT
BRANCH   1   2
ATOM      2  C   UNL     1       1.266   8.845  19.056  0.00  0.00    +0.000 C 
BRANCH   2   3
ATOM      3  N   UNL     1       1.104  10.103  19.763  0.00  0.00    +0.000 N 
ATOM      4  C   UNL     1       0.244  10.996  19.138  0.00  0.00    +0.000 A 
ATOM      5  N   UNL     1       0.581  12.272  19.206  0.00  0.00    +0.000 NA
ATOM      6  C   UNL     1      -0.265  13.120  18.629  0.00  0.00    +0.000 A 
ATOM      7  C   UNL     1       0.073  14.577  18.644  0.00  0.00    +0.000 C 
ATOM      8  N   UNL     1      -1.395  12.776  18.011  0.00  0.00    +0.000 NA
ATOM      9  C   UNL     1      -1.673  11.467  17.985  0.00  0.00    +0.000 A 
ATOM     10  N   UNL     1      -0.860  10.549  18.531  0.00  0.00    +0.000 NA
ATOM     11  H   UNL     1       1.973  10.590  19.979  0.00  0.00    +0.000 HD
BRANCH   9  12
ATOM     12  C   UNL     1      -2.948  10.980  17.280  0.00  0.00    +0.000 C 
ATOM     13 CL   UNL     1      -2.830  11.023  15.477  0.00  0.00    +0.000 Cl
ATOM     14 CL   UNL     1      -3.281   9.278  17.762  0.00  0.00    +0.000 Cl
ATOM     15 CL   UNL     1      -4.359  11.998  17.745  0.00  0.00    +0.000 Cl
ENDBRANCH   9  12
ENDBRANCH   2   3
ENDBRANCH   1   2
BRANCH   1  16
ATOM     16  C   UNL     1       2.979   7.626  17.626  0.00  0.00    +0.000 C 
BRANCH  16  17
ATOM     17  C   UNL     1       2.513   6.507  18.551  0.00  0.00    +0.000 C 
BRANCH  17  18
ATOM     18  C   UNL     1       3.568   6.178  19.594  0.00  0.00    +0.000 C 
BRANCH  18  19
ATOM     19  C   UNL     1       3.117   4.981  20.418  0.00  0.00    +0.000 C 
BRANCH  19  20
ATOM     20  C   UNL     1       1.602   4.886  20.418  0.00  0.00    +0.000 C 
BRANCH  20  21
ATOM     21  C   UNL     1       1.167   3.441  20.581  0.00  0.00    +0.000 C 
BRANCH  21  22
ATOM     22  C   UNL     1       2.103   2.525  19.813  0.00  0.00    +0.000 C 
BRANCH  22  23
ATOM     23  C   UNL     1       1.509   2.176  18.462  0.00  0.00    +0.000 C 
BRANCH  23  24
ATOM     24  C   UNL     1       2.180   2.989  17.369  0.00  0.00    +0.000 C 
BRANCH  24  25
ATOM     25  C   UNL     1       3.690   2.960  17.541  0.00  0.00    +0.000 C 
BRANCH  25  26
ATOM     26  C   UNL     1       4.334   4.087  16.749  0.00  0.00    +0.000 C 
BRANCH  26  27
ATOM     27  C   UNL     1       5.719   3.670  16.265  0.00  0.00    +0.000 C 
BRANCH  27  29
ATOM     28  C   UNL     1       5.417   5.952  15.287  0.00  0.00    +0.000 C 
ATOM     29  C   UNL     1       6.383   4.797  15.485  0.00  0.00    +0.000 C 
ENDBRANCH  27  29
ENDBRANCH  26  27
ENDBRANCH  25  26
ENDBRANCH  24  25
ENDBRANCH  23  24
ENDBRANCH  22  23
ENDBRANCH  21  22
ENDBRANCH  20  21
ENDBRANCH  19  20
ENDBRANCH  18  19
ENDBRANCH  17  18
ENDBRANCH  16  17
ENDBRANCH   1  16
TORSDOF 16
ENDMDL
MODEL 9
REMARK VINA RESULT:      -5.6      1.110      1.716
REMARK  Name = 
REMARK  18 active torsions:
REMARK  status: ('A' for Active; 'I' for Inactive)
REMARK    1  A    between atoms: C_1  and  C_2
REMARK    2  A    between atoms: C_2  and  C_3
REMARK    3  A    between atoms: C_3  and  C_4
REMARK    4  A    between atoms: C_4  and  C_5
REMARK    5  A    between atoms: C_5  and  C_6
REMARK    6  A    between atoms: C_6  and  C_7
REMARK    7  A    between atoms: C_7  and  C_8
REMARK    8  A    between atoms: C_8  and  C_9
REMARK    9  A    between atoms: C_9  and  C_10
REMARK   10  A    between atoms: C_10  and  C_11
REMARK   11  A    between atoms: C_11  and  C_12
REMARK   12  A    between atoms: C_12  and  C_13
REMARK   13  A    between atoms: C_13  and  C_14
REMARK   14  A    between atoms: C_14  and  C_15
REMARK   15  A    between atoms: C_15  and  C_16
REMARK   16  A    between atoms: C_16  and  N_17
REMARK   17  A    between atoms: C_20  and  C_21
REMARK   18  A    between atoms: C_23  and  C_24
REMARK                            x       y       z     vdW  Elec       q    Type
REMARK                         _______ _______ _______ _____ _____    ______ ____
ROOT
ATOM      1  C   UNL     1       2.231   6.864  20.204  0.00  0.00    +0.000 C 
ENDROOT
BRANCH   1   2
ATOM      2  C   UNL     1       1.392   8.097  20.551  0.00  0.00    +0.000 C 
BRANCH   2   3
ATOM      3  N   UNL     1       1.300   8.968  19.394  0.00  0.00    +0.000 N 
ATOM      4  C   UNL     1       0.256   9.881  19.455  0.00  0.00    +0.000 A 
ATOM      5  N   UNL     1      -0.363  10.134  18.315  0.00  0.00    +0.000 NA
ATOM      6  C   UNL     1      -1.342  11.032  18.381  0.00  0.00    +0.000 A 
ATOM      7  C   UNL     1      -2.102  11.342  17.131  0.00  0.00    +0.000 C 
ATOM      8  N   UNL     1      -1.723  11.672  19.486  0.00  0.00    +0.000 NA
ATOM      9  C   UNL     1      -1.050  11.367  20.602  0.00  0.00    +0.000 A 
ATOM     10  N   UNL     1      -0.060  10.460  20.618  0.00  0.00    +0.000 NA
ATOM     11  H   UNL     1       1.255   8.487  18.496  0.00  0.00    +0.000 HD
BRANCH   9  12
ATOM     12  C   UNL     1      -1.433  12.047  21.925  0.00  0.00    +0.000 C 
ATOM     13 CL   UNL     1      -3.108  12.726  21.920  0.00  0.00    +0.000 Cl
ATOM     14 CL   UNL     1      -1.338  10.845  23.261  0.00  0.00    +0.000 Cl
ATOM     15 CL   UNL     1      -0.309  13.406  22.289  0.00  0.00    +0.000 Cl
ENDBRANCH   9  12
ENDBRANCH   2   3
ENDBRANCH   1   2
BRANCH   1  16
ATOM     16  C   UNL     1       1.529   5.558  20.574  0.00  0.00    +0.000 C 
BRANCH  16  17
ATOM     17  C   UNL     1       1.249   4.692  19.351  0.00  0.00    +0.000 C 
BRANCH  17  18
ATOM     18  C   UNL     1       1.081   3.232  19.736  0.00  0.00    +0.000 C 
BRANCH  18  19
ATOM     19  C   UNL     1       2.413   2.509  19.596  0.00  0.00    +0.000 C 
BRANCH  19  20
ATOM     20  C   UNL     1       2.788   2.381  18.130  0.00  0.00    +0.000 C 
BRANCH  20  21
ATOM     21  C   UNL     1       3.837   3.415  17.764  0.00  0.00    +0.000 C 
BRANCH  21  22
ATOM     22  C   UNL     1       4.865   3.530  18.874  0.00  0.00    +0.000 C 
BRANCH  22  23
ATOM     23  C   UNL     1       5.029   4.978  19.296  0.00  0.00    +0.000 C 
BRANCH  23  24
ATOM     24  C   UNL     1       5.200   5.863  18.075  0.00  0.00    +0.000 C 
BRANCH  24  25
ATOM     25  C   UNL     1       6.643   6.327  17.958  0.00  0.00    +0.000 C 
BRANCH  25  26
ATOM     26  C   UNL     1       7.147   6.133  16.536  0.00  0.00    +0.000 C 
BRANCH  26  27
ATOM     27  C   UNL     1       7.149   4.651  16.173  0.00  0.00    +0.000 C 
BRANCH  27  29
ATOM     28  C   UNL     1       5.380   4.291  14.442  0.00  0.00    +0.000 C 
ATOM     29  C   UNL     1       6.869   4.457  14.688  0.00  0.00    +0.000 C 
ENDBRANCH  27  29
ENDBRANCH  26  27
ENDBRANCH  25  26
ENDBRANCH  24  25
ENDBRANCH  23  24
ENDBRANCH  22  23
ENDBRANCH  21  22
ENDBRANCH  20  21
ENDBRANCH  19  20
ENDBRANCH  18  19
ENDBRANCH  17  18
ENDBRANCH  16  17
ENDBRANCH   1  16
TORSDOF 16
ENDMDL
