MODEL 1
REMARK VINA RESULT:      -8.0      0.000      0.000
REMARK  Name = 
REMARK  7 active torsions:
REMARK  status: ('A' for Active; 'I' for Inactive)
REMARK    1  A    between atoms: C_1  and  N_2
REMARK    2  A    between atoms: N_2  and  C_3
REMARK    3  A    between atoms: N_2  and  C_4
REMARK    4  A    between atoms: C_7  and  C_8
REMARK    5  A    between atoms: C_10  and  C_11
REMARK    6  A    between atoms: C_16  and  O_17
REMARK    7  A    between atoms: N_19  and  C_20
REMARK                            x       y       z     vdW  Elec       q    Type
REMARK                         _______ _______ _______ _____ _____    ______ ____
ROOT
ATOM      1  C   UNL     1       6.268   4.765  17.940  0.00  0.00    +0.000 C 
ATOM      2  C   UNL     1       5.201   4.597  19.020  0.00  0.00    +0.000 C 
ATOM      3  C   UNL     1       4.038   4.124  18.193  0.00  0.00    +0.000 C 
ATOM      4  N   UNL     1       4.244   4.121  16.911  0.00  0.00    +0.000 NA
ATOM      5  N   UNL     1       5.518   4.561  16.700  0.00  0.00    +0.000 N 
ENDROOT
BRANCH   1   9
ATOM      6  C   UNL     1       8.120   8.737  18.119  0.00  0.00    +0.000 A 
ATOM      7  C   UNL     1       7.001   8.463  17.315  0.00  0.00    +0.000 A 
ATOM      8  C   UNL     1       6.427   7.188  17.239  0.00  0.00    +0.000 A 
ATOM      9  C   UNL     1       6.929   6.130  18.002  0.00  0.00    +0.000 A 
ATOM     10  C   UNL     1       8.028   6.386  18.829  0.00  0.00    +0.000 A 
ATOM     11  C   UNL     1       8.608   7.662  18.879  0.00  0.00    +0.000 A 
BRANCH   6  13
ATOM     12  C   UNL     1       9.609  10.340  19.270  0.00  0.00    +0.000 C 
ATOM     13  N   UNL     1       8.694  10.008  18.186  0.00  0.00    +0.000 N 
ATOM     14  C   UNL     1       8.035  11.117  17.505  0.00  0.00    +0.000 C 
ENDBRANCH   6  13
ENDBRANCH   1   9
BRANCH   3  15
ATOM     15  C   UNL     1       2.735   3.731  18.790  0.00  0.00    +0.000 A 
ATOM     16  C   UNL     1       2.202   4.557  19.795  0.00  0.00    +0.000 A 
ATOM     17  C   UNL     1       1.023   4.207  20.454  0.00  0.00    +0.000 A 
ATOM     18  C   UNL     1       0.362   3.028  20.116  0.00  0.00    +0.000 A 
ATOM     19  C   UNL     1       0.867   2.212  19.106  0.00  0.00    +0.000 A 
ATOM     20  C   UNL     1       2.046   2.563  18.441  0.00  0.00    +0.000 A 
BRANCH  20  21
ATOM     21  O   UNL     1       2.509   1.736  17.458  0.00  0.00    +0.000 OA
ATOM     22  H   UNL     1       2.460   0.815  17.758  0.00  0.00    +0.000 HD
ENDBRANCH  20  21
ENDBRANCH   3  15
BRANCH   5  23
ATOM     23  C   UNL     1       6.060   4.518  15.418  0.00  0.00    +0.000 A 
ATOM     24  C   UNL     1       5.381   3.851  14.386  0.00  0.00    +0.000 A 
ATOM     25  C   UNL     1       5.869   3.826  13.076  0.00  0.00    +0.000 A 
ATOM     26  C   UNL     1       7.068   4.460  12.770  0.00  0.00    +0.000 A 
ATOM     27  C   UNL     1       7.773   5.114  13.774  0.00  0.00    +0.000 A 
ATOM     28  C   UNL     1       7.269   5.144  15.079  0.00  0.00    +0.000 A 
ENDBRANCH   5  23
TORSDOF 5
ENDMDL
MODEL 2
REMARK VINA RESULT:      -7.8      7.053     10.433
REMARK  Name = 
REMARK  7 active torsions:
REMARK  status: ('A' for Active; 'I' for Inactive)
REMARK    1  A    between atoms: C_1  and  N_2
REMARK    2  A    between atoms: N_2  and  C_3
REMARK    3  A    between atoms: N_2  and  C_4
REMARK    4  A    between atoms: C_7  and  C_8
REMARK    5  A    between atoms: C_10  and  C_11
REMARK    6  A    between atoms: C_16  and  O_17
REMARK    7  A    between atoms: N_19  and  C_20
REMARK                            x       y       z     vdW  Elec       q    Type
REMARK                         _______ _______ _______ _____ _____    ______ ____
ROOT
ATOM      1  C   UNL     1       0.381  11.516  20.040  0.00  0.00    +0.000 C 
ATOM      2  C   UNL     1       1.529  12.524  20.034  0.00  0.00    +0.000 C 
ATOM      3  C   UNL     1       1.093  13.438  18.925  0.00  0.00    +0.000 C 
ATOM      4  N   UNL     1       0.029  13.056  18.286  0.00  0.00    +0.000 NA
ATOM      5  N   UNL     1      -0.390  11.888  18.854  0.00  0.00    +0.000 N 
ENDROOT
BRANCH   1   9
ATOM      6  C   UNL     1       1.883   7.399  19.847  0.00  0.00    +0.000 A 
ATOM      7  C   UNL     1       2.019   8.302  18.779  0.00  0.00    +0.000 A 
ATOM      8  C   UNL     1       1.516   9.608  18.834  0.00  0.00    +0.000 A 
ATOM      9  C   UNL     1       0.882  10.084  19.984  0.00  0.00    +0.000 A 
ATOM     10  C   UNL     1       0.757   9.210  21.069  0.00  0.00    +0.000 A 
ATOM     11  C   UNL     1       1.244   7.897  20.994  0.00  0.00    +0.000 A 
BRANCH   6  13
ATOM     12  C   UNL     1       1.914   5.092  20.736  0.00  0.00    +0.000 C 
ATOM     13  N   UNL     1       2.378   6.096  19.786  0.00  0.00    +0.000 N 
ATOM     14  C   UNL     1       3.665   5.859  19.142  0.00  0.00    +0.000 C 
ENDBRANCH   6  13
ENDBRANCH   1   9
BRANCH   3  15
ATOM     15  C   UNL     1       1.844  14.667  18.554  0.00  0.00    +0.000 A 
ATOM     16  C   UNL     1       1.222  15.906  18.785  0.00  0.00    +0.000 A 
ATOM     17  C   UNL     1       1.834  17.095  18.389  0.00  0.00    +0.000 A 
ATOM     18  C   UNL     1       3.076  17.061  17.760  0.00  0.00    +0.000 A 
ATOM     19  C   UNL     1       3.716  15.841  17.547  0.00  0.00    +0.000 A 
ATOM     20  C   UNL     1       3.105  14.648  17.946  0.00  0.00    +0.000 A 
BRANCH  20  21
ATOM     21  O   UNL     1       3.763  13.474  17.718  0.00  0.00    +0.000 OA
ATOM     22  H   UNL     1       3.172  12.852  17.267  0.00  0.00    +0.000 HD
ENDBRANCH  20  21
ENDBRANCH   3  15
BRANCH   5  23
ATOM     23  C   UNL     1      -1.602  11.325  18.461  0.00  0.00    +0.000 A 
ATOM     24  C   UNL     1      -2.814  11.884  18.898  0.00  0.00    +0.000 A 
ATOM     25  C   UNL     1      -4.051  11.376  18.489  0.00  0.00    +0.000 A 
ATOM     26  C   UNL     1      -4.103  10.277  17.639  0.00  0.00    +0.000 A 
ATOM     27  C   UNL     1      -2.920   9.690  17.204  0.00  0.00    +0.000 A 
ATOM     28  C   UNL     1      -1.687  10.214  17.609  0.00  0.00    +0.000 A 
ENDBRANCH   5  23
TORSDOF 5
ENDMDL
MODEL 3
REMARK VINA RESULT:      -7.8      7.152     10.536
REMARK  Name = 
REMARK  7 active torsions:
REMARK  status: ('A' for Active; 'I' for Inactive)
REMARK    1  A    between atoms: C_1  and  N_2
REMARK    2  A    between atoms: N_2  and  C_3
REMARK    3  A    between atoms: N_2  and  C_4
REMARK    4  A    between atoms: C_7  and  C_8
REMARK    5  A    between atoms: C_10  and  C_11
REMARK    6  A    between atoms: C_16  and  O_17
REMARK    7  A    between atoms: N_19  and  C_20
REMARK                            x       y       z     vdW  Elec       q    Type
REMARK                         _______ _______ _______ _____ _____    ______ ____
ROOT
ATOM      1  C   UNL     1       0.438  11.476  20.028  0.00  0.00    +0.000 C 
ATOM      2  C   UNL     1       1.599  12.468  20.016  0.00  0.00    +0.000 C 
ATOM      3  C   UNL     1       1.171  13.386  18.906  0.00  0.00    +0.000 C 
ATOM      4  N   UNL     1       0.100  13.016  18.272  0.00  0.00    +0.000 NA
ATOM      5  N   UNL     1      -0.332  11.855  18.844  0.00  0.00    +0.000 N 
ENDROOT
BRANCH   1   9
ATOM      6  C   UNL     1       1.888   7.340  19.839  0.00  0.00    +0.000 A 
ATOM      7  C   UNL     1       2.067   8.250  18.784  0.00  0.00    +0.000 A 
ATOM      8  C   UNL     1       1.581   9.562  18.836  0.00  0.00    +0.000 A 
ATOM      9  C   UNL     1       0.921  10.037  19.972  0.00  0.00    +0.000 A 
ATOM     10  C   UNL     1       0.753   9.155  21.045  0.00  0.00    +0.000 A 
ATOM     11  C   UNL     1       1.224   7.837  20.973  0.00  0.00    +0.000 A 
BRANCH   6  13
ATOM     12  C   UNL     1       1.911   5.041  20.749  0.00  0.00    +0.000 C 
ATOM     13  N   UNL     1       2.367   6.030  19.781  0.00  0.00    +0.000 N 
ATOM     14  C   UNL     1       3.637   5.772  19.111  0.00  0.00    +0.000 C 
ENDBRANCH   6  13
ENDBRANCH   1   9
BRANCH   3  15
ATOM     15  C   UNL     1       1.936  14.604  18.530  0.00  0.00    +0.000 A 
ATOM     16  C   UNL     1       3.271  14.436  18.124  0.00  0.00    +0.000 A 
ATOM     17  C   UNL     1       4.071  15.542  17.833  0.00  0.00    +0.000 A 
ATOM     18  C   UNL     1       3.547  16.827  17.942  0.00  0.00    +0.000 A 
ATOM     19  C   UNL     1       2.217  17.008  18.321  0.00  0.00    +0.000 A 
ATOM     20  C   UNL     1       1.412  15.901  18.609  0.00  0.00    +0.000 A 
BRANCH  20  21
ATOM     21  O   UNL     1       0.116  16.119  18.977  0.00  0.00    +0.000 OA
ATOM     22  H   UNL     1      -0.410  16.348  18.196  0.00  0.00    +0.000 HD
ENDBRANCH  20  21
ENDBRANCH   3  15
BRANCH   5  23
ATOM     23  C   UNL     1      -1.553  11.307  18.456  0.00  0.00    +0.000 A 
ATOM     24  C   UNL     1      -2.756  11.880  18.899  0.00  0.00    +0.000 A 
ATOM     25  C   UNL     1      -4.001  11.387  18.495  0.00  0.00    +0.000 A 
ATOM     26  C   UNL     1      -4.070  10.288  17.645  0.00  0.00    +0.000 A 
ATOM     27  C   UNL     1      -2.896   9.688  17.205  0.00  0.00    +0.000 A 
ATOM     28  C   UNL     1      -1.655  10.197  17.604  0.00  0.00    +0.000 A 
ENDBRANCH   5  23
TORSDOF 5
ENDMDL
MODEL 4
REMARK VINA RESULT:      -7.8      5.842      8.322
REMARK  Name = 
REMARK  7 active torsions:
REMARK  status: ('A' for Active; 'I' for Inactive)
REMARK    1  A    between atoms: C_1  and  N_2
REMARK    2  A    between atoms: N_2  and  C_3
REMARK    3  A    between atoms: N_2  and  C_4
REMARK    4  A    between atoms: C_7  and  C_8
REMARK    5  A    between atoms: C_10  and  C_11
REMARK    6  A    between atoms: C_16  and  O_17
REMARK    7  A    between atoms: N_19  and  C_20
REMARK                            x       y       z     vdW  Elec       q    Type
REMARK                         _______ _______ _______ _____ _____    ______ ____
ROOT
ATOM      1  C   UNL     1       0.860  10.054  18.521  0.00  0.00    +0.000 C 
ATOM      2  C   UNL     1       1.751   9.229  17.593  0.00  0.00    +0.000 C 
ATOM      3  C   UNL     1       2.194   8.139  18.528  0.00  0.00    +0.000 C 
ATOM      4  N   UNL     1       1.815   8.288  19.762  0.00  0.00    +0.000 NA
ATOM      5  N   UNL     1       1.088   9.440  19.829  0.00  0.00    +0.000 N 
ENDROOT
BRANCH   1   9
ATOM      6  C   UNL     1       1.960  14.299  18.401  0.00  0.00    +0.000 A 
ATOM      7  C   UNL     1       2.902  13.271  18.227  0.00  0.00    +0.000 A 
ATOM      8  C   UNL     1       2.553  11.916  18.291  0.00  0.00    +0.000 A 
ATOM      9  C   UNL     1       1.227  11.527  18.496  0.00  0.00    +0.000 A 
ATOM     10  C   UNL     1       0.268  12.534  18.648  0.00  0.00    +0.000 A 
ATOM     11  C   UNL     1       0.633  13.887  18.605  0.00  0.00    +0.000 A 
BRANCH   6  13
ATOM     12  C   UNL     1       1.349  16.672  18.725  0.00  0.00    +0.000 C 
ATOM     13  N   UNL     1       2.313  15.648  18.345  0.00  0.00    +0.000 N 
ATOM     14  C   UNL     1       3.409  16.055  17.473  0.00  0.00    +0.000 C 
ENDBRANCH   6  13
ENDBRANCH   1   9
BRANCH   3  15
ATOM     15  C   UNL     1       3.038   6.997  18.089  0.00  0.00    +0.000 A 
ATOM     16  C   UNL     1       4.078   7.266  17.182  0.00  0.00    +0.000 A 
ATOM     17  C   UNL     1       4.859   6.230  16.666  0.00  0.00    +0.000 A 
ATOM     18  C   UNL     1       4.612   4.916  17.052  0.00  0.00    +0.000 A 
ATOM     19  C   UNL     1       3.600   4.637  17.969  0.00  0.00    +0.000 A 
ATOM     20  C   UNL     1       2.818   5.673  18.490  0.00  0.00    +0.000 A 
BRANCH  20  21
ATOM     21  O   UNL     1       1.836   5.359  19.385  0.00  0.00    +0.000 OA
ATOM     22  H   UNL     1       1.027   5.119  18.908  0.00  0.00    +0.000 HD
ENDBRANCH  20  21
ENDBRANCH   3  15
BRANCH   5  23
ATOM     23  C   UNL     1       0.430   9.774  21.010  0.00  0.00    +0.000 A 
ATOM     24  C   UNL     1      -0.561  10.769  21.010  0.00  0.00    +0.000 A 
ATOM     25  C   UNL     1      -1.276  11.100  22.164  0.00  0.00    +0.000 A 
ATOM     26  C   UNL     1      -1.001  10.447  23.361  0.00  0.00    +0.000 A 
ATOM     27  C   UNL     1      -0.014   9.470  23.398  0.00  0.00    +0.000 A 
ATOM     28  C   UNL     1       0.688   9.137  22.234  0.00  0.00    +0.000 A 
ENDBRANCH   5  23
TORSDOF 5
ENDMDL
MODEL 5
REMARK VINA RESULT:      -7.8      5.810      8.301
REMARK  Name = 
REMARK  7 active torsions:
REMARK  status: ('A' for Active; 'I' for Inactive)
REMARK    1  A    between atoms: C_1  and  N_2
REMARK    2  A    between atoms: N_2  and  C_3
REMARK    3  A    between atoms: N_2  and  C_4
REMARK    4  A    between atoms: C_7  and  C_8
REMARK    5  A    between atoms: C_10  and  C_11
REMARK    6  A    between atoms: C_16  and  O_17
REMARK    7  A    between atoms: N_19  and  C_20
REMARK                            x       y       z     vdW  Elec       q    Type
REMARK                         _______ _______ _______ _____ _____    ______ ____
ROOT
ATOM      1  C   UNL     1       0.856  10.033  18.488  0.00  0.00    +0.000 C 
ATOM      2  C   UNL     1       1.771   9.210  17.582  0.00  0.00    +0.000 C 
ATOM      3  C   UNL     1       2.193   8.120  18.527  0.00  0.00    +0.000 C 
ATOM      4  N   UNL     1       1.783   8.267  19.751  0.00  0.00    +0.000 NA
ATOM      5  N   UNL     1       1.053   9.418  19.801  0.00  0.00    +0.000 N 
ENDROOT
BRANCH   1   9
ATOM      6  C   UNL     1       1.949  14.280  18.398  0.00  0.00    +0.000 A 
ATOM      7  C   UNL     1       2.891  13.255  18.203  0.00  0.00    +0.000 A 
ATOM      8  C   UNL     1       2.544  11.899  18.258  0.00  0.00    +0.000 A 
ATOM      9  C   UNL     1       1.221  11.507  18.474  0.00  0.00    +0.000 A 
ATOM     10  C   UNL     1       0.262  12.510  18.646  0.00  0.00    +0.000 A 
ATOM     11  C   UNL     1       0.625  13.864  18.612  0.00  0.00    +0.000 A 
BRANCH   6  13
ATOM     12  C   UNL     1       3.432  16.064  17.543  0.00  0.00    +0.000 C 
ATOM     13  N   UNL     1       2.300  15.630  18.351  0.00  0.00    +0.000 N 
ATOM     14  C   UNL     1       1.884  16.505  19.442  0.00  0.00    +0.000 C 
ENDBRANCH   6  13
ENDBRANCH   1   9
BRANCH   3  15
ATOM     15  C   UNL     1       3.049   6.980  18.107  0.00  0.00    +0.000 A 
ATOM     16  C   UNL     1       4.097   7.248  17.209  0.00  0.00    +0.000 A 
ATOM     17  C   UNL     1       4.891   6.213  16.712  0.00  0.00    +0.000 A 
ATOM     18  C   UNL     1       4.649   4.900  17.107  0.00  0.00    +0.000 A 
ATOM     19  C   UNL     1       3.629   4.623  18.016  0.00  0.00    +0.000 A 
ATOM     20  C   UNL     1       2.834   5.659  18.519  0.00  0.00    +0.000 A 
BRANCH  20  21
ATOM     21  O   UNL     1       1.845   5.346  19.405  0.00  0.00    +0.000 OA
ATOM     22  H   UNL     1       1.093   5.945  19.277  0.00  0.00    +0.000 HD
ENDBRANCH  20  21
ENDBRANCH   3  15
BRANCH   5  23
ATOM     23  C   UNL     1       0.365   9.749  20.966  0.00  0.00    +0.000 A 
ATOM     24  C   UNL     1       0.673   9.104  22.175  0.00  0.00    +0.000 A 
ATOM     25  C   UNL     1       0.038   9.442  23.374  0.00  0.00    +0.000 A 
ATOM     26  C   UNL     1      -0.942  10.428  23.387  0.00  0.00    +0.000 A 
ATOM     27  C   UNL     1      -1.282  11.072  22.203  0.00  0.00    +0.000 A 
ATOM     28  C   UNL     1      -0.631  10.737  21.010  0.00  0.00    +0.000 A 
ENDBRANCH   5  23
TORSDOF 5
ENDMDL
MODEL 6
REMARK VINA RESULT:      -7.7      3.311      5.951
REMARK  Name = 
REMARK  7 active torsions:
REMARK  status: ('A' for Active; 'I' for Inactive)
REMARK    1  A    between atoms: C_1  and  N_2
REMARK    2  A    between atoms: N_2  and  C_3
REMARK    3  A    between atoms: N_2  and  C_4
REMARK    4  A    between atoms: C_7  and  C_8
REMARK    5  A    between atoms: C_10  and  C_11
REMARK    6  A    between atoms: C_16  and  O_17
REMARK    7  A    between atoms: N_19  and  C_20
REMARK                            x       y       z     vdW  Elec       q    Type
REMARK                         _______ _______ _______ _____ _____    ______ ____
ROOT
ATOM      1  C   UNL     1       4.727   5.919  18.054  0.00  0.00    +0.000 C 
ATOM      2  C   UNL     1       4.170   7.341  18.008  0.00  0.00    +0.000 C 
ATOM      3  C   UNL     1       2.824   7.135  18.644  0.00  0.00    +0.000 C 
ATOM      4  N   UNL     1       2.525   5.898  18.903  0.00  0.00    +0.000 NA
ATOM      5  N   UNL     1       3.581   5.130  18.507  0.00  0.00    +0.000 N 
ENDROOT
BRANCH   1   9
ATOM      6  C   UNL     1       6.203   4.558  14.154  0.00  0.00    +0.000 A 
ATOM      7  C   UNL     1       6.311   3.775  15.316  0.00  0.00    +0.000 A 
ATOM      8  C   UNL     1       5.863   4.223  16.565  0.00  0.00    +0.000 A 
ATOM      9  C   UNL     1       5.246   5.469  16.700  0.00  0.00    +0.000 A 
ATOM     10  C   UNL     1       5.105   6.255  15.552  0.00  0.00    +0.000 A 
ATOM     11  C   UNL     1       5.578   5.806  14.311  0.00  0.00    +0.000 A 
BRANCH   6  13
ATOM     12  C   UNL     1       7.592   4.924  12.142  0.00  0.00    +0.000 C 
ATOM     13  N   UNL     1       6.658   4.112  12.912  0.00  0.00    +0.000 N 
ATOM     14  C   UNL     1       5.864   3.133  12.179  0.00  0.00    +0.000 C 
ENDBRANCH   6  13
ENDBRANCH   1   9
BRANCH   3  15
ATOM     15  C   UNL     1       1.885   8.253  18.918  0.00  0.00    +0.000 A 
ATOM     16  C   UNL     1       1.513   9.072  17.837  0.00  0.00    +0.000 A 
ATOM     17  C   UNL     1       0.698  10.187  18.036  0.00  0.00    +0.000 A 
ATOM     18  C   UNL     1       0.243  10.496  19.315  0.00  0.00    +0.000 A 
ATOM     19  C   UNL     1       0.584   9.680  20.392  0.00  0.00    +0.000 A 
ATOM     20  C   UNL     1       1.398   8.559  20.195  0.00  0.00    +0.000 A 
BRANCH  20  21
ATOM     21  O   UNL     1       1.711   7.786  21.275  0.00  0.00    +0.000 OA
ATOM     22  H   UNL     1       2.533   7.302  21.102  0.00  0.00    +0.000 HD
ENDBRANCH  20  21
ENDBRANCH   3  15
BRANCH   5  23
ATOM     23  C   UNL     1       3.596   3.769  18.802  0.00  0.00    +0.000 A 
ATOM     24  C   UNL     1       2.778   2.882  18.084  0.00  0.00    +0.000 A 
ATOM     25  C   UNL     1       2.798   1.504  18.318  0.00  0.00    +0.000 A 
ATOM     26  C   UNL     1       3.632   0.980  19.299  0.00  0.00    +0.000 A 
ATOM     27  C   UNL     1       4.440   1.834  20.040  0.00  0.00    +0.000 A 
ATOM     28  C   UNL     1       4.423   3.210  19.788  0.00  0.00    +0.000 A 
ENDBRANCH   5  23
TORSDOF 5
ENDMDL
MODEL 7
REMARK VINA RESULT:      -7.7      7.614      9.072
REMARK  Name = 
REMARK  7 active torsions:
REMARK  status: ('A' for Active; 'I' for Inactive)
REMARK    1  A    between atoms: C_1  and  N_2
REMARK    2  A    between atoms: N_2  and  C_3
REMARK    3  A    between atoms: N_2  and  C_4
REMARK    4  A    between atoms: C_7  and  C_8
REMARK    5  A    between atoms: C_10  and  C_11
REMARK    6  A    between atoms: C_16  and  O_17
REMARK    7  A    between atoms: N_19  and  C_20
REMARK                            x       y       z     vdW  Elec       q    Type
REMARK                         _______ _______ _______ _____ _____    ______ ____
ROOT
ATOM      1  C   UNL     1      -0.012  11.861  20.122  0.00  0.00    +0.000 C 
ATOM      2  C   UNL     1      -1.321  12.613  19.889  0.00  0.00    +0.000 C 
ATOM      3  C   UNL     1      -2.065  11.624  19.037  0.00  0.00    +0.000 C 
ATOM      4  N   UNL     1      -1.380  10.576  18.690  0.00  0.00    +0.000 NA
ATOM      5  N   UNL     1      -0.137  10.700  19.240  0.00  0.00    +0.000 N 
ENDROOT
BRANCH   1   9
ATOM      6  C   UNL     1       3.453  14.359  19.126  0.00  0.00    +0.000 A 
ATOM      7  C   UNL     1       2.585  13.849  18.146  0.00  0.00    +0.000 A 
ATOM      8  C   UNL     1       1.494  13.030  18.464  0.00  0.00    +0.000 A 
ATOM      9  C   UNL     1       1.200  12.715  19.792  0.00  0.00    +0.000 A 
ATOM     10  C   UNL     1       2.036  13.231  20.787  0.00  0.00    +0.000 A 
ATOM     11  C   UNL     1       3.139  14.031  20.455  0.00  0.00    +0.000 A 
BRANCH   6  13
ATOM     12  C   UNL     1       4.470  16.609  19.004  0.00  0.00    +0.000 C 
ATOM     13  N   UNL     1       4.545  15.167  18.805  0.00  0.00    +0.000 N 
ATOM     14  C   UNL     1       5.529  14.676  17.846  0.00  0.00    +0.000 C 
ENDBRANCH   6  13
ENDBRANCH   1   9
BRANCH   3  15
ATOM     15  C   UNL     1      -3.465  11.842  18.588  0.00  0.00    +0.000 A 
ATOM     16  C   UNL     1      -4.413  12.204  19.560  0.00  0.00    +0.000 A 
ATOM     17  C   UNL     1      -5.760  12.348  19.224  0.00  0.00    +0.000 A 
ATOM     18  C   UNL     1      -6.174  12.134  17.912  0.00  0.00    +0.000 A 
ATOM     19  C   UNL     1      -5.241  11.798  16.932  0.00  0.00    +0.000 A 
ATOM     20  C   UNL     1      -3.891  11.657  17.266  0.00  0.00    +0.000 A 
BRANCH  20  21
ATOM     21  O   UNL     1      -3.008  11.326  16.279  0.00  0.00    +0.000 OA
ATOM     22  H   UNL     1      -2.811  10.378  16.324  0.00  0.00    +0.000 HD
ENDBRANCH  20  21
ENDBRANCH   3  15
BRANCH   5  23
ATOM     23  C   UNL     1       0.766   9.644  19.152  0.00  0.00    +0.000 A 
ATOM     24  C   UNL     1       1.031   8.847  20.277  0.00  0.00    +0.000 A 
ATOM     25  C   UNL     1       1.895   7.749  20.218  0.00  0.00    +0.000 A 
ATOM     26  C   UNL     1       2.533   7.432  19.023  0.00  0.00    +0.000 A 
ATOM     27  C   UNL     1       2.304   8.213  17.896  0.00  0.00    +0.000 A 
ATOM     28  C   UNL     1       1.427   9.301  17.963  0.00  0.00    +0.000 A 
ENDBRANCH   5  23
TORSDOF 5
ENDMDL
MODEL 8
REMARK VINA RESULT:      -7.7      7.616      9.107
REMARK  Name = 
REMARK  7 active torsions:
REMARK  status: ('A' for Active; 'I' for Inactive)
REMARK    1  A    between atoms: C_1  and  N_2
REMARK    2  A    between atoms: N_2  and  C_3
REMARK    3  A    between atoms: N_2  and  C_4
REMARK    4  A    between atoms: C_7  and  C_8
REMARK    5  A    between atoms: C_10  and  C_11
REMARK    6  A    between atoms: C_16  and  O_17
REMARK    7  A    between atoms: N_19  and  C_20
REMARK                            x       y       z     vdW  Elec       q    Type
REMARK                         _______ _______ _______ _____ _____    ______ ____
ROOT
ATOM      1  C   UNL     1      -0.054  11.877  20.116  0.00  0.00    +0.000 C 
ATOM      2  C   UNL     1      -1.365  12.624  19.882  0.00  0.00    +0.000 C 
ATOM      3  C   UNL     1      -2.102  11.635  19.025  0.00  0.00    +0.000 C 
ATOM      4  N   UNL     1      -1.412  10.591  18.676  0.00  0.00    +0.000 NA
ATOM      5  N   UNL     1      -0.171  10.719  19.230  0.00  0.00    +0.000 N 
ENDROOT
BRANCH   1   9
ATOM      6  C   UNL     1       3.473  14.329  19.227  0.00  0.00    +0.000 A 
ATOM      7  C   UNL     1       3.118  13.966  20.537  0.00  0.00    +0.000 A 
ATOM      8  C   UNL     1       1.977  13.205  20.821  0.00  0.00    +0.000 A 
ATOM      9  C   UNL     1       1.156  12.737  19.793  0.00  0.00    +0.000 A 
ATOM     10  C   UNL     1       1.503  13.065  18.478  0.00  0.00    +0.000 A 
ATOM     11  C   UNL     1       2.635  13.848  18.208  0.00  0.00    +0.000 A 
BRANCH   6  13
ATOM     12  C   UNL     1       5.458  14.755  17.816  0.00  0.00    +0.000 C 
ATOM     13  N   UNL     1       4.606  15.095  18.948  0.00  0.00    +0.000 N 
ATOM     14  C   UNL     1       5.203  15.887  20.018  0.00  0.00    +0.000 C 
ENDBRANCH   6  13
ENDBRANCH   1   9
BRANCH   3  15
ATOM     15  C   UNL     1      -3.502  11.849  18.573  0.00  0.00    +0.000 A 
ATOM     16  C   UNL     1      -4.453  12.207  19.544  0.00  0.00    +0.000 A 
ATOM     17  C   UNL     1      -5.800  12.347  19.205  0.00  0.00    +0.000 A 
ATOM     18  C   UNL     1      -6.211  12.132  17.892  0.00  0.00    +0.000 A 
ATOM     19  C   UNL     1      -5.275  11.800  16.914  0.00  0.00    +0.000 A 
ATOM     20  C   UNL     1      -3.925  11.663  17.251  0.00  0.00    +0.000 A 
BRANCH  20  21
ATOM     21  O   UNL     1      -3.039  11.335  16.265  0.00  0.00    +0.000 OA
ATOM     22  H   UNL     1      -3.064  12.009  15.568  0.00  0.00    +0.000 HD
ENDBRANCH  20  21
ENDBRANCH   3  15
BRANCH   5  23
ATOM     23  C   UNL     1       0.736   9.666  19.140  0.00  0.00    +0.000 A 
ATOM     24  C   UNL     1       1.010   8.873  20.266  0.00  0.00    +0.000 A 
ATOM     25  C   UNL     1       1.879   7.779  20.205  0.00  0.00    +0.000 A 
ATOM     26  C   UNL     1       2.513   7.463  19.009  0.00  0.00    +0.000 A 
ATOM     27  C   UNL     1       2.277   8.240  17.881  0.00  0.00    +0.000 A 
ATOM     28  C   UNL     1       1.395   9.325  17.949  0.00  0.00    +0.000 A 
ENDBRANCH   5  23
TORSDOF 5
ENDMDL
MODEL 9
REMARK VINA RESULT:      -7.6      7.066     10.477
REMARK  Name = 
REMARK  7 active torsions:
REMARK  status: ('A' for Active; 'I' for Inactive)
REMARK    1  A    between atoms: C_1  and  N_2
REMARK    2  A    between atoms: N_2  and  C_3
REMARK    3  A    between atoms: N_2  and  C_4
REMARK    4  A    between atoms: C_7  and  C_8
REMARK    5  A    between atoms: C_10  and  C_11
REMARK    6  A    between atoms: C_16  and  O_17
REMARK    7  A    between atoms: N_19  and  C_20
REMARK                            x       y       z     vdW  Elec       q    Type
REMARK                         _______ _______ _______ _____ _____    ______ ____
ROOT
ATOM      1  C   UNL     1       0.572  11.388  19.920  0.00  0.00    +0.000 C 
ATOM      2  C   UNL     1       1.716  12.400  19.955  0.00  0.00    +0.000 C 
ATOM      3  C   UNL     1       1.282  13.350  18.875  0.00  0.00    +0.000 C 
ATOM      4  N   UNL     1       0.223  12.985  18.217  0.00  0.00    +0.000 NA
ATOM      5  N   UNL     1      -0.194  11.797  18.743  0.00  0.00    +0.000 N 
ENDROOT
BRANCH   1   9
ATOM      6  C   UNL     1       1.986   7.244  19.657  0.00  0.00    +0.000 A 
ATOM      7  C   UNL     1       1.378   7.761  20.813  0.00  0.00    +0.000 A 
ATOM      8  C   UNL     1       0.950   9.091  20.904  0.00  0.00    +0.000 A 
ATOM      9  C   UNL     1       1.080   9.961  19.818  0.00  0.00    +0.000 A 
ATOM     10  C   UNL     1       1.661   9.461  18.648  0.00  0.00    +0.000 A 
ATOM     11  C   UNL     1       2.106   8.133  18.576  0.00  0.00    +0.000 A 
BRANCH   6  13
ATOM     12  C   UNL     1       2.980   5.411  18.327  0.00  0.00    +0.000 C 
ATOM     13  N   UNL     1       2.419   5.920  19.572  0.00  0.00    +0.000 N 
ATOM     14  C   UNL     1       1.880   4.941  20.510  0.00  0.00    +0.000 C 
ENDBRANCH   6  13
ENDBRANCH   1   9
BRANCH   3  15
ATOM     15  C   UNL     1       2.029  14.593  18.550  0.00  0.00    +0.000 A 
ATOM     16  C   UNL     1       3.398  14.472  18.251  0.00  0.00    +0.000 A 
ATOM     17  C   UNL     1       4.178  15.605  18.015  0.00  0.00    +0.000 A 
ATOM     18  C   UNL     1       3.600  16.871  18.072  0.00  0.00    +0.000 A 
ATOM     19  C   UNL     1       2.240  17.004  18.344  0.00  0.00    +0.000 A 
ATOM     20  C   UNL     1       1.455  15.870  18.577  0.00  0.00    +0.000 A 
BRANCH  20  21
ATOM     21  O   UNL     1       0.127  16.042  18.841  0.00  0.00    +0.000 OA
ATOM     22  H   UNL     1      -0.327  15.187  18.797  0.00  0.00    +0.000 HD
ENDBRANCH  20  21
ENDBRANCH   3  15
BRANCH   5  23
ATOM     23  C   UNL     1      -1.401  11.242  18.324  0.00  0.00    +0.000 A 
ATOM     24  C   UNL     1      -2.619  11.796  18.753  0.00  0.00    +0.000 A 
ATOM     25  C   UNL     1      -3.850  11.298  18.318  0.00  0.00    +0.000 A 
ATOM     26  C   UNL     1      -3.892  10.212  17.450  0.00  0.00    +0.000 A 
ATOM     27  C   UNL     1      -2.704   9.631  17.022  0.00  0.00    +0.000 A 
ATOM     28  C   UNL     1      -1.476  10.145  17.453  0.00  0.00    +0.000 A 
ENDBRANCH   5  23
TORSDOF 5
ENDMDL
