MODEL 1
REMARK VINA RESULT:      -7.4      0.000      0.000
REMARK  Name = 
REMARK  9 active torsions:
REMARK  status: ('A' for Active; 'I' for Inactive)
REMARK    1  A    between atoms: C_1  and  O_2
REMARK    2  A    between atoms: O_2  and  C_3
REMARK    3  A    between atoms: C_6  and  C_7
REMARK    4  A    between atoms: C_7  and  O_8
REMARK    5  A    between atoms: C_7  and  C_16
REMARK    6  A    between atoms: O_8  and  C_9
REMARK    7  A    between atoms: C_9  and  C_11
REMARK    8  A    between atoms: C_16  and  C_17
REMARK    9  A    between atoms: C_16  and  N_18
REMARK                            x       y       z     vdW  Elec       q    Type
REMARK                         _______ _______ _______ _____ _____    ______ ____
ROOT
ATOM      1  C   UNL     1       3.511   5.739  18.607  0.00  0.00    +0.000 C 
ENDROOT
BRANCH   1   5
ATOM      2  C   UNL     1       1.288   9.447  19.080  0.00  0.00    +0.000 A 
ATOM      3  C   UNL     1       1.388   8.532  20.129  0.00  0.00    +0.000 A 
ATOM      4  C   UNL     1       2.124   7.354  19.980  0.00  0.00    +0.000 A 
ATOM      5  C   UNL     1       2.759   7.060  18.766  0.00  0.00    +0.000 A 
ATOM      6  C   UNL     1       2.639   7.974  17.710  0.00  0.00    +0.000 A 
ATOM      7  C   UNL     1       1.912   9.162  17.866  0.00  0.00    +0.000 A 
BRANCH   2   9
ATOM      8  C   UNL     1      -0.607  10.731  18.477  0.00  0.00    +0.000 C 
ATOM      9  O   UNL     1       0.511  10.542  19.337  0.00  0.00    +0.000 OA
ENDBRANCH   2   9
ENDBRANCH   1   5
BRANCH   1  10
ATOM     10  C   UNL     1       5.001   5.950  18.239  0.00  0.00    +0.000 C 
ATOM     11  C   UNL     1       5.963   5.361  19.281  0.00  0.00    +0.000 C 
BRANCH  10  12
ATOM     12  N   UNL     1       5.313   5.387  16.921  0.00  0.00    +0.000 N 
ATOM     13  C   UNL     1       5.303   6.057  15.728  0.00  0.00    +0.000 A 
ATOM     14  C   UNL     1       5.808   5.186  14.793  0.00  0.00    +0.000 A 
ATOM     15  C   UNL     1       6.082   4.011  15.515  0.00  0.00    +0.000 A 
ATOM     16  N   UNL     1       5.774   4.126  16.808  0.00  0.00    +0.000 NA
ENDBRANCH  10  12
ENDBRANCH   1  10
BRANCH   1  17
ATOM     17  O   UNL     1       2.858   5.008  17.545  0.00  0.00    +0.000 OA
BRANCH  17  18
ATOM     18  C   UNL     1       1.818   4.213  17.935  0.00  0.00    +0.000 C 
ATOM     19  O   UNL     1       0.790   4.040  17.287  0.00  0.00    +0.000 OA
BRANCH  18  20
ATOM     20  C   UNL     1       2.056   3.565  19.227  0.00  0.00    +0.000 A 
ATOM     21  C   UNL     1       1.151   3.620  20.276  0.00  0.00    +0.000 A 
ATOM     22  S   UNL     1       1.764   2.791  21.644  0.00  0.00    +0.000 S 
ATOM     23  C   UNL     1       3.176   2.409  20.753  0.00  0.00    +0.000 A 
ATOM     24  N   UNL     1       3.218   2.843  19.513  0.00  0.00    +0.000 NA
ENDBRANCH  18  20
ENDBRANCH  17  18
ENDBRANCH   1  17
TORSDOF 7
ENDMDL
MODEL 2
REMARK VINA RESULT:      -7.3      0.464      1.086
REMARK  Name = 
REMARK  9 active torsions:
REMARK  status: ('A' for Active; 'I' for Inactive)
REMARK    1  A    between atoms: C_1  and  O_2
REMARK    2  A    between atoms: O_2  and  C_3
REMARK    3  A    between atoms: C_6  and  C_7
REMARK    4  A    between atoms: C_7  and  O_8
REMARK    5  A    between atoms: C_7  and  C_16
REMARK    6  A    between atoms: O_8  and  C_9
REMARK    7  A    between atoms: C_9  and  C_11
REMARK    8  A    between atoms: C_16  and  C_17
REMARK    9  A    between atoms: C_16  and  N_18
REMARK                            x       y       z     vdW  Elec       q    Type
REMARK                         _______ _______ _______ _____ _____    ______ ____
ROOT
ATOM      1  C   UNL     1       3.554   5.706  18.581  0.00  0.00    +0.000 C 
ENDROOT
BRANCH   1   5
ATOM      2  C   UNL     1       1.392   9.455  19.014  0.00  0.00    +0.000 A 
ATOM      3  C   UNL     1       2.051   9.141  17.824  0.00  0.00    +0.000 A 
ATOM      4  C   UNL     1       2.723   7.925  17.682  0.00  0.00    +0.000 A 
ATOM      5  C   UNL     1       2.765   7.006  18.739  0.00  0.00    +0.000 A 
ATOM      6  C   UNL     1       2.117   7.336  19.938  0.00  0.00    +0.000 A 
ATOM      7  C   UNL     1       1.431   8.551  20.073  0.00  0.00    +0.000 A 
BRANCH   2   9
ATOM      8  C   UNL     1       0.483  11.199  20.331  0.00  0.00    +0.000 C 
ATOM      9  O   UNL     1       0.803  10.689  19.042  0.00  0.00    +0.000 OA
ENDBRANCH   2   9
ENDBRANCH   1   5
BRANCH   1  10
ATOM     10  C   UNL     1       5.033   5.958  18.197  0.00  0.00    +0.000 C 
ATOM     11  C   UNL     1       6.022   5.427  19.245  0.00  0.00    +0.000 C 
BRANCH  10  12
ATOM     12  N   UNL     1       5.355   5.374  16.890  0.00  0.00    +0.000 N 
ATOM     13  C   UNL     1       5.334   6.021  15.684  0.00  0.00    +0.000 A 
ATOM     14  C   UNL     1       5.853   5.140  14.766  0.00  0.00    +0.000 A 
ATOM     15  C   UNL     1       6.147   3.984  15.511  0.00  0.00    +0.000 A 
ATOM     16  N   UNL     1       5.838   4.119  16.802  0.00  0.00    +0.000 NA
ENDBRANCH  10  12
ENDBRANCH   1  10
BRANCH   1  17
ATOM     17  O   UNL     1       2.913   4.949  17.531  0.00  0.00    +0.000 OA
BRANCH  17  18
ATOM     18  C   UNL     1       1.840   4.197  17.923  0.00  0.00    +0.000 C 
ATOM     19  O   UNL     1       0.813   4.054  17.268  0.00  0.00    +0.000 OA
BRANCH  18  20
ATOM     20  C   UNL     1       2.044   3.558  19.225  0.00  0.00    +0.000 A 
ATOM     21  C   UNL     1       1.100   3.597  20.239  0.00  0.00    +0.000 A 
ATOM     22  S   UNL     1       1.679   2.785  21.632  0.00  0.00    +0.000 S 
ATOM     23  C   UNL     1       3.132   2.432  20.796  0.00  0.00    +0.000 A 
ATOM     24  N   UNL     1       3.211   2.864  19.557  0.00  0.00    +0.000 NA
ENDBRANCH  18  20
ENDBRANCH  17  18
ENDBRANCH   1  17
TORSDOF 7
ENDMDL
MODEL 3
REMARK VINA RESULT:      -7.2      0.863      1.052
REMARK  Name = 
REMARK  9 active torsions:
REMARK  status: ('A' for Active; 'I' for Inactive)
REMARK    1  A    between atoms: C_1  and  O_2
REMARK    2  A    between atoms: O_2  and  C_3
REMARK    3  A    between atoms: C_6  and  C_7
REMARK    4  A    between atoms: C_7  and  O_8
REMARK    5  A    between atoms: C_7  and  C_16
REMARK    6  A    between atoms: O_8  and  C_9
REMARK    7  A    between atoms: C_9  and  C_11
REMARK    8  A    between atoms: C_16  and  C_17
REMARK    9  A    between atoms: C_16  and  N_18
REMARK                            x       y       z     vdW  Elec       q    Type
REMARK                         _______ _______ _______ _____ _____    ______ ____
ROOT
ATOM      1  C   UNL     1       3.499   5.653  18.519  0.00  0.00    +0.000 C 
ENDROOT
BRANCH   1   5
ATOM      2  C   UNL     1       1.343   9.373  19.169  0.00  0.00    +0.000 A 
ATOM      3  C   UNL     1       1.424   8.407  20.173  0.00  0.00    +0.000 A 
ATOM      4  C   UNL     1       2.138   7.225  19.968  0.00  0.00    +0.000 A 
ATOM      5  C   UNL     1       2.771   6.978  18.742  0.00  0.00    +0.000 A 
ATOM      6  C   UNL     1       2.669   7.945  17.731  0.00  0.00    +0.000 A 
ATOM      7  C   UNL     1       1.964   9.137  17.944  0.00  0.00    +0.000 A 
BRANCH   2   9
ATOM      8  C   UNL     1      -0.256  10.344  20.620  0.00  0.00    +0.000 C 
ATOM      9  O   UNL     1       0.585  10.469  19.479  0.00  0.00    +0.000 OA
ENDBRANCH   2   9
ENDBRANCH   1   5
BRANCH   1  10
ATOM     10  C   UNL     1       4.991   5.855  18.154  0.00  0.00    +0.000 C 
ATOM     11  C   UNL     1       5.949   5.270  19.202  0.00  0.00    +0.000 C 
BRANCH  10  12
ATOM     12  N   UNL     1       5.305   5.281  16.841  0.00  0.00    +0.000 N 
ATOM     13  C   UNL     1       5.285   5.939  15.641  0.00  0.00    +0.000 A 
ATOM     14  C   UNL     1       5.795   5.063  14.714  0.00  0.00    +0.000 A 
ATOM     15  C   UNL     1       6.081   3.897  15.446  0.00  0.00    +0.000 A 
ATOM     16  N   UNL     1       5.776   4.023  16.740  0.00  0.00    +0.000 NA
ENDBRANCH  10  12
ENDBRANCH   1  10
BRANCH   1  17
ATOM     17  O   UNL     1       2.830   4.982  17.429  0.00  0.00    +0.000 OA
BRANCH  17  18
ATOM     18  C   UNL     1       2.466   3.688  17.673  0.00  0.00    +0.000 C 
ATOM     19  O   UNL     1       2.349   2.822  16.812  0.00  0.00    +0.000 OA
BRANCH  18  20
ATOM     20  C   UNL     1       2.233   3.425  19.095  0.00  0.00    +0.000 A 
ATOM     21  C   UNL     1       3.174   2.822  19.914  0.00  0.00    +0.000 A 
ATOM     22  S   UNL     1       2.559   2.633  21.502  0.00  0.00    +0.000 S 
ATOM     23  C   UNL     1       1.097   3.370  20.999  0.00  0.00    +0.000 A 
ATOM     24  N   UNL     1       1.039   3.754  19.743  0.00  0.00    +0.000 NA
ENDBRANCH  18  20
ENDBRANCH  17  18
ENDBRANCH   1  17
TORSDOF 7
ENDMDL
MODEL 4
REMARK VINA RESULT:      -7.1      1.084      1.500
REMARK  Name = 
REMARK  9 active torsions:
REMARK  status: ('A' for Active; 'I' for Inactive)
REMARK    1  A    between atoms: C_1  and  O_2
REMARK    2  A    between atoms: O_2  and  C_3
REMARK    3  A    between atoms: C_6  and  C_7
REMARK    4  A    between atoms: C_7  and  O_8
REMARK    5  A    between atoms: C_7  and  C_16
REMARK    6  A    between atoms: O_8  and  C_9
REMARK    7  A    between atoms: C_9  and  C_11
REMARK    8  A    between atoms: C_16  and  C_17
REMARK    9  A    between atoms: C_16  and  N_18
REMARK                            x       y       z     vdW  Elec       q    Type
REMARK                         _______ _______ _______ _____ _____    ______ ____
ROOT
ATOM      1  C   UNL     1       4.265   5.604  18.500  0.00  0.00    +0.000 C 
ENDROOT
BRANCH   1   5
ATOM      2  C   UNL     1       1.489   8.910  19.026  0.00  0.00    +0.000 A 
ATOM      3  C   UNL     1       1.668   7.957  20.030  0.00  0.00    +0.000 A 
ATOM      4  C   UNL     1       2.578   6.912  19.866  0.00  0.00    +0.000 A 
ATOM      5  C   UNL     1       3.315   6.788  18.681  0.00  0.00    +0.000 A 
ATOM      6  C   UNL     1       3.117   7.737  17.668  0.00  0.00    +0.000 A 
ATOM      7  C   UNL     1       2.214   8.795  17.840  0.00  0.00    +0.000 A 
BRANCH   2   9
ATOM      8  C   UNL     1      -0.368  10.148  18.235  0.00  0.00    +0.000 C 
ATOM      9  O   UNL     1       0.543   9.862  19.291  0.00  0.00    +0.000 OA
ENDBRANCH   2   9
ENDBRANCH   1   5
BRANCH   1  10
ATOM     10  C   UNL     1       5.665   6.042  18.002  0.00  0.00    +0.000 C 
ATOM     11  C   UNL     1       6.793   5.650  18.967  0.00  0.00    +0.000 C 
BRANCH  10  12
ATOM     12  N   UNL     1       5.956   5.496  16.671  0.00  0.00    +0.000 N 
ATOM     13  C   UNL     1       6.679   4.367  16.397  0.00  0.00    +0.000 A 
ATOM     14  C   UNL     1       6.562   4.153  15.045  0.00  0.00    +0.000 A 
ATOM     15  C   UNL     1       5.760   5.214  14.587  0.00  0.00    +0.000 A 
ATOM     16  N   UNL     1       5.397   6.038  15.572  0.00  0.00    +0.000 NA
ENDBRANCH  10  12
ENDBRANCH   1  10
BRANCH   1  17
ATOM     17  O   UNL     1       3.664   4.728  17.520  0.00  0.00    +0.000 OA
BRANCH  17  18
ATOM     18  C   UNL     1       3.489   3.434  17.921  0.00  0.00    +0.000 C 
ATOM     19  O   UNL     1       4.013   2.461  17.387  0.00  0.00    +0.000 OA
BRANCH  18  20
ATOM     20  C   UNL     1       2.603   3.317  19.081  0.00  0.00    +0.000 A 
ATOM     21  C   UNL     1       3.010   2.767  20.287  0.00  0.00    +0.000 A 
ATOM     22  S   UNL     1       1.715   2.751  21.409  0.00  0.00    +0.000 S 
ATOM     23  C   UNL     1       0.711   3.480  20.227  0.00  0.00    +0.000 A 
ATOM     24  N   UNL     1       1.272   3.743  19.068  0.00  0.00    +0.000 NA
ENDBRANCH  18  20
ENDBRANCH  17  18
ENDBRANCH   1  17
TORSDOF 7
ENDMDL
MODEL 5
REMARK VINA RESULT:      -7.0      1.129      1.734
REMARK  Name = 
REMARK  9 active torsions:
REMARK  status: ('A' for Active; 'I' for Inactive)
REMARK    1  A    between atoms: C_1  and  O_2
REMARK    2  A    between atoms: O_2  and  C_3
REMARK    3  A    between atoms: C_6  and  C_7
REMARK    4  A    between atoms: C_7  and  O_8
REMARK    5  A    between atoms: C_7  and  C_16
REMARK    6  A    between atoms: O_8  and  C_9
REMARK    7  A    between atoms: C_9  and  C_11
REMARK    8  A    between atoms: C_16  and  C_17
REMARK    9  A    between atoms: C_16  and  N_18
REMARK                            x       y       z     vdW  Elec       q    Type
REMARK                         _______ _______ _______ _____ _____    ______ ____
ROOT
ATOM      1  C   UNL     1       3.991   5.919  17.950  0.00  0.00    +0.000 C 
ENDROOT
BRANCH   1   5
ATOM      2  C   UNL     1       1.309   9.009  19.424  0.00  0.00    +0.000 A 
ATOM      3  C   UNL     1       1.822   9.063  18.127  0.00  0.00    +0.000 A 
ATOM      4  C   UNL     1       2.663   8.056  17.650  0.00  0.00    +0.000 A 
ATOM      5  C   UNL     1       3.024   6.981  18.473  0.00  0.00    +0.000 A 
ATOM      6  C   UNL     1       2.521   6.942  19.782  0.00  0.00    +0.000 A 
ATOM      7  C   UNL     1       1.665   7.946  20.253  0.00  0.00    +0.000 A 
BRANCH   2   9
ATOM      8  C   UNL     1       0.400  11.108  18.817  0.00  0.00    +0.000 C 
ATOM      9  O   UNL     1       0.528  10.072  19.784  0.00  0.00    +0.000 OA
ENDBRANCH   2   9
ENDBRANCH   1   5
BRANCH   1  10
ATOM     10  C   UNL     1       4.981   6.487  16.903  0.00  0.00    +0.000 C 
ATOM     11  C   UNL     1       6.111   7.313  17.534  0.00  0.00    +0.000 C 
BRANCH  10  12
ATOM     12  N   UNL     1       5.563   5.421  16.080  0.00  0.00    +0.000 N 
ATOM     13  C   UNL     1       5.252   5.137  14.779  0.00  0.00    +0.000 A 
ATOM     14  C   UNL     1       6.144   4.175  14.370  0.00  0.00    +0.000 A 
ATOM     15  C   UNL     1       6.946   3.933  15.500  0.00  0.00    +0.000 A 
ATOM     16  N   UNL     1       6.590   4.683  16.545  0.00  0.00    +0.000 NA
ENDBRANCH  10  12
ENDBRANCH   1  10
BRANCH   1  17
ATOM     17  O   UNL     1       3.190   4.886  17.335  0.00  0.00    +0.000 OA
BRANCH  17  18
ATOM     18  C   UNL     1       3.342   3.634  17.865  0.00  0.00    +0.000 C 
ATOM     19  O   UNL     1       4.036   2.749  17.374  0.00  0.00    +0.000 OA
BRANCH  18  20
ATOM     20  C   UNL     1       2.587   3.451  19.106  0.00  0.00    +0.000 A 
ATOM     21  C   UNL     1       3.176   3.047  20.294  0.00  0.00    +0.000 A 
ATOM     22  S   UNL     1       2.000   2.896  21.529  0.00  0.00    +0.000 S 
ATOM     23  C   UNL     1       0.796   3.383  20.412  0.00  0.00    +0.000 A 
ATOM     24  N   UNL     1       1.208   3.659  19.195  0.00  0.00    +0.000 NA
ENDBRANCH  18  20
ENDBRANCH  17  18
ENDBRANCH   1  17
TORSDOF 7
ENDMDL
MODEL 6
REMARK VINA RESULT:      -7.0      2.656      5.680
REMARK  Name = 
REMARK  9 active torsions:
REMARK  status: ('A' for Active; 'I' for Inactive)
REMARK    1  A    between atoms: C_1  and  O_2
REMARK    2  A    between atoms: O_2  and  C_3
REMARK    3  A    between atoms: C_6  and  C_7
REMARK    4  A    between atoms: C_7  and  O_8
REMARK    5  A    between atoms: C_7  and  C_16
REMARK    6  A    between atoms: O_8  and  C_9
REMARK    7  A    between atoms: C_9  and  C_11
REMARK    8  A    between atoms: C_16  and  C_17
REMARK    9  A    between atoms: C_16  and  N_18
REMARK                            x       y       z     vdW  Elec       q    Type
REMARK                         _______ _______ _______ _____ _____    ______ ____
ROOT
ATOM      1  C   UNL     1       3.433   5.933  19.425  0.00  0.00    +0.000 C 
ENDROOT
BRANCH   1   5
ATOM      2  C   UNL     1       6.645   5.060  16.626  0.00  0.00    +0.000 A 
ATOM      3  C   UNL     1       5.334   5.235  16.181  0.00  0.00    +0.000 A 
ATOM      4  C   UNL     1       4.310   5.540  17.081  0.00  0.00    +0.000 A 
ATOM      5  C   UNL     1       4.578   5.655  18.451  0.00  0.00    +0.000 A 
ATOM      6  C   UNL     1       5.894   5.459  18.894  0.00  0.00    +0.000 A 
ATOM      7  C   UNL     1       6.922   5.168  17.988  0.00  0.00    +0.000 A 
BRANCH   2   9
ATOM      8  C   UNL     1       7.058   4.736  14.318  0.00  0.00    +0.000 C 
ATOM      9  O   UNL     1       7.548   4.729  15.654  0.00  0.00    +0.000 OA
ENDBRANCH   2   9
ENDBRANCH   1   5
BRANCH   1  10
ATOM     10  C   UNL     1       2.916   4.643  20.110  0.00  0.00    +0.000 C 
ATOM     11  C   UNL     1       1.472   4.771  20.614  0.00  0.00    +0.000 C 
BRANCH  10  12
ATOM     12  N   UNL     1       3.015   3.484  19.216  0.00  0.00    +0.000 N 
ATOM     13  C   UNL     1       3.928   2.469  19.300  0.00  0.00    +0.000 A 
ATOM     14  C   UNL     1       3.549   1.533  18.367  0.00  0.00    +0.000 A 
ATOM     15  C   UNL     1       2.405   2.080  17.761  0.00  0.00    +0.000 A 
ATOM     16  N   UNL     1       2.081   3.271  18.268  0.00  0.00    +0.000 NA
ENDBRANCH  10  12
ENDBRANCH   1  10
BRANCH   1  17
ATOM     17  O   UNL     1       2.362   6.526  18.658  0.00  0.00    +0.000 OA
BRANCH  17  18
ATOM     18  C   UNL     1       2.382   7.891  18.583  0.00  0.00    +0.000 C 
ATOM     19  O   UNL     1       3.009   8.534  17.748  0.00  0.00    +0.000 OA
BRANCH  18  20
ATOM     20  C   UNL     1       1.558   8.525  19.614  0.00  0.00    +0.000 A 
ATOM     21  C   UNL     1       0.750   9.624  19.363  0.00  0.00    +0.000 A 
ATOM     22  S   UNL     1      -0.041  10.131  20.795  0.00  0.00    +0.000 S 
ATOM     23  C   UNL     1       0.730   8.858  21.645  0.00  0.00    +0.000 A 
ATOM     24  N   UNL     1       1.521   8.081  20.939  0.00  0.00    +0.000 NA
ENDBRANCH  18  20
ENDBRANCH  17  18
ENDBRANCH   1  17
TORSDOF 7
ENDMDL
MODEL 7
REMARK VINA RESULT:      -7.0      2.064      4.475
REMARK  Name = 
REMARK  9 active torsions:
REMARK  status: ('A' for Active; 'I' for Inactive)
REMARK    1  A    between atoms: C_1  and  O_2
REMARK    2  A    between atoms: O_2  and  C_3
REMARK    3  A    between atoms: C_6  and  C_7
REMARK    4  A    between atoms: C_7  and  O_8
REMARK    5  A    between atoms: C_7  and  C_16
REMARK    6  A    between atoms: O_8  and  C_9
REMARK    7  A    between atoms: C_9  and  C_11
REMARK    8  A    between atoms: C_16  and  C_17
REMARK    9  A    between atoms: C_16  and  N_18
REMARK                            x       y       z     vdW  Elec       q    Type
REMARK                         _______ _______ _______ _____ _____    ______ ____
ROOT
ATOM      1  C   UNL     1       3.090   5.693  18.462  0.00  0.00    +0.000 C 
ENDROOT
BRANCH   1   5
ATOM      2  C   UNL     1       1.199   9.516  19.311  0.00  0.00    +0.000 A 
ATOM      3  C   UNL     1       1.403   8.576  20.323  0.00  0.00    +0.000 A 
ATOM      4  C   UNL     1       2.033   7.360  20.050  0.00  0.00    +0.000 A 
ATOM      5  C   UNL     1       2.454   7.053  18.750  0.00  0.00    +0.000 A 
ATOM      6  C   UNL     1       2.230   7.992  17.734  0.00  0.00    +0.000 A 
ATOM      7  C   UNL     1       1.611   9.218  18.013  0.00  0.00    +0.000 A 
BRANCH   2   9
ATOM      8  C   UNL     1       0.973  11.861  19.088  0.00  0.00    +0.000 C 
ATOM      9  O   UNL     1       0.540  10.650  19.696  0.00  0.00    +0.000 OA
ENDBRANCH   2   9
ENDBRANCH   1   5
BRANCH   1  10
ATOM     10  C   UNL     1       2.063   4.535  18.531  0.00  0.00    +0.000 C 
ATOM     11  C   UNL     1       2.199   3.544  17.366  0.00  0.00    +0.000 C 
BRANCH  10  12
ATOM     12  N   UNL     1       2.162   3.805  19.800  0.00  0.00    +0.000 N 
ATOM     13  C   UNL     1       1.291   3.883  20.852  0.00  0.00    +0.000 A 
ATOM     14  C   UNL     1       1.685   2.920  21.750  0.00  0.00    +0.000 A 
ATOM     15  C   UNL     1       2.811   2.322  21.157  0.00  0.00    +0.000 A 
ATOM     16  N   UNL     1       3.110   2.863  19.974  0.00  0.00    +0.000 NA
ENDBRANCH  10  12
ENDBRANCH   1  10
BRANCH   1  17
ATOM     17  O   UNL     1       4.109   5.484  19.465  0.00  0.00    +0.000 OA
BRANCH  17  18
ATOM     18  C   UNL     1       5.393   5.445  18.996  0.00  0.00    +0.000 C 
ATOM     19  O   UNL     1       6.395   5.493  19.702  0.00  0.00    +0.000 OA
BRANCH  18  20
ATOM     20  C   UNL     1       5.458   5.329  17.538  0.00  0.00    +0.000 A 
ATOM     21  C   UNL     1       5.617   4.117  16.884  0.00  0.00    +0.000 A 
ATOM     22  S   UNL     1       5.691   4.351  15.189  0.00  0.00    +0.000 S 
ATOM     23  C   UNL     1       5.499   6.036  15.436  0.00  0.00    +0.000 A 
ATOM     24  N   UNL     1       5.373   6.432  16.683  0.00  0.00    +0.000 NA
ENDBRANCH  18  20
ENDBRANCH  17  18
ENDBRANCH   1  17
TORSDOF 7
ENDMDL
MODEL 8
REMARK VINA RESULT:      -7.0      0.904      1.576
REMARK  Name = 
REMARK  9 active torsions:
REMARK  status: ('A' for Active; 'I' for Inactive)
REMARK    1  A    between atoms: C_1  and  O_2
REMARK    2  A    between atoms: O_2  and  C_3
REMARK    3  A    between atoms: C_6  and  C_7
REMARK    4  A    between atoms: C_7  and  O_8
REMARK    5  A    between atoms: C_7  and  C_16
REMARK    6  A    between atoms: O_8  and  C_9
REMARK    7  A    between atoms: C_9  and  C_11
REMARK    8  A    between atoms: C_16  and  C_17
REMARK    9  A    between atoms: C_16  and  N_18
REMARK                            x       y       z     vdW  Elec       q    Type
REMARK                         _______ _______ _______ _____ _____    ______ ____
ROOT
ATOM      1  C   UNL     1       3.635   5.716  18.595  0.00  0.00    +0.000 C 
ENDROOT
BRANCH   1   5
ATOM      2  C   UNL     1       1.382   9.420  18.941  0.00  0.00    +0.000 A 
ATOM      3  C   UNL     1       2.062   9.102  17.764  0.00  0.00    +0.000 A 
ATOM      4  C   UNL     1       2.764   7.900  17.649  0.00  0.00    +0.000 A 
ATOM      5  C   UNL     1       2.814   7.000  18.722  0.00  0.00    +0.000 A 
ATOM      6  C   UNL     1       2.146   7.334  19.908  0.00  0.00    +0.000 A 
ATOM      7  C   UNL     1       1.430   8.534  20.016  0.00  0.00    +0.000 A 
BRANCH   2   9
ATOM      8  C   UNL     1       0.690  11.301  20.200  0.00  0.00    +0.000 C 
ATOM      9  O   UNL     1       0.764  10.640  18.942  0.00  0.00    +0.000 OA
ENDBRANCH   2   9
ENDBRANCH   1   5
BRANCH   1  10
ATOM     10  C   UNL     1       5.114   5.997  18.228  0.00  0.00    +0.000 C 
ATOM     11  C   UNL     1       6.102   5.465  19.276  0.00  0.00    +0.000 C 
BRANCH  10  12
ATOM     12  N   UNL     1       5.456   5.438  16.915  0.00  0.00    +0.000 N 
ATOM     13  C   UNL     1       5.696   4.121  16.630  0.00  0.00    +0.000 A 
ATOM     14  C   UNL     1       5.818   4.039  15.264  0.00  0.00    +0.000 A 
ATOM     15  C   UNL     1       5.650   5.360  14.813  0.00  0.00    +0.000 A 
ATOM     16  N   UNL     1       5.438   6.216  15.815  0.00  0.00    +0.000 NA
ENDBRANCH  10  12
ENDBRANCH   1  10
BRANCH   1  17
ATOM     17  O   UNL     1       3.027   4.929  17.548  0.00  0.00    +0.000 OA
BRANCH  17  18
ATOM     18  C   UNL     1       1.899   4.246  17.910  0.00  0.00    +0.000 C 
ATOM     19  O   UNL     1       0.905   4.116  17.203  0.00  0.00    +0.000 OA
BRANCH  18  20
ATOM     20  C   UNL     1       1.997   3.664  19.250  0.00  0.00    +0.000 A 
ATOM     21  C   UNL     1       3.066   2.877  19.654  0.00  0.00    +0.000 A 
ATOM     22  S   UNL     1       2.839   2.333  21.262  0.00  0.00    +0.000 S 
ATOM     23  C   UNL     1       1.351   3.181  21.316  0.00  0.00    +0.000 A 
ATOM     24  N   UNL     1       1.019   3.845  20.232  0.00  0.00    +0.000 NA
ENDBRANCH  18  20
ENDBRANCH  17  18
ENDBRANCH   1  17
TORSDOF 7
ENDMDL
MODEL 9
REMARK VINA RESULT:      -6.9      1.071      1.534
REMARK  Name = 
REMARK  9 active torsions:
REMARK  status: ('A' for Active; 'I' for Inactive)
REMARK    1  A    between atoms: C_1  and  O_2
REMARK    2  A    between atoms: O_2  and  C_3
REMARK    3  A    between atoms: C_6  and  C_7
REMARK    4  A    between atoms: C_7  and  O_8
REMARK    5  A    between atoms: C_7  and  C_16
REMARK    6  A    between atoms: O_8  and  C_9
REMARK    7  A    between atoms: C_9  and  C_11
REMARK    8  A    between atoms: C_16  and  C_17
REMARK    9  A    between atoms: C_16  and  N_18
REMARK                            x       y       z     vdW  Elec       q    Type
REMARK                         _______ _______ _______ _____ _____    ______ ____
ROOT
ATOM      1  C   UNL     1       4.170   5.465  18.549  0.00  0.00    +0.000 C 
ENDROOT
BRANCH   1   5
ATOM      2  C   UNL     1       1.527   8.880  19.066  0.00  0.00    +0.000 A 
ATOM      3  C   UNL     1       2.285   8.729  17.903  0.00  0.00    +0.000 A 
ATOM      4  C   UNL     1       3.113   7.618  17.731  0.00  0.00    +0.000 A 
ATOM      5  C   UNL     1       3.214   6.644  18.733  0.00  0.00    +0.000 A 
ATOM      6  C   UNL     1       2.466   6.811  19.907  0.00  0.00    +0.000 A 
ATOM      7  C   UNL     1       1.624   7.919  20.071  0.00  0.00    +0.000 A 
BRANCH   2   9
ATOM      8  C   UNL     1       0.705  10.648  20.407  0.00  0.00    +0.000 C 
ATOM      9  O   UNL     1       0.785  10.027  19.130  0.00  0.00    +0.000 OA
ENDBRANCH   2   9
ENDBRANCH   1   5
BRANCH   1  10
ATOM     10  C   UNL     1       5.554   5.908  18.010  0.00  0.00    +0.000 C 
ATOM     11  C   UNL     1       6.707   5.551  18.959  0.00  0.00    +0.000 C 
BRANCH  10  12
ATOM     12  N   UNL     1       5.823   5.334  16.687  0.00  0.00    +0.000 N 
ATOM     13  C   UNL     1       5.396   5.828  15.485  0.00  0.00    +0.000 A 
ATOM     14  C   UNL     1       6.009   5.070  14.517  0.00  0.00    +0.000 A 
ATOM     15  C   UNL     1       6.775   4.133  15.233  0.00  0.00    +0.000 A 
ATOM     16  N   UNL     1       6.658   4.285  16.554  0.00  0.00    +0.000 NA
ENDBRANCH  10  12
ENDBRANCH   1  10
BRANCH   1  17
ATOM     17  O   UNL     1       3.555   4.569  17.598  0.00  0.00    +0.000 OA
BRANCH  17  18
ATOM     18  C   UNL     1       3.524   3.253  17.969  0.00  0.00    +0.000 C 
ATOM     19  O   UNL     1       3.967   2.328  17.296  0.00  0.00    +0.000 OA
BRANCH  18  20
ATOM     20  C   UNL     1       2.905   3.051  19.281  0.00  0.00    +0.000 A 
ATOM     21  C   UNL     1       1.550   3.233  19.510  0.00  0.00    +0.000 A 
ATOM     22  S   UNL     1       1.175   2.951  21.158  0.00  0.00    +0.000 S 
ATOM     23  C   UNL     1       2.825   2.599  21.451  0.00  0.00    +0.000 A 
ATOM     24  N   UNL     1       3.629   2.666  20.412  0.00  0.00    +0.000 NA
ENDBRANCH  18  20
ENDBRANCH  17  18
ENDBRANCH   1  17
TORSDOF 7
ENDMDL
