MODEL 1
REMARK VINA RESULT:      -8.0      0.000      0.000
REMARK  Name = 
REMARK  8 active torsions:
REMARK  status: ('A' for Active; 'I' for Inactive)
REMARK    1  A    between atoms: C_2  and  C_3
REMARK    2  A    between atoms: C_8  and  C_9
REMARK    3  A    between atoms: C_13  and  C_14
REMARK    4  A    between atoms: C_17  and  C_18
REMARK    5  A    between atoms: C_21  and  O_22
REMARK    6  A    between atoms: O_22  and  C_23
REMARK    7  A    between atoms: C_28  and  O_29
REMARK    8  A    between atoms: O_29  and  C_30
REMARK                            x       y       z     vdW  Elec       q    Type
REMARK                         _______ _______ _______ _____ _____    ______ ____
ROOT
ATOM      1  C   UNL     1       1.910   7.478  19.299  0.00  0.00    +0.000 A 
ATOM      2  C   UNL     1       1.574   6.713  20.472  0.00  0.00    +0.000 A 
ATOM      3  N   UNL     1       0.972   7.416  21.443  0.00  0.00    +0.000 NA
ATOM      4  N   UNL     1       0.924   8.661  20.930  0.00  0.00    +0.000 N 
ATOM      5  C   UNL     1       0.499   9.920  21.346  0.00  0.00    +0.000 A 
ATOM      6  C   UNL     1       0.792  10.766  20.320  0.00  0.00    +0.000 A 
ATOM      7  N   UNL     1       1.373  10.019  19.265  0.00  0.00    +0.000 N 
ATOM      8  C   UNL     1       1.473   8.726  19.658  0.00  0.00    +0.000 A 
ATOM      9  H   UNL     1       1.730  10.485  18.438  0.00  0.00    +0.000 HD
ENDROOT
BRANCH   1  15
ATOM     10  C   UNL     1       6.172   6.563  17.304  0.00  0.00    +0.000 C 
ATOM     11  O   UNL     1       6.586   7.582  16.765  0.00  0.00    +0.000 OA
ATOM     12  N   UNL     1       4.902   6.458  17.834  0.00  0.00    +0.000 N 
ATOM     13  C   UNL     1       4.329   5.324  18.527  0.00  0.00    +0.000 C 
ATOM     14  C   UNL     1       2.857   5.405  18.157  0.00  0.00    +0.000 C 
ATOM     15  C   UNL     1       2.567   6.916  18.068  0.00  0.00    +0.000 C 
ATOM     16  C   UNL     1       3.924   7.526  17.677  0.00  0.00    +0.000 C 
BRANCH  10  18
ATOM     17  C   UNL     1       7.707   4.397  17.361  0.00  0.00    +0.000 C 
ATOM     18  C   UNL     1       7.049   5.414  17.335  0.00  0.00    +0.000 C 
ENDBRANCH  10  18
ENDBRANCH   1  15
BRANCH   6  19
ATOM     19  C   UNL     1       0.604  12.216  20.195  0.00  0.00    +0.000 A 
ATOM     20  C   UNL     1       1.345  13.118  20.974  0.00  0.00    +0.000 A 
ATOM     21  C   UNL     1       1.181  14.509  20.826  0.00  0.00    +0.000 A 
ATOM     22  C   UNL     1       0.276  15.020  19.893  0.00  0.00    +0.000 A 
ATOM     23  C   UNL     1      -0.459  14.119  19.108  0.00  0.00    +0.000 A 
ATOM     24  C   UNL     1      -0.309  12.734  19.270  0.00  0.00    +0.000 A 
BRANCH  22  25
ATOM     25  O   UNL     1       0.114  16.401  19.841  0.00  0.00    +0.000 OA
BRANCH  25  26
ATOM     26  C   UNL     1       0.347  17.071  18.652  0.00  0.00    +0.000 A 
ATOM     27  C   UNL     1      -0.734  17.703  17.997  0.00  0.00    +0.000 A 
ATOM     28  C   UNL     1      -0.555  18.461  16.849  0.00  0.00    +0.000 A 
ATOM     29  C   UNL     1       0.703  18.557  16.284  0.00  0.00    +0.000 A 
ATOM     30  C   UNL     1       1.771  17.870  16.864  0.00  0.00    +0.000 A 
ATOM     31  C   UNL     1       1.614  17.112  18.045  0.00  0.00    +0.000 A 
BRANCH  31  32
ATOM     32  O   UNL     1       2.798  16.521  18.384  0.00  0.00    +0.000 OA
ATOM     33  C   UNL     1       3.497  15.677  17.497  0.00  0.00    +0.000 C 
ENDBRANCH  31  32
ENDBRANCH  25  26
ENDBRANCH  22  25
ENDBRANCH   6  19
BRANCH   5  34
ATOM     34  C   UNL     1      -0.119  10.230  22.647  0.00  0.00    +0.000 C 
ATOM     35  N   UNL     1      -1.256  10.978  22.631  0.00  0.00    +0.000 N 
ATOM     36  O   UNL     1       0.347   9.848  23.713  0.00  0.00    +0.000 OA
ATOM     37  H   UNL     1      -1.708  11.304  21.776  0.00  0.00    +0.000 HD
ATOM     38  H   UNL     1      -1.680  11.211  23.514  0.00  0.00    +0.000 HD
ENDBRANCH   5  34
TORSDOF 7
ENDMDL
MODEL 2
REMARK VINA RESULT:      -7.9      2.659      9.593
REMARK  Name = 
REMARK  8 active torsions:
REMARK  status: ('A' for Active; 'I' for Inactive)
REMARK    1  A    between atoms: C_2  and  C_3
REMARK    2  A    between atoms: C_8  and  C_9
REMARK    3  A    between atoms: C_13  and  C_14
REMARK    4  A    between atoms: C_17  and  C_18
REMARK    5  A    between atoms: C_21  and  O_22
REMARK    6  A    between atoms: O_22  and  C_23
REMARK    7  A    between atoms: C_28  and  O_29
REMARK    8  A    between atoms: O_29  and  C_30
REMARK                            x       y       z     vdW  Elec       q    Type
REMARK                         _______ _______ _______ _____ _____    ______ ____
ROOT
ATOM      1  C   UNL     1       0.285  13.813  21.144  0.00  0.00    +0.000 A 
ATOM      2  C   UNL     1      -0.539  13.722  22.320  0.00  0.00    +0.000 A 
ATOM      3  N   UNL     1      -0.739  12.472  22.765  0.00  0.00    +0.000 NA
ATOM      4  N   UNL     1      -0.066  11.721  21.872  0.00  0.00    +0.000 N 
ATOM      5  C   UNL     1       0.153  10.367  21.638  0.00  0.00    +0.000 A 
ATOM      6  C   UNL     1       0.912  10.305  20.509  0.00  0.00    +0.000 A 
ATOM      7  N   UNL     1       1.178  11.624  20.067  0.00  0.00    +0.000 N 
ATOM      8  C   UNL     1       0.553  12.491  20.899  0.00  0.00    +0.000 A 
ATOM      9  H   UNL     1       1.669  11.788  19.193  0.00  0.00    +0.000 HD
ENDROOT
BRANCH   1  15
ATOM     10  C   UNL     1       3.754  17.111  20.871  0.00  0.00    +0.000 C 
ATOM     11  O   UNL     1       3.609  17.917  21.782  0.00  0.00    +0.000 OA
ATOM     12  N   UNL     1       2.828  16.129  20.585  0.00  0.00    +0.000 N 
ATOM     13  C   UNL     1       2.918  15.105  19.567  0.00  0.00    +0.000 C 
ATOM     14  C   UNL     1       1.468  14.895  19.162  0.00  0.00    +0.000 C 
ATOM     15  C   UNL     1       0.673  15.099  20.466  0.00  0.00    +0.000 C 
ATOM     16  C   UNL     1       1.550  16.065  21.281  0.00  0.00    +0.000 C 
BRANCH  10  18
ATOM     17  C   UNL     1       5.887  17.268  19.298  0.00  0.00    +0.000 C 
ATOM     18  C   UNL     1       4.931  17.238  20.040  0.00  0.00    +0.000 C 
ENDBRANCH  10  18
ENDBRANCH   1  15
BRANCH   6  19
ATOM     19  C   UNL     1       1.425   9.148  19.766  0.00  0.00    +0.000 A 
ATOM     20  C   UNL     1       1.582   9.186  18.372  0.00  0.00    +0.000 A 
ATOM     21  C   UNL     1       2.104   8.083  17.670  0.00  0.00    +0.000 A 
ATOM     22  C   UNL     1       2.485   6.925  18.353  0.00  0.00    +0.000 A 
ATOM     23  C   UNL     1       2.337   6.889  19.747  0.00  0.00    +0.000 A 
ATOM     24  C   UNL     1       1.798   7.982  20.443  0.00  0.00    +0.000 A 
BRANCH  22  25
ATOM     25  O   UNL     1       2.933   5.847  17.596  0.00  0.00    +0.000 OA
BRANCH  25  26
ATOM     26  C   UNL     1       2.812   4.563  18.098  0.00  0.00    +0.000 A 
ATOM     27  C   UNL     1       1.555   3.920  18.044  0.00  0.00    +0.000 A 
ATOM     28  C   UNL     1       1.385   2.605  18.451  0.00  0.00    +0.000 A 
ATOM     29  C   UNL     1       2.455   1.913  18.990  0.00  0.00    +0.000 A 
ATOM     30  C   UNL     1       3.685   2.555  19.135  0.00  0.00    +0.000 A 
ATOM     31  C   UNL     1       3.884   3.885  18.704  0.00  0.00    +0.000 A 
BRANCH  31  32
ATOM     32  O   UNL     1       5.161   4.284  18.987  0.00  0.00    +0.000 OA
ATOM     33  C   UNL     1       6.077   4.638  17.976  0.00  0.00    +0.000 C 
ENDBRANCH  31  32
ENDBRANCH  25  26
ENDBRANCH  22  25
ENDBRANCH   6  19
BRANCH   5  34
ATOM     34  C   UNL     1      -0.364   9.259  22.460  0.00  0.00    +0.000 C 
ATOM     35  N   UNL     1      -0.167   9.339  23.805  0.00  0.00    +0.000 N 
ATOM     36  O   UNL     1      -0.949   8.293  21.985  0.00  0.00    +0.000 OA
ATOM     37  H   UNL     1       0.289  10.128  24.264  0.00  0.00    +0.000 HD
ATOM     38  H   UNL     1      -0.501   8.581  24.377  0.00  0.00    +0.000 HD
ENDBRANCH   5  34
TORSDOF 7
ENDMDL
MODEL 3
REMARK VINA RESULT:      -7.9      4.255     10.678
REMARK  Name = 
REMARK  8 active torsions:
REMARK  status: ('A' for Active; 'I' for Inactive)
REMARK    1  A    between atoms: C_2  and  C_3
REMARK    2  A    between atoms: C_8  and  C_9
REMARK    3  A    between atoms: C_13  and  C_14
REMARK    4  A    between atoms: C_17  and  C_18
REMARK    5  A    between atoms: C_21  and  O_22
REMARK    6  A    between atoms: O_22  and  C_23
REMARK    7  A    between atoms: C_28  and  O_29
REMARK    8  A    between atoms: O_29  and  C_30
REMARK                            x       y       z     vdW  Elec       q    Type
REMARK                         _______ _______ _______ _____ _____    ______ ____
ROOT
ATOM      1  C   UNL     1      -2.315  13.042  21.677  0.00  0.00    +0.000 A 
ATOM      2  C   UNL     1      -3.364  13.418  20.766  0.00  0.00    +0.000 A 
ATOM      3  N   UNL     1      -3.354  12.755  19.599  0.00  0.00    +0.000 NA
ATOM      4  N   UNL     1      -2.282  11.948  19.719  0.00  0.00    +0.000 N 
ATOM      5  C   UNL     1      -1.611  11.019  18.929  0.00  0.00    +0.000 A 
ATOM      6  C   UNL     1      -0.553  10.595  19.674  0.00  0.00    +0.000 A 
ATOM      7  N   UNL     1      -0.592  11.247  20.932  0.00  0.00    +0.000 N 
ATOM      8  C   UNL     1      -1.647  12.096  20.944  0.00  0.00    +0.000 A 
ATOM      9  H   UNL     1       0.158  11.119  21.603  0.00  0.00    +0.000 HD
ENDROOT
BRANCH   1  15
ATOM     10  C   UNL     1      -2.685  17.088  24.222  0.00  0.00    +0.000 C 
ATOM     11  O   UNL     1      -1.665  17.749  24.068  0.00  0.00    +0.000 OA
ATOM     12  N   UNL     1      -2.823  15.801  23.744  0.00  0.00    +0.000 N 
ATOM     13  C   UNL     1      -3.990  14.950  23.832  0.00  0.00    +0.000 C 
ATOM     14  C   UNL     1      -3.391  13.556  23.930  0.00  0.00    +0.000 C 
ATOM     15  C   UNL     1      -2.126  13.620  23.053  0.00  0.00    +0.000 C 
ATOM     16  C   UNL     1      -1.708  15.099  23.123  0.00  0.00    +0.000 C 
BRANCH  10  18
ATOM     17  C   UNL     1      -4.631  18.133  25.694  0.00  0.00    +0.000 C 
ATOM     18  C   UNL     1      -3.763  17.680  24.982  0.00  0.00    +0.000 C 
ENDBRANCH  10  18
ENDBRANCH   1  15
BRANCH   6  19
ATOM     19  C   UNL     1       0.520   9.646  19.355  0.00  0.00    +0.000 A 
ATOM     20  C   UNL     1       0.997   8.736  20.310  0.00  0.00    +0.000 A 
ATOM     21  C   UNL     1       2.006   7.807  19.987  0.00  0.00    +0.000 A 
ATOM     22  C   UNL     1       2.548   7.770  18.700  0.00  0.00    +0.000 A 
ATOM     23  C   UNL     1       2.065   8.674  17.743  0.00  0.00    +0.000 A 
ATOM     24  C   UNL     1       1.075   9.612  18.071  0.00  0.00    +0.000 A 
BRANCH  22  25
ATOM     25  O   UNL     1       3.585   6.874  18.463  0.00  0.00    +0.000 OA
BRANCH  25  26
ATOM     26  C   UNL     1       3.291   5.563  18.128  0.00  0.00    +0.000 A 
ATOM     27  C   UNL     1       1.944   5.139  18.132  0.00  0.00    +0.000 A 
ATOM     28  C   UNL     1       1.574   3.865  17.726  0.00  0.00    +0.000 A 
ATOM     29  C   UNL     1       2.550   2.953  17.366  0.00  0.00    +0.000 A 
ATOM     30  C   UNL     1       3.894   3.321  17.438  0.00  0.00    +0.000 A 
ATOM     31  C   UNL     1       4.289   4.620  17.826  0.00  0.00    +0.000 A 
BRANCH  31  32
ATOM     32  O   UNL     1       5.653   4.711  17.842  0.00  0.00    +0.000 OA
ATOM     33  C   UNL     1       6.407   4.889  16.664  0.00  0.00    +0.000 C 
ENDBRANCH  31  32
ENDBRANCH  25  26
ENDBRANCH  22  25
ENDBRANCH   6  19
BRANCH   5  34
ATOM     34  C   UNL     1      -1.993  10.621  17.563  0.00  0.00    +0.000 C 
ATOM     35  N   UNL     1      -1.969  11.587  16.604  0.00  0.00    +0.000 N 
ATOM     36  O   UNL     1      -2.325   9.478  17.271  0.00  0.00    +0.000 OA
ATOM     37  H   UNL     1      -1.676  12.550  16.778  0.00  0.00    +0.000 HD
ATOM     38  H   UNL     1      -2.243  11.332  15.670  0.00  0.00    +0.000 HD
ENDBRANCH   5  34
TORSDOF 7
ENDMDL
MODEL 4
REMARK VINA RESULT:      -7.9      3.040      8.900
REMARK  Name = 
REMARK  8 active torsions:
REMARK  status: ('A' for Active; 'I' for Inactive)
REMARK    1  A    between atoms: C_2  and  C_3
REMARK    2  A    between atoms: C_8  and  C_9
REMARK    3  A    between atoms: C_13  and  C_14
REMARK    4  A    between atoms: C_17  and  C_18
REMARK    5  A    between atoms: C_21  and  O_22
REMARK    6  A    between atoms: O_22  and  C_23
REMARK    7  A    between atoms: C_28  and  O_29
REMARK    8  A    between atoms: O_29  and  C_30
REMARK                            x       y       z     vdW  Elec       q    Type
REMARK                         _______ _______ _______ _____ _____    ______ ____
ROOT
ATOM      1  C   UNL     1       1.605  14.883  18.823  0.00  0.00    +0.000 A 
ATOM      2  C   UNL     1       0.295  15.361  18.469  0.00  0.00    +0.000 A 
ATOM      3  N   UNL     1      -0.663  14.422  18.478  0.00  0.00    +0.000 NA
ATOM      4  N   UNL     1       0.010  13.306  18.817  0.00  0.00    +0.000 N 
ATOM      5  C   UNL     1      -0.275  11.954  18.984  0.00  0.00    +0.000 A 
ATOM      6  C   UNL     1       0.910  11.363  19.300  0.00  0.00    +0.000 A 
ATOM      7  N   UNL     1       1.916  12.358  19.351  0.00  0.00    +0.000 N 
ATOM      8  C   UNL     1       1.358  13.550  19.030  0.00  0.00    +0.000 A 
ATOM      9  H   UNL     1       2.887  12.104  19.498  0.00  0.00    +0.000 HD
ENDROOT
BRANCH   1  15
ATOM     10  C   UNL     1       6.232  14.839  20.079  0.00  0.00    +0.000 C 
ATOM     11  O   UNL     1       6.318  15.021  21.288  0.00  0.00    +0.000 OA
ATOM     12  N   UNL     1       5.043  14.950  19.388  0.00  0.00    +0.000 N 
ATOM     13  C   UNL     1       4.822  14.717  17.977  0.00  0.00    +0.000 C 
ATOM     14  C   UNL     1       3.709  15.697  17.638  0.00  0.00    +0.000 C 
ATOM     15  C   UNL     1       2.838  15.741  18.908  0.00  0.00    +0.000 C 
ATOM     16  C   UNL     1       3.825  15.412  20.040  0.00  0.00    +0.000 C 
BRANCH  10  18
ATOM     17  C   UNL     1       8.500  14.377  18.780  0.00  0.00    +0.000 C 
ATOM     18  C   UNL     1       7.448  14.543  19.355  0.00  0.00    +0.000 C 
ENDBRANCH  10  18
ENDBRANCH   1  15
BRANCH   6  19
ATOM     19  C   UNL     1       1.235   9.955  19.556  0.00  0.00    +0.000 A 
ATOM     20  C   UNL     1       1.868   9.162  18.586  0.00  0.00    +0.000 A 
ATOM     21  C   UNL     1       2.204   7.821  18.851  0.00  0.00    +0.000 A 
ATOM     22  C   UNL     1       1.919   7.252  20.095  0.00  0.00    +0.000 A 
ATOM     23  C   UNL     1       1.295   8.045  21.068  0.00  0.00    +0.000 A 
ATOM     24  C   UNL     1       0.942   9.376  20.796  0.00  0.00    +0.000 A 
BRANCH  22  25
ATOM     25  O   UNL     1       2.219   5.905  20.271  0.00  0.00    +0.000 OA
BRANCH  25  26
ATOM     26  C   UNL     1       2.740   5.177  19.215  0.00  0.00    +0.000 A 
ATOM     27  C   UNL     1       1.857   4.484  18.357  0.00  0.00    +0.000 A 
ATOM     28  C   UNL     1       2.307   3.807  17.232  0.00  0.00    +0.000 A 
ATOM     29  C   UNL     1       3.663   3.747  16.969  0.00  0.00    +0.000 A 
ATOM     30  C   UNL     1       4.562   4.350  17.851  0.00  0.00    +0.000 A 
ATOM     31  C   UNL     1       4.122   5.063  18.987  0.00  0.00    +0.000 A 
BRANCH  31  32
ATOM     32  O   UNL     1       5.196   5.527  19.694  0.00  0.00    +0.000 OA
ATOM     33  C   UNL     1       6.512   5.455  19.194  0.00  0.00    +0.000 C 
ENDBRANCH  31  32
ENDBRANCH  25  26
ENDBRANCH  22  25
ENDBRANCH   6  19
BRANCH   5  34
ATOM     34  C   UNL     1      -1.601  11.331  18.824  0.00  0.00    +0.000 C 
ATOM     35  N   UNL     1      -2.686  12.089  19.143  0.00  0.00    +0.000 N 
ATOM     36  O   UNL     1      -1.754  10.182  18.427  0.00  0.00    +0.000 OA
ATOM     37  H   UNL     1      -2.627  13.060  19.454  0.00  0.00    +0.000 HD
ATOM     38  H   UNL     1      -3.597  11.670  19.053  0.00  0.00    +0.000 HD
ENDBRANCH   5  34
TORSDOF 7
ENDMDL
MODEL 5
REMARK VINA RESULT:      -7.8      2.294      9.088
REMARK  Name = 
REMARK  8 active torsions:
REMARK  status: ('A' for Active; 'I' for Inactive)
REMARK    1  A    between atoms: C_2  and  C_3
REMARK    2  A    between atoms: C_8  and  C_9
REMARK    3  A    between atoms: C_13  and  C_14
REMARK    4  A    between atoms: C_17  and  C_18
REMARK    5  A    between atoms: C_21  and  O_22
REMARK    6  A    between atoms: O_22  and  C_23
REMARK    7  A    between atoms: C_28  and  O_29
REMARK    8  A    between atoms: O_29  and  C_30
REMARK                            x       y       z     vdW  Elec       q    Type
REMARK                         _______ _______ _______ _____ _____    ______ ____
ROOT
ATOM      1  C   UNL     1      -0.462  13.851  21.622  0.00  0.00    +0.000 A 
ATOM      2  C   UNL     1      -1.225  13.566  22.809  0.00  0.00    +0.000 A 
ATOM      3  N   UNL     1      -1.222  12.276  23.178  0.00  0.00    +0.000 NA
ATOM      4  N   UNL     1      -0.473  11.691  22.224  0.00  0.00    +0.000 N 
ATOM      5  C   UNL     1      -0.061  10.401  21.899  0.00  0.00    +0.000 A 
ATOM      6  C   UNL     1       0.663  10.523  20.752  0.00  0.00    +0.000 A 
ATOM      7  N   UNL     1       0.715  11.891  20.389  0.00  0.00    +0.000 N 
ATOM      8  C   UNL     1      -0.007  12.602  21.288  0.00  0.00    +0.000 A 
ATOM      9  H   UNL     1       1.147  12.179  19.517  0.00  0.00    +0.000 HD
ENDROOT
BRANCH   1  15
ATOM     10  C   UNL     1       2.580  16.597  19.134  0.00  0.00    +0.000 C 
ATOM     11  O   UNL     1       3.383  17.104  19.908  0.00  0.00    +0.000 OA
ATOM     12  N   UNL     1       1.483  15.876  19.558  0.00  0.00    +0.000 N 
ATOM     13  C   UNL     1       0.501  15.203  18.736  0.00  0.00    +0.000 C 
ATOM     14  C   UNL     1      -0.772  15.315  19.559  0.00  0.00    +0.000 C 
ATOM     15  C   UNL     1      -0.292  15.219  21.020  0.00  0.00    +0.000 C 
ATOM     16  C   UNL     1       1.142  15.773  20.971  0.00  0.00    +0.000 C 
BRANCH  10  18
ATOM     17  C   UNL     1       3.034  16.957  16.543  0.00  0.00    +0.000 C 
ATOM     18  C   UNL     1       2.781  16.814  17.718  0.00  0.00    +0.000 C 
ENDBRANCH  10  18
ENDBRANCH   1  15
BRANCH   6  19
ATOM     19  C   UNL     1       1.320   9.504  19.926  0.00  0.00    +0.000 A 
ATOM     20  C   UNL     1       1.708   8.266  20.463  0.00  0.00    +0.000 A 
ATOM     21  C   UNL     1       2.310   7.282  19.656  0.00  0.00    +0.000 A 
ATOM     22  C   UNL     1       2.528   7.516  18.296  0.00  0.00    +0.000 A 
ATOM     23  C   UNL     1       2.132   8.749  17.757  0.00  0.00    +0.000 A 
ATOM     24  C   UNL     1       1.551   9.737  18.566  0.00  0.00    +0.000 A 
BRANCH  22  25
ATOM     25  O   UNL     1       3.185   6.529  17.569  0.00  0.00    +0.000 OA
BRANCH  25  26
ATOM     26  C   UNL     1       4.530   6.294  17.797  0.00  0.00    +0.000 A 
ATOM     27  C   UNL     1       5.489   7.057  17.096  0.00  0.00    +0.000 A 
ATOM     28  C   UNL     1       6.849   6.931  17.339  0.00  0.00    +0.000 A 
ATOM     29  C   UNL     1       7.295   5.987  18.247  0.00  0.00    +0.000 A 
ATOM     30  C   UNL     1       6.371   5.160  18.889  0.00  0.00    +0.000 A 
ATOM     31  C   UNL     1       4.982   5.290  18.671  0.00  0.00    +0.000 A 
BRANCH  31  32
ATOM     32  O   UNL     1       4.304   4.347  19.393  0.00  0.00    +0.000 OA
ATOM     33  C   UNL     1       3.488   3.376  18.779  0.00  0.00    +0.000 C 
ENDBRANCH  31  32
ENDBRANCH  25  26
ENDBRANCH  22  25
ENDBRANCH   6  19
BRANCH   5  34
ATOM     34  C   UNL     1      -0.381   9.181  22.660  0.00  0.00    +0.000 C 
ATOM     35  N   UNL     1      -0.040   9.164  23.978  0.00  0.00    +0.000 N 
ATOM     36  O   UNL     1      -0.927   8.207  22.158  0.00  0.00    +0.000 OA
ATOM     37  H   UNL     1       0.392   9.953  24.462  0.00  0.00    +0.000 HD
ATOM     38  H   UNL     1      -0.238   8.330  24.506  0.00  0.00    +0.000 HD
ENDBRANCH   5  34
TORSDOF 7
ENDMDL
MODEL 6
REMARK VINA RESULT:      -7.8      3.149      9.181
REMARK  Name = 
REMARK  8 active torsions:
REMARK  status: ('A' for Active; 'I' for Inactive)
REMARK    1  A    between atoms: C_2  and  C_3
REMARK    2  A    between atoms: C_8  and  C_9
REMARK    3  A    between atoms: C_13  and  C_14
REMARK    4  A    between atoms: C_17  and  C_18
REMARK    5  A    between atoms: C_21  and  O_22
REMARK    6  A    between atoms: O_22  and  C_23
REMARK    7  A    between atoms: C_28  and  O_29
REMARK    8  A    between atoms: O_29  and  C_30
REMARK                            x       y       z     vdW  Elec       q    Type
REMARK                         _______ _______ _______ _____ _____    ______ ____
ROOT
ATOM      1  C   UNL     1       1.569  14.959  19.326  0.00  0.00    +0.000 A 
ATOM      2  C   UNL     1       0.291  15.459  18.890  0.00  0.00    +0.000 A 
ATOM      3  N   UNL     1      -0.599  14.508  18.567  0.00  0.00    +0.000 NA
ATOM      4  N   UNL     1       0.091  13.368  18.766  0.00  0.00    +0.000 N 
ATOM      5  C   UNL     1      -0.129  12.002  18.610  0.00  0.00    +0.000 A 
ATOM      6  C   UNL     1       1.037  11.397  18.966  0.00  0.00    +0.000 A 
ATOM      7  N   UNL     1       1.963  12.392  19.366  0.00  0.00    +0.000 N 
ATOM      8  C   UNL     1       1.380  13.606  19.218  0.00  0.00    +0.000 A 
ATOM      9  H   UNL     1       2.920  12.145  19.598  0.00  0.00    +0.000 HD
ENDROOT
BRANCH   1  15
ATOM     10  C   UNL     1       6.242  14.861  20.392  0.00  0.00    +0.000 C 
ATOM     11  O   UNL     1       6.377  14.512  21.558  0.00  0.00    +0.000 OA
ATOM     12  N   UNL     1       5.013  15.135  19.829  0.00  0.00    +0.000 N 
ATOM     13  C   UNL     1       4.736  15.511  18.459  0.00  0.00    +0.000 C 
ATOM     14  C   UNL     1       3.524  16.419  18.591  0.00  0.00    +0.000 C 
ATOM     15  C   UNL     1       2.723  15.820  19.763  0.00  0.00    +0.000 C 
ATOM     16  C   UNL     1       3.796  15.140  20.630  0.00  0.00    +0.000 C 
BRANCH  10  18
ATOM     17  C   UNL     1       8.405  15.263  18.905  0.00  0.00    +0.000 C 
ATOM     18  C   UNL     1       7.439  15.035  19.598  0.00  0.00    +0.000 C 
ENDBRANCH  10  18
ENDBRANCH   1  15
BRANCH   6  19
ATOM     19  C   UNL     1       1.412   9.978  18.974  0.00  0.00    +0.000 A 
ATOM     20  C   UNL     1       1.823   9.325  17.802  0.00  0.00    +0.000 A 
ATOM     21  C   UNL     1       2.211   7.971  17.824  0.00  0.00    +0.000 A 
ATOM     22  C   UNL     1       2.201   7.251  19.021  0.00  0.00    +0.000 A 
ATOM     23  C   UNL     1       1.800   7.906  20.194  0.00  0.00    +0.000 A 
ATOM     24  C   UNL     1       1.394   9.249  20.168  0.00  0.00    +0.000 A 
BRANCH  22  25
ATOM     25  O   UNL     1       2.533   5.901  18.965  0.00  0.00    +0.000 OA
BRANCH  25  26
ATOM     26  C   UNL     1       3.535   5.480  18.106  0.00  0.00    +0.000 A 
ATOM     27  C   UNL     1       4.717   6.247  18.002  0.00  0.00    +0.000 A 
ATOM     28  C   UNL     1       5.792   5.837  17.225  0.00  0.00    +0.000 A 
ATOM     29  C   UNL     1       5.690   4.679  16.476  0.00  0.00    +0.000 A 
ATOM     30  C   UNL     1       4.499   3.951  16.495  0.00  0.00    +0.000 A 
ATOM     31  C   UNL     1       3.404   4.339  17.296  0.00  0.00    +0.000 A 
BRANCH  31  32
ATOM     32  O   UNL     1       2.358   3.478  17.110  0.00  0.00    +0.000 OA
ATOM     33  C   UNL     1       2.238   2.276  17.836  0.00  0.00    +0.000 C 
ENDBRANCH  31  32
ENDBRANCH  25  26
ENDBRANCH  22  25
ENDBRANCH   6  19
BRANCH   5  34
ATOM     34  C   UNL     1      -1.379  11.384  18.134  0.00  0.00    +0.000 C 
ATOM     35  N   UNL     1      -1.995  11.968  17.070  0.00  0.00    +0.000 N 
ATOM     36  O   UNL     1      -1.870  10.390  18.655  0.00  0.00    +0.000 OA
ATOM     37  H   UNL     1      -1.624  12.781  16.577  0.00  0.00    +0.000 HD
ATOM     38  H   UNL     1      -2.859  11.565  16.745  0.00  0.00    +0.000 HD
ENDBRANCH   5  34
TORSDOF 7
ENDMDL
MODEL 7
REMARK VINA RESULT:      -7.8      3.046      9.274
REMARK  Name = 
REMARK  8 active torsions:
REMARK  status: ('A' for Active; 'I' for Inactive)
REMARK    1  A    between atoms: C_2  and  C_3
REMARK    2  A    between atoms: C_8  and  C_9
REMARK    3  A    between atoms: C_13  and  C_14
REMARK    4  A    between atoms: C_17  and  C_18
REMARK    5  A    between atoms: C_21  and  O_22
REMARK    6  A    between atoms: O_22  and  C_23
REMARK    7  A    between atoms: C_28  and  O_29
REMARK    8  A    between atoms: O_29  and  C_30
REMARK                            x       y       z     vdW  Elec       q    Type
REMARK                         _______ _______ _______ _____ _____    ______ ____
ROOT
ATOM      1  C   UNL     1       1.397  14.997  19.765  0.00  0.00    +0.000 A 
ATOM      2  C   UNL     1       0.258  15.473  19.025  0.00  0.00    +0.000 A 
ATOM      3  N   UNL     1      -0.563  14.509  18.582  0.00  0.00    +0.000 NA
ATOM      4  N   UNL     1       0.039  13.381  19.007  0.00  0.00    +0.000 N 
ATOM      5  C   UNL     1      -0.175  12.009  18.903  0.00  0.00    +0.000 A 
ATOM      6  C   UNL     1       0.870  11.423  19.550  0.00  0.00    +0.000 A 
ATOM      7  N   UNL     1       1.709  12.437  20.072  0.00  0.00    +0.000 N 
ATOM      8  C   UNL     1       1.203  13.641  19.714  0.00  0.00    +0.000 A 
ATOM      9  H   UNL     1       2.586  12.199  20.525  0.00  0.00    +0.000 HD
ENDROOT
BRANCH   1  15
ATOM     10  C   UNL     1       6.126  15.748  19.992  0.00  0.00    +0.000 C 
ATOM     11  O   UNL     1       6.609  14.997  20.831  0.00  0.00    +0.000 OA
ATOM     12  N   UNL     1       4.767  15.883  19.800  0.00  0.00    +0.000 N 
ATOM     13  C   UNL     1       4.095  16.702  18.815  0.00  0.00    +0.000 C 
ATOM     14  C   UNL     1       2.810  17.104  19.522  0.00  0.00    +0.000 C 
ATOM     15  C   UNL     1       2.448  15.878  20.383  0.00  0.00    +0.000 C 
ATOM     16  C   UNL     1       3.808  15.222  20.675  0.00  0.00    +0.000 C 
BRANCH  10  18
ATOM     17  C   UNL     1       7.781  17.173  18.482  0.00  0.00    +0.000 C 
ATOM     18  C   UNL     1       7.036  16.555  19.209  0.00  0.00    +0.000 C 
ENDBRANCH  10  18
ENDBRANCH   1  15
BRANCH   6  19
ATOM     19  C   UNL     1       1.199  10.005  19.740  0.00  0.00    +0.000 A 
ATOM     20  C   UNL     1       0.880   9.334  20.931  0.00  0.00    +0.000 A 
ATOM     21  C   UNL     1       1.172   7.967  21.093  0.00  0.00    +0.000 A 
ATOM     22  C   UNL     1       1.782   7.245  20.064  0.00  0.00    +0.000 A 
ATOM     23  C   UNL     1       2.094   7.912  18.871  0.00  0.00    +0.000 A 
ATOM     24  C   UNL     1       1.821   9.280  18.717  0.00  0.00    +0.000 A 
BRANCH  22  25
ATOM     25  O   UNL     1       2.102   5.914  20.312  0.00  0.00    +0.000 OA
BRANCH  25  26
ATOM     26  C   UNL     1       2.572   5.122  19.278  0.00  0.00    +0.000 A 
ATOM     27  C   UNL     1       1.663   4.298  18.577  0.00  0.00    +0.000 A 
ATOM     28  C   UNL     1       2.052   3.545  17.478  0.00  0.00    +0.000 A 
ATOM     29  C   UNL     1       3.379   3.541  17.088  0.00  0.00    +0.000 A 
ATOM     30  C   UNL     1       4.312   4.278  17.819  0.00  0.00    +0.000 A 
ATOM     31  C   UNL     1       3.931   5.069  18.925  0.00  0.00    +0.000 A 
BRANCH  31  32
ATOM     32  O   UNL     1       5.032   5.662  19.479  0.00  0.00    +0.000 OA
ATOM     33  C   UNL     1       6.340   5.201  19.225  0.00  0.00    +0.000 C 
ENDBRANCH  31  32
ENDBRANCH  25  26
ENDBRANCH  22  25
ENDBRANCH   6  19
BRANCH   5  34
ATOM     34  C   UNL     1      -1.306  11.368  18.209  0.00  0.00    +0.000 C 
ATOM     35  N   UNL     1      -1.777  11.983  17.090  0.00  0.00    +0.000 N 
ATOM     36  O   UNL     1      -1.823  10.328  18.599  0.00  0.00    +0.000 OA
ATOM     37  H   UNL     1      -1.374  12.836  16.700  0.00  0.00    +0.000 HD
ATOM     38  H   UNL     1      -2.560  11.564  16.616  0.00  0.00    +0.000 HD
ENDBRANCH   5  34
TORSDOF 7
ENDMDL
MODEL 8
REMARK VINA RESULT:      -7.8      3.118      9.209
REMARK  Name = 
REMARK  8 active torsions:
REMARK  status: ('A' for Active; 'I' for Inactive)
REMARK    1  A    between atoms: C_2  and  C_3
REMARK    2  A    between atoms: C_8  and  C_9
REMARK    3  A    between atoms: C_13  and  C_14
REMARK    4  A    between atoms: C_17  and  C_18
REMARK    5  A    between atoms: C_21  and  O_22
REMARK    6  A    between atoms: O_22  and  C_23
REMARK    7  A    between atoms: C_28  and  O_29
REMARK    8  A    between atoms: O_29  and  C_30
REMARK                            x       y       z     vdW  Elec       q    Type
REMARK                         _______ _______ _______ _____ _____    ______ ____
ROOT
ATOM      1  C   UNL     1       0.878  14.167  19.663  0.00  0.00    +0.000 A 
ATOM      2  C   UNL     1      -0.383  14.486  19.047  0.00  0.00    +0.000 A 
ATOM      3  N   UNL     1      -1.052  13.428  18.565  0.00  0.00    +0.000 NA
ATOM      4  N   UNL     1      -0.227  12.398  18.839  0.00  0.00    +0.000 N 
ATOM      5  C   UNL     1      -0.201  11.025  18.615  0.00  0.00    +0.000 A 
ATOM      6  C   UNL     1       0.980  10.588  19.133  0.00  0.00    +0.000 A 
ATOM      7  N   UNL     1       1.665  11.692  19.697  0.00  0.00    +0.000 N 
ATOM      8  C   UNL     1       0.926  12.808  19.492  0.00  0.00    +0.000 A 
ATOM      9  H   UNL     1       2.604  11.583  20.068  0.00  0.00    +0.000 HD
ENDROOT
BRANCH   1  15
ATOM     10  C   UNL     1       4.801  14.591  22.386  0.00  0.00    +0.000 C 
ATOM     11  O   UNL     1       4.478  14.508  23.565  0.00  0.00    +0.000 OA
ATOM     12  N   UNL     1       3.881  14.661  21.360  0.00  0.00    +0.000 N 
ATOM     13  C   UNL     1       4.151  14.718  19.940  0.00  0.00    +0.000 C 
ATOM     14  C   UNL     1       3.000  15.556  19.406  0.00  0.00    +0.000 C 
ATOM     15  C   UNL     1       1.802  15.172  20.296  0.00  0.00    +0.000 C 
ATOM     16  C   UNL     1       2.453  14.761  21.628  0.00  0.00    +0.000 C 
BRANCH  10  18
ATOM     17  C   UNL     1       7.382  14.821  21.807  0.00  0.00    +0.000 C 
ATOM     18  C   UNL     1       6.212  14.666  22.079  0.00  0.00    +0.000 C 
ENDBRANCH  10  18
ENDBRANCH   1  15
BRANCH   6  19
ATOM     19  C   UNL     1       1.571   9.245  19.162  0.00  0.00    +0.000 A 
ATOM     20  C   UNL     1       1.426   8.407  20.279  0.00  0.00    +0.000 A 
ATOM     21  C   UNL     1       1.970   7.108  20.286  0.00  0.00    +0.000 A 
ATOM     22  C   UNL     1       2.662   6.624  19.174  0.00  0.00    +0.000 A 
ATOM     23  C   UNL     1       2.800   7.457  18.055  0.00  0.00    +0.000 A 
ATOM     24  C   UNL     1       2.275   8.758  18.055  0.00  0.00    +0.000 A 
BRANCH  22  25
ATOM     25  O   UNL     1       3.230   5.357  19.269  0.00  0.00    +0.000 OA
BRANCH  25  26
ATOM     26  C   UNL     1       4.172   4.960  18.336  0.00  0.00    +0.000 A 
ATOM     27  C   UNL     1       3.736   4.372  17.128  0.00  0.00    +0.000 A 
ATOM     28  C   UNL     1       4.623   4.029  16.116  0.00  0.00    +0.000 A 
ATOM     29  C   UNL     1       5.981   4.203  16.311  0.00  0.00    +0.000 A 
ATOM     30  C   UNL     1       6.442   4.701  17.530  0.00  0.00    +0.000 A 
ATOM     31  C   UNL     1       5.555   5.078  18.562  0.00  0.00    +0.000 A 
BRANCH  31  32
ATOM     32  O   UNL     1       6.258   5.502  19.655  0.00  0.00    +0.000 OA
ATOM     33  C   UNL     1       7.649   5.729  19.610  0.00  0.00    +0.000 C 
ENDBRANCH  31  32
ENDBRANCH  25  26
ENDBRANCH  22  25
ENDBRANCH   6  19
BRANCH   5  34
ATOM     34  C   UNL     1      -1.251  10.247  17.935  0.00  0.00    +0.000 C 
ATOM     35  N   UNL     1      -2.539  10.483  18.308  0.00  0.00    +0.000 N 
ATOM     36  O   UNL     1      -1.009   9.414  17.070  0.00  0.00    +0.000 OA
ATOM     37  H   UNL     1      -2.808  11.180  19.003  0.00  0.00    +0.000 HD
ATOM     38  H   UNL     1      -3.265   9.946  17.863  0.00  0.00    +0.000 HD
ENDBRANCH   5  34
TORSDOF 7
ENDMDL
MODEL 9
REMARK VINA RESULT:      -7.8      3.201      9.078
REMARK  Name = 
REMARK  8 active torsions:
REMARK  status: ('A' for Active; 'I' for Inactive)
REMARK    1  A    between atoms: C_2  and  C_3
REMARK    2  A    between atoms: C_8  and  C_9
REMARK    3  A    between atoms: C_13  and  C_14
REMARK    4  A    between atoms: C_17  and  C_18
REMARK    5  A    between atoms: C_21  and  O_22
REMARK    6  A    between atoms: O_22  and  C_23
REMARK    7  A    between atoms: C_28  and  O_29
REMARK    8  A    between atoms: O_29  and  C_30
REMARK                            x       y       z     vdW  Elec       q    Type
REMARK                         _______ _______ _______ _____ _____    ______ ____
ROOT
ATOM      1  C   UNL     1       1.928  15.198  18.710  0.00  0.00    +0.000 A 
ATOM      2  C   UNL     1       0.611  15.751  18.531  0.00  0.00    +0.000 A 
ATOM      3  N   UNL     1      -0.382  14.849  18.567  0.00  0.00    +0.000 NA
ATOM      4  N   UNL     1       0.272  13.686  18.748  0.00  0.00    +0.000 N 
ATOM      5  C   UNL     1      -0.055  12.336  18.839  0.00  0.00    +0.000 A 
ATOM      6  C   UNL     1       1.129  11.678  18.983  0.00  0.00    +0.000 A 
ATOM      7  N   UNL     1       2.178  12.630  19.006  0.00  0.00    +0.000 N 
ATOM      8  C   UNL     1       1.644  13.863  18.838  0.00  0.00    +0.000 A 
ATOM      9  H   UNL     1       3.148  12.330  19.032  0.00  0.00    +0.000 HD
ENDROOT
BRANCH   1  15
ATOM     10  C   UNL     1       6.569  15.005  19.897  0.00  0.00    +0.000 C 
ATOM     11  O   UNL     1       6.684  15.244  21.093  0.00  0.00    +0.000 OA
ATOM     12  N   UNL     1       5.374  15.136  19.218  0.00  0.00    +0.000 N 
ATOM     13  C   UNL     1       5.118  14.842  17.825  0.00  0.00    +0.000 C 
ATOM     14  C   UNL     1       4.046  15.854  17.453  0.00  0.00    +0.000 C 
ATOM     15  C   UNL     1       3.199  16.002  18.732  0.00  0.00    +0.000 C 
ATOM     16  C   UNL     1       4.190  15.686  19.865  0.00  0.00    +0.000 C 
BRANCH  10  18
ATOM     17  C   UNL     1       8.744  14.372  18.513  0.00  0.00    +0.000 C 
ATOM     18  C   UNL     1       7.757  14.617  19.171  0.00  0.00    +0.000 C 
ENDBRANCH  10  18
ENDBRANCH   1  15
BRANCH   6  19
ATOM     19  C   UNL     1       1.416  10.244  19.095  0.00  0.00    +0.000 A 
ATOM     20  C   UNL     1       1.210   9.549  20.297  0.00  0.00    +0.000 A 
ATOM     21  C   UNL     1       1.458   8.166  20.387  0.00  0.00    +0.000 A 
ATOM     22  C   UNL     1       1.912   7.453  19.274  0.00  0.00    +0.000 A 
ATOM     23  C   UNL     1       2.110   8.145  18.071  0.00  0.00    +0.000 A 
ATOM     24  C   UNL     1       1.881   9.527  17.987  0.00  0.00    +0.000 A 
BRANCH  22  25
ATOM     25  O   UNL     1       2.200   6.103  19.446  0.00  0.00    +0.000 OA
BRANCH  25  26
ATOM     26  C   UNL     1       2.991   5.450  18.516  0.00  0.00    +0.000 A 
ATOM     27  C   UNL     1       4.270   5.970  18.216  0.00  0.00    +0.000 A 
ATOM     28  C   UNL     1       5.144   5.319  17.359  0.00  0.00    +0.000 A 
ATOM     29  C   UNL     1       4.739   4.160  16.721  0.00  0.00    +0.000 A 
ATOM     30  C   UNL     1       3.448   3.674  16.934  0.00  0.00    +0.000 A 
ATOM     31  C   UNL     1       2.552   4.310  17.821  0.00  0.00    +0.000 A 
BRANCH  31  32
ATOM     32  O   UNL     1       1.352   3.655  17.825  0.00  0.00    +0.000 OA
ATOM     33  C   UNL     1       1.130   2.500  18.602  0.00  0.00    +0.000 C 
ENDBRANCH  31  32
ENDBRANCH  25  26
ENDBRANCH  22  25
ENDBRANCH   6  19
BRANCH   5  34
ATOM     34  C   UNL     1      -1.416  11.776  18.770  0.00  0.00    +0.000 C 
ATOM     35  N   UNL     1      -2.008  11.732  17.545  0.00  0.00    +0.000 N 
ATOM     36  O   UNL     1      -2.017  11.362  19.754  0.00  0.00    +0.000 OA
ATOM     37  H   UNL     1      -1.551  12.037  16.684  0.00  0.00    +0.000 HD
ATOM     38  H   UNL     1      -2.944  11.368  17.486  0.00  0.00    +0.000 HD
ENDBRANCH   5  34
TORSDOF 7
ENDMDL
