MODEL 1
REMARK VINA RESULT:      -6.4      0.000      0.000
REMARK  Name = 
REMARK  9 active torsions:
REMARK  status: ('A' for Active; 'I' for Inactive)
REMARK    1  A    between atoms: C_1  and  O_2
REMARK    2  A    between atoms: O_2  and  C_3
REMARK    3  A    between atoms: C_3  and  C_5
REMARK    4  A    between atoms: C_7  and  C_8
REMARK    5  A    between atoms: C_9  and  C_10
REMARK    6  A    between atoms: N_12  and  C_13
REMARK    7  A    between atoms: N_12  and  O_14
REMARK    8  A    between atoms: O_14  and  C_15
REMARK    9  A    between atoms: C_16  and  C_17
REMARK                            x       y       z     vdW  Elec       q    Type
REMARK                         _______ _______ _______ _____ _____    ______ ____
ROOT
ATOM      1  C   UNL     1       5.350   6.031  17.130  0.00  0.00    +0.000 A 
ATOM      2  N   UNL     1       4.594   7.167  17.251  0.00  0.00    +0.000 N 
ATOM      3  C   UNL     1       3.347   6.886  17.756  0.00  0.00    +0.000 A 
ATOM      4  C   UNL     1       2.521   8.034  18.219  0.00  0.00    +0.000 C 
ATOM      5  C   UNL     1       3.192   5.500  17.758  0.00  0.00    +0.000 A 
ATOM      6  C   UNL     1       4.490   4.962  17.364  0.00  0.00    +0.000 A 
ATOM      7  C   UNL     1       4.864   3.517  17.265  0.00  0.00    +0.000 C 
ATOM      8  H   UNL     1       4.978   8.096  17.120  0.00  0.00    +0.000 HD
ENDROOT
BRANCH   5   9
ATOM      9  C   UNL     1       2.053   4.663  18.216  0.00  0.00    +0.000 C 
ATOM     10  O   UNL     1       1.331   4.129  17.368  0.00  0.00    +0.000 OA
ATOM     11  N   UNL     1       1.729   4.608  19.575  0.00  0.00    +0.000 N 
ATOM     12  C   UNL     1       2.620   4.680  20.707  0.00  0.00    +0.000 C 
BRANCH  11  13
ATOM     13  O   UNL     1       0.709   3.651  19.855  0.00  0.00    +0.000 OA
ATOM     14  C   UNL     1       1.146   2.857  20.960  0.00  0.00    +0.000 C 
ENDBRANCH  11  13
ENDBRANCH   5   9
BRANCH   1  15
ATOM     15  C   UNL     1       6.763   6.126  16.829  0.00  0.00    +0.000 C 
ATOM     16  O   UNL     1       7.258   5.784  15.765  0.00  0.00    +0.000 OA
BRANCH  15  18
ATOM     17  C   UNL     1       7.696   5.838  18.975  0.00  0.00    +0.000 C 
ATOM     18  O   UNL     1       7.442   6.696  17.862  0.00  0.00    +0.000 OA
ENDBRANCH  15  18
ENDBRANCH   1  15
TORSDOF 4
ENDMDL
MODEL 2
REMARK VINA RESULT:      -6.3      0.913      1.504
REMARK  Name = 
REMARK  9 active torsions:
REMARK  status: ('A' for Active; 'I' for Inactive)
REMARK    1  A    between atoms: C_1  and  O_2
REMARK    2  A    between atoms: O_2  and  C_3
REMARK    3  A    between atoms: C_3  and  C_5
REMARK    4  A    between atoms: C_7  and  C_8
REMARK    5  A    between atoms: C_9  and  C_10
REMARK    6  A    between atoms: N_12  and  C_13
REMARK    7  A    between atoms: N_12  and  O_14
REMARK    8  A    between atoms: O_14  and  C_15
REMARK    9  A    between atoms: C_16  and  C_17
REMARK                            x       y       z     vdW  Elec       q    Type
REMARK                         _______ _______ _______ _____ _____    ______ ____
ROOT
ATOM      1  C   UNL     1       5.313   5.563  16.837  0.00  0.00    +0.000 A 
ATOM      2  N   UNL     1       4.701   6.784  16.955  0.00  0.00    +0.000 N 
ATOM      3  C   UNL     1       3.477   6.673  17.569  0.00  0.00    +0.000 A 
ATOM      4  C   UNL     1       2.826   7.928  18.032  0.00  0.00    +0.000 C 
ATOM      5  C   UNL     1       3.168   5.315  17.658  0.00  0.00    +0.000 A 
ATOM      6  C   UNL     1       4.361   4.613  17.194  0.00  0.00    +0.000 A 
ATOM      7  C   UNL     1       4.562   3.131  17.145  0.00  0.00    +0.000 C 
ATOM      8  H   UNL     1       5.175   7.655  16.745  0.00  0.00    +0.000 HD
ENDROOT
BRANCH   5   9
ATOM      9  C   UNL     1       1.985   4.637  18.247  0.00  0.00    +0.000 C 
ATOM     10  O   UNL     1       1.146   4.142  17.488  0.00  0.00    +0.000 OA
ATOM     11  N   UNL     1       1.763   4.693  19.627  0.00  0.00    +0.000 N 
ATOM     12  C   UNL     1       2.742   4.727  20.686  0.00  0.00    +0.000 C 
BRANCH  11  13
ATOM     13  O   UNL     1       0.671   3.873  20.038  0.00  0.00    +0.000 OA
ATOM     14  C   UNL     1       1.174   2.906  20.961  0.00  0.00    +0.000 C 
ENDBRANCH  11  13
ENDBRANCH   5   9
BRANCH   1  15
ATOM     15  C   UNL     1       6.698   5.480  16.424  0.00  0.00    +0.000 C 
ATOM     16  O   UNL     1       7.614   5.163  17.168  0.00  0.00    +0.000 OA
BRANCH  15  18
ATOM     17  C   UNL     1       6.690   4.613  14.232  0.00  0.00    +0.000 C 
ATOM     18  O   UNL     1       6.825   5.744  15.094  0.00  0.00    +0.000 OA
ENDBRANCH  15  18
ENDBRANCH   1  15
TORSDOF 4
ENDMDL
MODEL 3
REMARK VINA RESULT:      -6.2      1.841      5.693
REMARK  Name = 
REMARK  9 active torsions:
REMARK  status: ('A' for Active; 'I' for Inactive)
REMARK    1  A    between atoms: C_1  and  O_2
REMARK    2  A    between atoms: O_2  and  C_3
REMARK    3  A    between atoms: C_3  and  C_5
REMARK    4  A    between atoms: C_7  and  C_8
REMARK    5  A    between atoms: C_9  and  C_10
REMARK    6  A    between atoms: N_12  and  C_13
REMARK    7  A    between atoms: N_12  and  O_14
REMARK    8  A    between atoms: O_14  and  C_15
REMARK    9  A    between atoms: C_16  and  C_17
REMARK                            x       y       z     vdW  Elec       q    Type
REMARK                         _______ _______ _______ _____ _____    ______ ____
ROOT
ATOM      1  C   UNL     1       2.558   3.856  20.256  0.00  0.00    +0.000 A 
ATOM      2  N   UNL     1       2.360   5.171  19.925  0.00  0.00    +0.000 N 
ATOM      3  C   UNL     1       3.391   5.654  19.157  0.00  0.00    +0.000 A 
ATOM      4  C   UNL     1       3.185   6.962  18.477  0.00  0.00    +0.000 C 
ATOM      5  C   UNL     1       4.410   4.701  19.165  0.00  0.00    +0.000 A 
ATOM      6  C   UNL     1       3.857   3.546  19.866  0.00  0.00    +0.000 A 
ATOM      7  C   UNL     1       4.537   2.234  20.097  0.00  0.00    +0.000 C 
ATOM      8  H   UNL     1       1.489   5.656  20.110  0.00  0.00    +0.000 HD
ENDROOT
BRANCH   5   9
ATOM      9  C   UNL     1       5.731   4.703  18.486  0.00  0.00    +0.000 C 
ATOM     10  O   UNL     1       6.748   4.860  19.167  0.00  0.00    +0.000 OA
ATOM     11  N   UNL     1       5.798   4.673  17.089  0.00  0.00    +0.000 N 
ATOM     12  C   UNL     1       4.903   4.015  16.168  0.00  0.00    +0.000 C 
BRANCH  11  13
ATOM     13  O   UNL     1       7.133   4.534  16.609  0.00  0.00    +0.000 OA
ATOM     14  C   UNL     1       7.119   4.771  15.200  0.00  0.00    +0.000 C 
ENDBRANCH  11  13
ENDBRANCH   5   9
BRANCH   1  15
ATOM     15  C   UNL     1       1.493   3.092  20.871  0.00  0.00    +0.000 C 
ATOM     16  O   UNL     1       1.522   2.686  22.023  0.00  0.00    +0.000 OA
BRANCH  15  18
ATOM     17  C   UNL     1       0.738   2.247  18.804  0.00  0.00    +0.000 C 
ATOM     18  O   UNL     1       0.444   2.944  20.015  0.00  0.00    +0.000 OA
ENDBRANCH  15  18
ENDBRANCH   1  15
TORSDOF 4
ENDMDL
MODEL 4
REMARK VINA RESULT:      -6.1      1.332      1.628
REMARK  Name = 
REMARK  9 active torsions:
REMARK  status: ('A' for Active; 'I' for Inactive)
REMARK    1  A    between atoms: C_1  and  O_2
REMARK    2  A    between atoms: O_2  and  C_3
REMARK    3  A    between atoms: C_3  and  C_5
REMARK    4  A    between atoms: C_7  and  C_8
REMARK    5  A    between atoms: C_9  and  C_10
REMARK    6  A    between atoms: N_12  and  C_13
REMARK    7  A    between atoms: N_12  and  O_14
REMARK    8  A    between atoms: O_14  and  C_15
REMARK    9  A    between atoms: C_16  and  C_17
REMARK                            x       y       z     vdW  Elec       q    Type
REMARK                         _______ _______ _______ _____ _____    ______ ____
ROOT
ATOM      1  C   UNL     1       5.384   6.269  17.522  0.00  0.00    +0.000 A 
ATOM      2  N   UNL     1       4.484   7.213  17.102  0.00  0.00    +0.000 N 
ATOM      3  C   UNL     1       3.328   7.166  17.844  0.00  0.00    +0.000 A 
ATOM      4  C   UNL     1       2.381   8.307  17.710  0.00  0.00    +0.000 C 
ATOM      5  C   UNL     1       3.374   6.015  18.630  0.00  0.00    +0.000 A 
ATOM      6  C   UNL     1       4.705   5.452  18.421  0.00  0.00    +0.000 A 
ATOM      7  C   UNL     1       5.273   4.237  19.083  0.00  0.00    +0.000 C 
ATOM      8  H   UNL     1       4.721   7.934  16.431  0.00  0.00    +0.000 HD
ENDROOT
BRANCH   5   9
ATOM      9  C   UNL     1       2.401   5.493  19.625  0.00  0.00    +0.000 C 
ATOM     10  O   UNL     1       2.208   6.137  20.660  0.00  0.00    +0.000 OA
ATOM     11  N   UNL     1       1.835   4.225  19.448  0.00  0.00    +0.000 N 
ATOM     12  C   UNL     1       1.498   3.565  18.211  0.00  0.00    +0.000 C 
BRANCH  11  13
ATOM     13  O   UNL     1       0.821   3.942  20.410  0.00  0.00    +0.000 OA
ATOM     14  C   UNL     1       1.244   2.811  21.172  0.00  0.00    +0.000 C 
ENDBRANCH  11  13
ENDBRANCH   5   9
BRANCH   1  15
ATOM     15  C   UNL     1       6.744   6.290  17.027  0.00  0.00    +0.000 C 
ATOM     16  O   UNL     1       7.404   5.285  16.803  0.00  0.00    +0.000 OA
BRANCH  15  18
ATOM     17  C   UNL     1       7.934   8.157  17.837  0.00  0.00    +0.000 C 
ATOM     18  O   UNL     1       7.157   7.565  16.793  0.00  0.00    +0.000 OA
ENDBRANCH  15  18
ENDBRANCH   1  15
TORSDOF 4
ENDMDL
MODEL 5
REMARK VINA RESULT:      -6.0      2.400      3.459
REMARK  Name = 
REMARK  9 active torsions:
REMARK  status: ('A' for Active; 'I' for Inactive)
REMARK    1  A    between atoms: C_1  and  O_2
REMARK    2  A    between atoms: O_2  and  C_3
REMARK    3  A    between atoms: C_3  and  C_5
REMARK    4  A    between atoms: C_7  and  C_8
REMARK    5  A    between atoms: C_9  and  C_10
REMARK    6  A    between atoms: N_12  and  C_13
REMARK    7  A    between atoms: N_12  and  O_14
REMARK    8  A    between atoms: O_14  and  C_15
REMARK    9  A    between atoms: C_16  and  C_17
REMARK                            x       y       z     vdW  Elec       q    Type
REMARK                         _______ _______ _______ _____ _____    ______ ____
ROOT
ATOM      1  C   UNL     1       6.588   4.870  16.041  0.00  0.00    +0.000 A 
ATOM      2  N   UNL     1       7.379   5.520  16.951  0.00  0.00    +0.000 N 
ATOM      3  C   UNL     1       6.943   5.305  18.237  0.00  0.00    +0.000 A 
ATOM      4  C   UNL     1       7.857   5.694  19.345  0.00  0.00    +0.000 C 
ATOM      5  C   UNL     1       5.698   4.680  18.164  0.00  0.00    +0.000 A 
ATOM      6  C   UNL     1       5.486   4.397  16.747  0.00  0.00    +0.000 A 
ATOM      7  C   UNL     1       4.317   3.684  16.145  0.00  0.00    +0.000 C 
ATOM      8  H   UNL     1       8.250   5.970  16.695  0.00  0.00    +0.000 HD
ENDROOT
BRANCH   5   9
ATOM      9  C   UNL     1       4.796   4.207  19.246  0.00  0.00    +0.000 C 
ATOM     10  O   UNL     1       5.096   3.180  19.861  0.00  0.00    +0.000 OA
ATOM     11  N   UNL     1       3.565   4.838  19.454  0.00  0.00    +0.000 N 
ATOM     12  C   UNL     1       3.236   6.232  19.273  0.00  0.00    +0.000 C 
BRANCH  11  13
ATOM     13  O   UNL     1       2.895   4.357  20.617  0.00  0.00    +0.000 OA
ATOM     14  C   UNL     1       1.492   4.370  20.350  0.00  0.00    +0.000 C 
ENDBRANCH  11  13
ENDBRANCH   5   9
BRANCH   1  15
ATOM     15  C   UNL     1       6.996   4.781  14.655  0.00  0.00    +0.000 C 
ATOM     16  O   UNL     1       7.768   5.563  14.119  0.00  0.00    +0.000 OA
BRANCH  15  18
ATOM     17  C   UNL     1       6.429   3.715  12.630  0.00  0.00    +0.000 C 
ATOM     18  O   UNL     1       6.453   3.684  14.058  0.00  0.00    +0.000 OA
ENDBRANCH  15  18
ENDBRANCH   1  15
TORSDOF 4
ENDMDL
MODEL 6
REMARK VINA RESULT:      -6.0      2.261      2.699
REMARK  Name = 
REMARK  9 active torsions:
REMARK  status: ('A' for Active; 'I' for Inactive)
REMARK    1  A    between atoms: C_1  and  O_2
REMARK    2  A    between atoms: O_2  and  C_3
REMARK    3  A    between atoms: C_3  and  C_5
REMARK    4  A    between atoms: C_7  and  C_8
REMARK    5  A    between atoms: C_9  and  C_10
REMARK    6  A    between atoms: N_12  and  C_13
REMARK    7  A    between atoms: N_12  and  O_14
REMARK    8  A    between atoms: O_14  and  C_15
REMARK    9  A    between atoms: C_16  and  C_17
REMARK                            x       y       z     vdW  Elec       q    Type
REMARK                         _______ _______ _______ _____ _____    ______ ____
ROOT
ATOM      1  C   UNL     1       5.829   5.024  17.117  0.00  0.00    +0.000 A 
ATOM      2  N   UNL     1       4.831   4.356  16.459  0.00  0.00    +0.000 N 
ATOM      3  C   UNL     1       4.028   3.666  17.335  0.00  0.00    +0.000 A 
ATOM      4  C   UNL     1       2.739   3.136  16.812  0.00  0.00    +0.000 C 
ATOM      5  C   UNL     1       4.643   3.695  18.587  0.00  0.00    +0.000 A 
ATOM      6  C   UNL     1       5.794   4.580  18.436  0.00  0.00    +0.000 A 
ATOM      7  C   UNL     1       6.754   4.986  19.509  0.00  0.00    +0.000 C 
ATOM      8  H   UNL     1       4.642   4.489  15.472  0.00  0.00    +0.000 HD
ENDROOT
BRANCH   5   9
ATOM      9  C   UNL     1       4.200   3.127  19.887  0.00  0.00    +0.000 C 
ATOM     10  O   UNL     1       4.814   2.163  20.352  0.00  0.00    +0.000 OA
ATOM     11  N   UNL     1       3.024   3.590  20.486  0.00  0.00    +0.000 N 
ATOM     12  C   UNL     1       2.470   4.921  20.449  0.00  0.00    +0.000 C 
BRANCH  11  13
ATOM     13  O   UNL     1       2.825   3.046  21.789  0.00  0.00    +0.000 OA
ATOM     14  C   UNL     1       1.498   2.520  21.846  0.00  0.00    +0.000 C 
ENDBRANCH  11  13
ENDBRANCH   5   9
BRANCH   1  15
ATOM     15  C   UNL     1       6.649   5.986  16.412  0.00  0.00    +0.000 C 
ATOM     16  O   UNL     1       7.402   5.697  15.493  0.00  0.00    +0.000 OA
BRANCH  15  18
ATOM     17  C   UNL     1       7.548   7.894  17.465  0.00  0.00    +0.000 C 
ATOM     18  O   UNL     1       6.422   7.248  16.870  0.00  0.00    +0.000 OA
ENDBRANCH  15  18
ENDBRANCH   1  15
TORSDOF 4
ENDMDL
MODEL 7
REMARK VINA RESULT:      -6.0      2.333      5.664
REMARK  Name = 
REMARK  9 active torsions:
REMARK  status: ('A' for Active; 'I' for Inactive)
REMARK    1  A    between atoms: C_1  and  O_2
REMARK    2  A    between atoms: O_2  and  C_3
REMARK    3  A    between atoms: C_3  and  C_5
REMARK    4  A    between atoms: C_7  and  C_8
REMARK    5  A    between atoms: C_9  and  C_10
REMARK    6  A    between atoms: N_12  and  C_13
REMARK    7  A    between atoms: N_12  and  O_14
REMARK    8  A    between atoms: O_14  and  C_15
REMARK    9  A    between atoms: C_16  and  C_17
REMARK                            x       y       z     vdW  Elec       q    Type
REMARK                         _______ _______ _______ _____ _____    ______ ____
ROOT
ATOM      1  C   UNL     1       4.454   3.369  18.320  0.00  0.00    +0.000 A 
ATOM      2  N   UNL     1       4.830   2.952  17.070  0.00  0.00    +0.000 N 
ATOM      3  C   UNL     1       5.456   3.958  16.374  0.00  0.00    +0.000 A 
ATOM      4  C   UNL     1       6.179   3.583  15.129  0.00  0.00    +0.000 C 
ATOM      5  C   UNL     1       5.291   5.141  17.096  0.00  0.00    +0.000 A 
ATOM      6  C   UNL     1       4.654   4.746  18.350  0.00  0.00    +0.000 A 
ATOM      7  C   UNL     1       4.311   5.643  19.496  0.00  0.00    +0.000 C 
ATOM      8  H   UNL     1       4.776   1.983  16.778  0.00  0.00    +0.000 HD
ENDROOT
BRANCH   5   9
ATOM      9  C   UNL     1       5.780   6.514  16.813  0.00  0.00    +0.000 C 
ATOM     10  O   UNL     1       5.106   7.245  16.081  0.00  0.00    +0.000 OA
ATOM     11  N   UNL     1       7.049   6.908  17.252  0.00  0.00    +0.000 N 
ATOM     12  C   UNL     1       7.743   6.501  18.450  0.00  0.00    +0.000 C 
BRANCH  11  13
ATOM     13  O   UNL     1       7.300   8.293  17.024  0.00  0.00    +0.000 OA
ATOM     14  C   UNL     1       8.199   8.747  18.038  0.00  0.00    +0.000 C 
ENDBRANCH  11  13
ENDBRANCH   5   9
BRANCH   1  15
ATOM     15  C   UNL     1       3.980   2.410  19.295  0.00  0.00    +0.000 C 
ATOM     16  O   UNL     1       4.677   1.940  20.183  0.00  0.00    +0.000 OA
BRANCH  15  18
ATOM     17  C   UNL     1       1.799   2.639  20.160  0.00  0.00    +0.000 C 
ATOM     18  O   UNL     1       2.654   2.155  19.123  0.00  0.00    +0.000 OA
ENDBRANCH  15  18
ENDBRANCH   1  15
TORSDOF 4
ENDMDL
MODEL 8
REMARK VINA RESULT:      -6.0      1.722      5.584
REMARK  Name = 
REMARK  9 active torsions:
REMARK  status: ('A' for Active; 'I' for Inactive)
REMARK    1  A    between atoms: C_1  and  O_2
REMARK    2  A    between atoms: O_2  and  C_3
REMARK    3  A    between atoms: C_3  and  C_5
REMARK    4  A    between atoms: C_7  and  C_8
REMARK    5  A    between atoms: C_9  and  C_10
REMARK    6  A    between atoms: N_12  and  C_13
REMARK    7  A    between atoms: N_12  and  O_14
REMARK    8  A    between atoms: O_14  and  C_15
REMARK    9  A    between atoms: C_16  and  C_17
REMARK                            x       y       z     vdW  Elec       q    Type
REMARK                         _______ _______ _______ _____ _____    ______ ____
ROOT
ATOM      1  C   UNL     1       2.224   3.798  18.894  0.00  0.00    +0.000 A 
ATOM      2  N   UNL     1       2.224   5.166  18.826  0.00  0.00    +0.000 N 
ATOM      3  C   UNL     1       3.389   5.640  18.274  0.00  0.00    +0.000 A 
ATOM      4  C   UNL     1       3.421   7.070  17.864  0.00  0.00    +0.000 C 
ATOM      5  C   UNL     1       4.280   4.570  18.178  0.00  0.00    +0.000 A 
ATOM      6  C   UNL     1       3.515   3.390  18.570  0.00  0.00    +0.000 A 
ATOM      7  C   UNL     1       4.002   1.976  18.584  0.00  0.00    +0.000 C 
ATOM      8  H   UNL     1       1.401   5.723  19.027  0.00  0.00    +0.000 HD
ENDROOT
BRANCH   5   9
ATOM      9  C   UNL     1       5.663   4.519  17.639  0.00  0.00    +0.000 C 
ATOM     10  O   UNL     1       6.603   4.396  18.429  0.00  0.00    +0.000 OA
ATOM     11  N   UNL     1       5.891   4.753  16.279  0.00  0.00    +0.000 N 
ATOM     12  C   UNL     1       5.041   4.419  15.162  0.00  0.00    +0.000 C 
BRANCH  11  13
ATOM     13  O   UNL     1       7.248   4.523  15.906  0.00  0.00    +0.000 OA
ATOM     14  C   UNL     1       7.383   4.851  14.522  0.00  0.00    +0.000 C 
ENDBRANCH  11  13
ENDBRANCH   5   9
BRANCH   1  15
ATOM     15  C   UNL     1       1.011   3.085  19.235  0.00  0.00    +0.000 C 
ATOM     16  O   UNL     1       0.415   2.344  18.466  0.00  0.00    +0.000 OA
BRANCH  15  18
ATOM     17  C   UNL     1       1.482   2.651  21.504  0.00  0.00    +0.000 C 
ATOM     18  O   UNL     1       0.665   3.308  20.533  0.00  0.00    +0.000 OA
ENDBRANCH  15  18
ENDBRANCH   1  15
TORSDOF 4
ENDMDL
MODEL 9
REMARK VINA RESULT:      -6.0      1.433      5.255
REMARK  Name = 
REMARK  9 active torsions:
REMARK  status: ('A' for Active; 'I' for Inactive)
REMARK    1  A    between atoms: C_1  and  O_2
REMARK    2  A    between atoms: O_2  and  C_3
REMARK    3  A    between atoms: C_3  and  C_5
REMARK    4  A    between atoms: C_7  and  C_8
REMARK    5  A    between atoms: C_9  and  C_10
REMARK    6  A    between atoms: N_12  and  C_13
REMARK    7  A    between atoms: N_12  and  O_14
REMARK    8  A    between atoms: O_14  and  C_15
REMARK    9  A    between atoms: C_16  and  C_17
REMARK                            x       y       z     vdW  Elec       q    Type
REMARK                         _______ _______ _______ _____ _____    ______ ____
ROOT
ATOM      1  C   UNL     1       2.375   4.108  18.701  0.00  0.00    +0.000 A 
ATOM      2  N   UNL     1       2.028   5.362  19.130  0.00  0.00    +0.000 N 
ATOM      3  C   UNL     1       2.825   6.325  18.559  0.00  0.00    +0.000 A 
ATOM      4  C   UNL     1       2.390   7.742  18.692  0.00  0.00    +0.000 C 
ATOM      5  C   UNL     1       3.873   5.676  17.906  0.00  0.00    +0.000 A 
ATOM      6  C   UNL     1       3.566   4.251  17.996  0.00  0.00    +0.000 A 
ATOM      7  C   UNL     1       4.358   3.129  17.402  0.00  0.00    +0.000 C 
ATOM      8  H   UNL     1       1.196   5.540  19.681  0.00  0.00    +0.000 HD
ENDROOT
BRANCH   5   9
ATOM      9  C   UNL     1       5.000   6.231  17.113  0.00  0.00    +0.000 C 
ATOM     10  O   UNL     1       4.751   6.808  16.050  0.00  0.00    +0.000 OA
ATOM     11  N   UNL     1       6.320   5.971  17.499  0.00  0.00    +0.000 N 
ATOM     12  C   UNL     1       6.842   5.812  18.835  0.00  0.00    +0.000 C 
BRANCH  11  13
ATOM     13  O   UNL     1       7.269   6.695  16.719  0.00  0.00    +0.000 OA
ATOM     14  C   UNL     1       7.754   7.777  17.514  0.00  0.00    +0.000 C 
ENDBRANCH  11  13
ENDBRANCH   5   9
BRANCH   1  15
ATOM     15  C   UNL     1       1.528   2.974  19.004  0.00  0.00    +0.000 C 
ATOM     16  O   UNL     1       0.574   2.633  18.320  0.00  0.00    +0.000 OA
BRANCH  15  18
ATOM     17  C   UNL     1       1.401   2.744  21.347  0.00  0.00    +0.000 C 
ATOM     18  O   UNL     1       1.973   2.317  20.110  0.00  0.00    +0.000 OA
ENDBRANCH  15  18
ENDBRANCH   1  15
TORSDOF 4
ENDMDL
