MODEL 1
REMARK VINA RESULT:      -8.2      0.000      0.000
REMARK  Name = 
REMARK  5 active torsions:
REMARK  status: ('A' for Active; 'I' for Inactive)
REMARK    1  A    between atoms: C_5  and  C_6
REMARK    2  A    between atoms: C_6  and  C_7
REMARK    3  A    between atoms: C_7  and  C_8
REMARK    4  A    between atoms: C_8  and  N_9
REMARK    5  A    between atoms: C_11  and  C_12
REMARK                            x       y       z     vdW  Elec       q    Type
REMARK                         _______ _______ _______ _____ _____    ______ ____
ROOT
ATOM      1  N   UNL     1       3.485   5.875  19.169  0.00  0.00    +0.000 N 
ATOM      2  C   UNL     1       3.656   5.878  17.820  0.00  0.00    +0.000 A 
ATOM      3  C   UNL     1       4.922   5.354  17.652  0.00  0.00    +0.000 A 
ATOM      4  N   UNL     1       5.447   5.041  18.879  0.00  0.00    +0.000 NA
ATOM      5  N   UNL     1       4.556   5.372  19.807  0.00  0.00    +0.000 NA
ENDROOT
BRANCH   3   6
ATOM      6  C   UNL     1       5.592   5.149  16.388  0.00  0.00    +0.000 A 
ATOM      7  C   UNL     1       6.875   5.663  16.184  0.00  0.00    +0.000 A 
ATOM      8  C   UNL     1       7.543   5.440  14.976  0.00  0.00    +0.000 A 
ATOM      9  C   UNL     1       6.934   4.703  13.947  0.00  0.00    +0.000 A 
ATOM     10  C   UNL     1       7.593   4.455  12.734  0.00  0.00    +0.000 A 
ATOM     11  C   UNL     1       6.969   3.725  11.720  0.00  0.00    +0.000 A 
ATOM     12  C   UNL     1       5.677   3.240  11.904  0.00  0.00    +0.000 A 
ATOM     13  C   UNL     1       5.009   3.477  13.104  0.00  0.00    +0.000 A 
ATOM     14  C   UNL     1       5.628   4.199  14.137  0.00  0.00    +0.000 A 
ATOM     15  C   UNL     1       4.973   4.427  15.357  0.00  0.00    +0.000 A 
ENDBRANCH   3   6
BRANCH   1  16
ATOM     16  C   UNL     1       2.345   6.356  19.914  0.00  0.00    +0.000 C 
BRANCH  16  17
ATOM     17  C   UNL     1       1.765   5.323  20.885  0.00  0.00    +0.000 C 
BRANCH  17  18
ATOM     18  C   UNL     1       0.838   4.291  20.231  0.00  0.00    +0.000 C 
BRANCH  18  23
ATOM     19  N   UNL     1       4.030   0.822  18.163  0.00  0.00    +0.000 N 
ATOM     20  C   UNL     1       3.092   1.741  18.431  0.00  0.00    +0.000 A 
ATOM     21  N   UNL     1       2.254   2.234  17.547  0.00  0.00    +0.000 NA
ATOM     22  N   UNL     1       1.377   3.145  18.095  0.00  0.00    +0.000 NA
ATOM     23  C   UNL     1       1.593   3.324  19.381  0.00  0.00    +0.000 A 
ATOM     24  S   UNL     1       2.890   2.392  20.009  0.00  0.00    +0.000 S 
ATOM     25  H   UNL     1       4.218   0.595  17.192  0.00  0.00    +0.000 HD
ATOM     26  H   UNL     1       4.774   0.631  18.821  0.00  0.00    +0.000 HD
ENDBRANCH  18  23
ENDBRANCH  17  18
ENDBRANCH  16  17
ENDBRANCH   1  16
TORSDOF 5
ENDMDL
MODEL 2
REMARK VINA RESULT:      -8.1      5.502      8.800
REMARK  Name = 
REMARK  5 active torsions:
REMARK  status: ('A' for Active; 'I' for Inactive)
REMARK    1  A    between atoms: C_5  and  C_6
REMARK    2  A    between atoms: C_6  and  C_7
REMARK    3  A    between atoms: C_7  and  C_8
REMARK    4  A    between atoms: C_8  and  N_9
REMARK    5  A    between atoms: C_11  and  C_12
REMARK                            x       y       z     vdW  Elec       q    Type
REMARK                         _______ _______ _______ _____ _____    ______ ____
ROOT
ATOM      1  N   UNL     1       7.648   7.621  17.882  0.00  0.00    +0.000 N 
ATOM      2  C   UNL     1       6.389   7.231  17.547  0.00  0.00    +0.000 A 
ATOM      3  C   UNL     1       6.208   6.068  18.267  0.00  0.00    +0.000 A 
ATOM      4  N   UNL     1       7.331   5.817  19.010  0.00  0.00    +0.000 NA
ATOM      5  N   UNL     1       8.215   6.777  18.761  0.00  0.00    +0.000 NA
ENDROOT
BRANCH   3   6
ATOM      6  C   UNL     1       5.019   5.244  18.259  0.00  0.00    +0.000 A 
ATOM      7  C   UNL     1       4.759   4.401  17.176  0.00  0.00    +0.000 A 
ATOM      8  C   UNL     1       3.630   3.577  17.177  0.00  0.00    +0.000 A 
ATOM      9  C   UNL     1       2.735   3.589  18.260  0.00  0.00    +0.000 A 
ATOM     10  C   UNL     1       1.605   2.759  18.286  0.00  0.00    +0.000 A 
ATOM     11  C   UNL     1       0.724   2.789  19.369  0.00  0.00    +0.000 A 
ATOM     12  C   UNL     1       0.959   3.653  20.435  0.00  0.00    +0.000 A 
ATOM     13  C   UNL     1       2.078   4.483  20.424  0.00  0.00    +0.000 A 
ATOM     14  C   UNL     1       2.979   4.456  19.348  0.00  0.00    +0.000 A 
ATOM     15  C   UNL     1       4.120   5.272  19.335  0.00  0.00    +0.000 A 
ENDBRANCH   3   6
BRANCH   1  16
ATOM     16  C   UNL     1       8.378   8.765  17.387  0.00  0.00    +0.000 C 
BRANCH  16  17
ATOM     17  C   UNL     1       8.260  10.003  18.282  0.00  0.00    +0.000 C 
BRANCH  17  18
ATOM     18  C   UNL     1       9.554  10.377  19.017  0.00  0.00    +0.000 C 
BRANCH  18  23
ATOM     19  N   UNL     1      11.056  14.590  16.465  0.00  0.00    +0.000 N 
ATOM     20  C   UNL     1      10.950  13.436  17.140  0.00  0.00    +0.000 A 
ATOM     21  N   UNL     1      11.965  12.678  17.489  0.00  0.00    +0.000 NA
ATOM     22  N   UNL     1      11.577  11.561  18.196  0.00  0.00    +0.000 NA
ATOM     23  C   UNL     1      10.271  11.500  18.344  0.00  0.00    +0.000 A 
ATOM     24  S   UNL     1       9.424  12.808  17.623  0.00  0.00    +0.000 S 
ATOM     25  H   UNL     1      11.954  14.830  16.061  0.00  0.00    +0.000 HD
ATOM     26  H   UNL     1      10.243  15.023  16.046  0.00  0.00    +0.000 HD
ENDBRANCH  18  23
ENDBRANCH  17  18
ENDBRANCH  16  17
ENDBRANCH   1  16
TORSDOF 5
ENDMDL
MODEL 3
REMARK VINA RESULT:      -7.9      3.409      8.108
REMARK  Name = 
REMARK  5 active torsions:
REMARK  status: ('A' for Active; 'I' for Inactive)
REMARK    1  A    between atoms: C_5  and  C_6
REMARK    2  A    between atoms: C_6  and  C_7
REMARK    3  A    between atoms: C_7  and  C_8
REMARK    4  A    between atoms: C_8  and  N_9
REMARK    5  A    between atoms: C_11  and  C_12
REMARK                            x       y       z     vdW  Elec       q    Type
REMARK                         _______ _______ _______ _____ _____    ______ ____
ROOT
ATOM      1  N   UNL     1       3.345   4.700  18.332  0.00  0.00    +0.000 N 
ATOM      2  C   UNL     1       2.747   5.903  18.126  0.00  0.00    +0.000 A 
ATOM      3  C   UNL     1       2.497   6.364  19.401  0.00  0.00    +0.000 A 
ATOM      4  N   UNL     1       2.965   5.453  20.311  0.00  0.00    +0.000 NA
ATOM      5  N   UNL     1       3.480   4.428  19.642  0.00  0.00    +0.000 NA
ENDROOT
BRANCH   3   6
ATOM      6  C   UNL     1       1.859   7.617  19.739  0.00  0.00    +0.000 A 
ATOM      7  C   UNL     1       1.786   8.643  18.793  0.00  0.00    +0.000 A 
ATOM      8  C   UNL     1       1.141   9.844  19.100  0.00  0.00    +0.000 A 
ATOM      9  C   UNL     1       0.563  10.044  20.365  0.00  0.00    +0.000 A 
ATOM     10  C   UNL     1      -0.100  11.236  20.688  0.00  0.00    +0.000 A 
ATOM     11  C   UNL     1      -0.663  11.418  21.954  0.00  0.00    +0.000 A 
ATOM     12  C   UNL     1      -0.563  10.413  22.912  0.00  0.00    +0.000 A 
ATOM     13  C   UNL     1       0.093   9.223  22.606  0.00  0.00    +0.000 A 
ATOM     14  C   UNL     1       0.654   9.020  21.335  0.00  0.00    +0.000 A 
ATOM     15  C   UNL     1       1.299   7.818  21.009  0.00  0.00    +0.000 A 
ENDBRANCH   3   6
BRANCH   1  16
ATOM     16  C   UNL     1       3.790   3.753  17.335  0.00  0.00    +0.000 C 
BRANCH  16  17
ATOM     17  C   UNL     1       4.665   4.376  16.243  0.00  0.00    +0.000 C 
BRANCH  17  18
ATOM     18  C   UNL     1       6.172   4.184  16.455  0.00  0.00    +0.000 C 
BRANCH  18  23
ATOM     19  N   UNL     1       8.598   7.947  18.998  0.00  0.00    +0.000 N 
ATOM     20  C   UNL     1       7.929   7.172  18.133  0.00  0.00    +0.000 A 
ATOM     21  N   UNL     1       7.469   7.575  16.969  0.00  0.00    +0.000 NA
ATOM     22  N   UNL     1       6.840   6.569  16.268  0.00  0.00    +0.000 NA
ATOM     23  C   UNL     1       6.830   5.435  16.936  0.00  0.00    +0.000 A 
ATOM     24  S   UNL     1       7.588   5.522  18.473  0.00  0.00    +0.000 S 
ATOM     25  H   UNL     1       8.627   8.946  18.827  0.00  0.00    +0.000 HD
ATOM     26  H   UNL     1       8.747   7.650  19.953  0.00  0.00    +0.000 HD
ENDBRANCH  18  23
ENDBRANCH  17  18
ENDBRANCH  16  17
ENDBRANCH   1  16
TORSDOF 5
ENDMDL
MODEL 4
REMARK VINA RESULT:      -7.8      5.478      8.726
REMARK  Name = 
REMARK  5 active torsions:
REMARK  status: ('A' for Active; 'I' for Inactive)
REMARK    1  A    between atoms: C_5  and  C_6
REMARK    2  A    between atoms: C_6  and  C_7
REMARK    3  A    between atoms: C_7  and  C_8
REMARK    4  A    between atoms: C_8  and  N_9
REMARK    5  A    between atoms: C_11  and  C_12
REMARK                            x       y       z     vdW  Elec       q    Type
REMARK                         _______ _______ _______ _____ _____    ______ ____
ROOT
ATOM      1  N   UNL     1       7.450   7.289  17.907  0.00  0.00    +0.000 N 
ATOM      2  C   UNL     1       6.710   6.353  18.558  0.00  0.00    +0.000 A 
ATOM      3  C   UNL     1       5.742   6.006  17.638  0.00  0.00    +0.000 A 
ATOM      4  N   UNL     1       5.944   6.713  16.482  0.00  0.00    +0.000 NA
ATOM      5  N   UNL     1       6.995   7.506  16.660  0.00  0.00    +0.000 NA
ENDROOT
BRANCH   3   6
ATOM      6  C   UNL     1       4.688   5.038  17.843  0.00  0.00    +0.000 A 
ATOM      7  C   UNL     1       4.662   3.861  17.091  0.00  0.00    +0.000 A 
ATOM      8  C   UNL     1       3.664   2.906  17.307  0.00  0.00    +0.000 A 
ATOM      9  C   UNL     1       2.669   3.115  18.276  0.00  0.00    +0.000 A 
ATOM     10  C   UNL     1       1.669   2.163  18.517  0.00  0.00    +0.000 A 
ATOM     11  C   UNL     1       0.684   2.392  19.481  0.00  0.00    +0.000 A 
ATOM     12  C   UNL     1       0.685   3.578  20.210  0.00  0.00    +0.000 A 
ATOM     13  C   UNL     1       1.672   4.534  19.981  0.00  0.00    +0.000 A 
ATOM     14  C   UNL     1       2.675   4.313  19.024  0.00  0.00    +0.000 A 
ATOM     15  C   UNL     1       3.687   5.260  18.800  0.00  0.00    +0.000 A 
ENDBRANCH   3   6
BRANCH   1  16
ATOM     16  C   UNL     1       8.581   8.029  18.415  0.00  0.00    +0.000 C 
BRANCH  16  17
ATOM     17  C   UNL     1       8.461   9.544  18.221  0.00  0.00    +0.000 C 
BRANCH  17  18
ATOM     18  C   UNL     1       9.423  10.371  19.084  0.00  0.00    +0.000 C 
BRANCH  18  23
ATOM     19  N   UNL     1      12.314  14.016  16.880  0.00  0.00    +0.000 N 
ATOM     20  C   UNL     1      11.340  13.219  17.342  0.00  0.00    +0.000 A 
ATOM     21  N   UNL     1      10.056  13.416  17.143  0.00  0.00    +0.000 NA
ATOM     22  N   UNL     1       9.273  12.432  17.706  0.00  0.00    +0.000 NA
ATOM     23  C   UNL     1       9.994  11.526  18.331  0.00  0.00    +0.000 A 
ATOM     24  S   UNL     1      11.685  11.818  18.276  0.00  0.00    +0.000 S 
ATOM     25  H   UNL     1      12.055  14.911  16.481  0.00  0.00    +0.000 HD
ATOM     26  H   UNL     1      13.259  13.937  17.230  0.00  0.00    +0.000 HD
ENDBRANCH  18  23
ENDBRANCH  17  18
ENDBRANCH  16  17
ENDBRANCH   1  16
TORSDOF 5
ENDMDL
MODEL 5
REMARK VINA RESULT:      -7.8      5.815      7.555
REMARK  Name = 
REMARK  5 active torsions:
REMARK  status: ('A' for Active; 'I' for Inactive)
REMARK    1  A    between atoms: C_5  and  C_6
REMARK    2  A    between atoms: C_6  and  C_7
REMARK    3  A    between atoms: C_7  and  C_8
REMARK    4  A    between atoms: C_8  and  N_9
REMARK    5  A    between atoms: C_11  and  C_12
REMARK                            x       y       z     vdW  Elec       q    Type
REMARK                         _______ _______ _______ _____ _____    ______ ____
ROOT
ATOM      1  N   UNL     1       7.662   7.105  18.027  0.00  0.00    +0.000 N 
ATOM      2  C   UNL     1       8.558   7.813  18.765  0.00  0.00    +0.000 A 
ATOM      3  C   UNL     1       8.446   9.095  18.269  0.00  0.00    +0.000 A 
ATOM      4  N   UNL     1       7.490   9.118  17.287  0.00  0.00    +0.000 NA
ATOM      5  N   UNL     1       7.018   7.885  17.141  0.00  0.00    +0.000 NA
ENDROOT
BRANCH   3   6
ATOM      6  C   UNL     1       9.199  10.245  18.718  0.00  0.00    +0.000 A 
ATOM      7  C   UNL     1       9.305  10.523  20.083  0.00  0.00    +0.000 A 
ATOM      8  C   UNL     1      10.059  11.614  20.526  0.00  0.00    +0.000 A 
ATOM      9  C   UNL     1      10.715  12.451  19.608  0.00  0.00    +0.000 A 
ATOM     10  C   UNL     1      11.488  13.541  20.033  0.00  0.00    +0.000 A 
ATOM     11  C   UNL     1      12.128  14.366  19.105  0.00  0.00    +0.000 A 
ATOM     12  C   UNL     1      11.998  14.114  17.742  0.00  0.00    +0.000 A 
ATOM     13  C   UNL     1      11.233  13.034  17.304  0.00  0.00    +0.000 A 
ATOM     14  C   UNL     1      10.593  12.190  18.225  0.00  0.00    +0.000 A 
ATOM     15  C   UNL     1       9.838  11.088  17.797  0.00  0.00    +0.000 A 
ENDBRANCH   3   6
BRANCH   1  16
ATOM     16  C   UNL     1       7.387   5.688  18.094  0.00  0.00    +0.000 C 
BRANCH  16  17
ATOM     17  C   UNL     1       6.618   5.271  19.352  0.00  0.00    +0.000 C 
BRANCH  17  18
ATOM     18  C   UNL     1       5.100   5.467  19.259  0.00  0.00    +0.000 C 
BRANCH  18  23
ATOM     19  N   UNL     1       1.849   1.575  18.366  0.00  0.00    +0.000 N 
ATOM     20  C   UNL     1       2.855   2.383  18.730  0.00  0.00    +0.000 A 
ATOM     21  N   UNL     1       3.919   1.998  19.398  0.00  0.00    +0.000 NA
ATOM     22  N   UNL     1       4.809   3.026  19.620  0.00  0.00    +0.000 NA
ATOM     23  C   UNL     1       4.378   4.167  19.125  0.00  0.00    +0.000 A 
ATOM     24  S   UNL     1       2.848   4.061  18.354  0.00  0.00    +0.000 S 
ATOM     25  H   UNL     1       1.820   0.638  18.753  0.00  0.00    +0.000 HD
ATOM     26  H   UNL     1       0.970   1.954  18.040  0.00  0.00    +0.000 HD
ENDBRANCH  18  23
ENDBRANCH  17  18
ENDBRANCH  16  17
ENDBRANCH   1  16
TORSDOF 5
ENDMDL
MODEL 6
REMARK VINA RESULT:      -7.8      5.481      8.741
REMARK  Name = 
REMARK  5 active torsions:
REMARK  status: ('A' for Active; 'I' for Inactive)
REMARK    1  A    between atoms: C_5  and  C_6
REMARK    2  A    between atoms: C_6  and  C_7
REMARK    3  A    between atoms: C_7  and  C_8
REMARK    4  A    between atoms: C_8  and  N_9
REMARK    5  A    between atoms: C_11  and  C_12
REMARK                            x       y       z     vdW  Elec       q    Type
REMARK                         _______ _______ _______ _____ _____    ______ ____
ROOT
ATOM      1  N   UNL     1       7.607   7.471  17.893  0.00  0.00    +0.000 N 
ATOM      2  C   UNL     1       6.356   7.078  17.533  0.00  0.00    +0.000 A 
ATOM      3  C   UNL     1       6.139   5.950  18.296  0.00  0.00    +0.000 A 
ATOM      4  N   UNL     1       7.234   5.721  19.087  0.00  0.00    +0.000 NA
ATOM      5  N   UNL     1       8.136   6.661  18.826  0.00  0.00    +0.000 NA
ENDROOT
BRANCH   3   6
ATOM      6  C   UNL     1       4.943   5.137  18.284  0.00  0.00    +0.000 A 
ATOM      7  C   UNL     1       4.631   4.366  17.162  0.00  0.00    +0.000 A 
ATOM      8  C   UNL     1       3.495   3.553  17.156  0.00  0.00    +0.000 A 
ATOM      9  C   UNL     1       2.644   3.502  18.273  0.00  0.00    +0.000 A 
ATOM     10  C   UNL     1       1.507   2.682  18.292  0.00  0.00    +0.000 A 
ATOM     11  C   UNL     1       0.670   2.650  19.409  0.00  0.00    +0.000 A 
ATOM     12  C   UNL     1       0.955   3.443  20.517  0.00  0.00    +0.000 A 
ATOM     13  C   UNL     1       2.082   4.263  20.514  0.00  0.00    +0.000 A 
ATOM     14  C   UNL     1       2.939   4.297  19.402  0.00  0.00    +0.000 A 
ATOM     15  C   UNL     1       4.087   5.104  19.395  0.00  0.00    +0.000 A 
ENDBRANCH   3   6
BRANCH   1  16
ATOM     16  C   UNL     1       8.365   8.586  17.374  0.00  0.00    +0.000 C 
BRANCH  16  17
ATOM     17  C   UNL     1       8.189   9.877  18.179  0.00  0.00    +0.000 C 
BRANCH  17  18
ATOM     18  C   UNL     1       9.297  10.138  19.207  0.00  0.00    +0.000 C 
BRANCH  18  23
ATOM     19  N   UNL     1      12.321  14.303  19.117  0.00  0.00    +0.000 N 
ATOM     20  C   UNL     1      11.442  13.319  18.883  0.00  0.00    +0.000 A 
ATOM     21  N   UNL     1      10.682  13.233  17.814  0.00  0.00    +0.000 NA
ATOM     22  N   UNL     1       9.887  12.108  17.814  0.00  0.00    +0.000 NA
ATOM     23  C   UNL     1      10.060  11.383  18.899  0.00  0.00    +0.000 A 
ATOM     24  S   UNL     1      11.208  12.032  19.998  0.00  0.00    +0.000 S 
ATOM     25  H   UNL     1      12.302  15.119  18.515  0.00  0.00    +0.000 HD
ATOM     26  H   UNL     1      12.724  14.432  20.035  0.00  0.00    +0.000 HD
ENDBRANCH  18  23
ENDBRANCH  17  18
ENDBRANCH  16  17
ENDBRANCH   1  16
TORSDOF 5
ENDMDL
MODEL 7
REMARK VINA RESULT:      -7.6      5.452      8.724
REMARK  Name = 
REMARK  5 active torsions:
REMARK  status: ('A' for Active; 'I' for Inactive)
REMARK    1  A    between atoms: C_5  and  C_6
REMARK    2  A    between atoms: C_6  and  C_7
REMARK    3  A    between atoms: C_7  and  C_8
REMARK    4  A    between atoms: C_8  and  N_9
REMARK    5  A    between atoms: C_11  and  C_12
REMARK                            x       y       z     vdW  Elec       q    Type
REMARK                         _______ _______ _______ _____ _____    ______ ____
ROOT
ATOM      1  N   UNL     1       7.548   7.718  17.906  0.00  0.00    +0.000 N 
ATOM      2  C   UNL     1       6.281   7.329  17.605  0.00  0.00    +0.000 A 
ATOM      3  C   UNL     1       6.156   6.111  18.241  0.00  0.00    +0.000 A 
ATOM      4  N   UNL     1       7.319   5.828  18.907  0.00  0.00    +0.000 NA
ATOM      5  N   UNL     1       8.173   6.822  18.689  0.00  0.00    +0.000 NA
ENDROOT
BRANCH   3   6
ATOM      6  C   UNL     1       4.983   5.266  18.228  0.00  0.00    +0.000 A 
ATOM      7  C   UNL     1       4.740   4.422  17.141  0.00  0.00    +0.000 A 
ATOM      8  C   UNL     1       3.626   3.578  17.136  0.00  0.00    +0.000 A 
ATOM      9  C   UNL     1       2.730   3.568  18.218  0.00  0.00    +0.000 A 
ATOM     10  C   UNL     1       1.614   2.718  18.239  0.00  0.00    +0.000 A 
ATOM     11  C   UNL     1       0.731   2.727  19.321  0.00  0.00    +0.000 A 
ATOM     12  C   UNL     1       0.949   3.591  20.391  0.00  0.00    +0.000 A 
ATOM     13  C   UNL     1       2.053   4.442  20.385  0.00  0.00    +0.000 A 
ATOM     14  C   UNL     1       2.956   4.435  19.310  0.00  0.00    +0.000 A 
ATOM     15  C   UNL     1       4.082   5.272  19.302  0.00  0.00    +0.000 A 
ENDBRANCH   3   6
BRANCH   1  16
ATOM     16  C   UNL     1       8.232   8.912  17.466  0.00  0.00    +0.000 C 
BRANCH  16  17
ATOM     17  C   UNL     1       8.672   9.827  18.613  0.00  0.00    +0.000 C 
BRANCH  17  18
ATOM     18  C   UNL     1       9.880  10.714  18.288  0.00  0.00    +0.000 C 
BRANCH  18  23
ATOM     19  N   UNL     1       7.822  15.375  17.550  0.00  0.00    +0.000 N 
ATOM     20  C   UNL     1       8.568  14.310  17.877  0.00  0.00    +0.000 A 
ATOM     21  N   UNL     1       9.706  14.368  18.532  0.00  0.00    +0.000 NA
ATOM     22  N   UNL     1      10.253  13.124  18.759  0.00  0.00    +0.000 NA
ATOM     23  C   UNL     1       9.515  12.160  18.249  0.00  0.00    +0.000 A 
ATOM     24  S   UNL     1       8.098  12.712  17.452  0.00  0.00    +0.000 S 
ATOM     25  H   UNL     1       8.221  16.299  17.674  0.00  0.00    +0.000 HD
ATOM     26  H   UNL     1       7.072  15.296  16.875  0.00  0.00    +0.000 HD
ENDBRANCH  18  23
ENDBRANCH  17  18
ENDBRANCH  16  17
ENDBRANCH   1  16
TORSDOF 5
ENDMDL
MODEL 8
REMARK VINA RESULT:      -7.6      4.003      8.273
REMARK  Name = 
REMARK  5 active torsions:
REMARK  status: ('A' for Active; 'I' for Inactive)
REMARK    1  A    between atoms: C_5  and  C_6
REMARK    2  A    between atoms: C_6  and  C_7
REMARK    3  A    between atoms: C_7  and  C_8
REMARK    4  A    between atoms: C_8  and  N_9
REMARK    5  A    between atoms: C_11  and  C_12
REMARK                            x       y       z     vdW  Elec       q    Type
REMARK                         _______ _______ _______ _____ _____    ______ ____
ROOT
ATOM      1  N   UNL     1       3.213   6.621  18.440  0.00  0.00    +0.000 N 
ATOM      2  C   UNL     1       2.495   6.861  19.569  0.00  0.00    +0.000 A 
ATOM      3  C   UNL     1       1.996   8.132  19.373  0.00  0.00    +0.000 A 
ATOM      4  N   UNL     1       2.404   8.594  18.149  0.00  0.00    +0.000 NA
ATOM      5  N   UNL     1       3.159   7.658  17.585  0.00  0.00    +0.000 NA
ENDROOT
BRANCH   3   6
ATOM      6  C   UNL     1       1.160   8.865  20.297  0.00  0.00    +0.000 A 
ATOM      7  C   UNL     1       1.176   8.549  21.658  0.00  0.00    +0.000 A 
ATOM      8  C   UNL     1       0.396   9.276  22.562  0.00  0.00    +0.000 A 
ATOM      9  C   UNL     1      -0.421  10.328  22.118  0.00  0.00    +0.000 A 
ATOM     10  C   UNL     1      -1.200  11.078  23.012  0.00  0.00    +0.000 A 
ATOM     11  C   UNL     1      -2.011  12.118  22.550  0.00  0.00    +0.000 A 
ATOM     12  C   UNL     1      -2.058  12.415  21.191  0.00  0.00    +0.000 A 
ATOM     13  C   UNL     1      -1.290  11.679  20.291  0.00  0.00    +0.000 A 
ATOM     14  C   UNL     1      -0.461  10.639  20.741  0.00  0.00    +0.000 A 
ATOM     15  C   UNL     1       0.333   9.904  19.847  0.00  0.00    +0.000 A 
ENDBRANCH   3   6
BRANCH   1  16
ATOM     16  C   UNL     1       3.991   5.446  18.122  0.00  0.00    +0.000 C 
BRANCH  16  17
ATOM     17  C   UNL     1       3.206   4.381  17.350  0.00  0.00    +0.000 C 
BRANCH  17  18
ATOM     18  C   UNL     1       3.449   2.944  17.829  0.00  0.00    +0.000 C 
BRANCH  18  23
ATOM     19  N   UNL     1       1.032   2.558  22.359  0.00  0.00    +0.000 N 
ATOM     20  C   UNL     1       1.899   2.603  21.338  0.00  0.00    +0.000 A 
ATOM     21  N   UNL     1       3.196   2.424  21.450  0.00  0.00    +0.000 NA
ATOM     22  N   UNL     1       3.851   2.499  20.240  0.00  0.00    +0.000 NA
ATOM     23  C   UNL     1       3.024   2.752  19.247  0.00  0.00    +0.000 A 
ATOM     24  S   UNL     1       1.385   2.919  19.728  0.00  0.00    +0.000 S 
ATOM     25  H   UNL     1       1.401   2.535  23.303  0.00  0.00    +0.000 HD
ATOM     26  H   UNL     1       0.087   2.903  22.254  0.00  0.00    +0.000 HD
ENDBRANCH  18  23
ENDBRANCH  17  18
ENDBRANCH  16  17
ENDBRANCH   1  16
TORSDOF 5
ENDMDL
MODEL 9
REMARK VINA RESULT:      -7.6      3.575      7.952
REMARK  Name = 
REMARK  5 active torsions:
REMARK  status: ('A' for Active; 'I' for Inactive)
REMARK    1  A    between atoms: C_5  and  C_6
REMARK    2  A    between atoms: C_6  and  C_7
REMARK    3  A    between atoms: C_7  and  C_8
REMARK    4  A    between atoms: C_8  and  N_9
REMARK    5  A    between atoms: C_11  and  C_12
REMARK                            x       y       z     vdW  Elec       q    Type
REMARK                         _______ _______ _______ _____ _____    ______ ____
ROOT
ATOM      1  N   UNL     1       4.122   4.863  19.026  0.00  0.00    +0.000 N 
ATOM      2  C   UNL     1       3.956   6.130  19.491  0.00  0.00    +0.000 A 
ATOM      3  C   UNL     1       2.605   6.359  19.333  0.00  0.00    +0.000 A 
ATOM      4  N   UNL     1       2.015   5.238  18.812  0.00  0.00    +0.000 NA
ATOM      5  N   UNL     1       2.959   4.324  18.620  0.00  0.00    +0.000 NA
ENDROOT
BRANCH   3   6
ATOM      6  C   UNL     1       1.908   7.579  19.676  0.00  0.00    +0.000 A 
ATOM      7  C   UNL     1       1.746   8.584  18.720  0.00  0.00    +0.000 A 
ATOM      8  C   UNL     1       1.044   9.752  19.034  0.00  0.00    +0.000 A 
ATOM      9  C   UNL     1       0.498   9.937  20.315  0.00  0.00    +0.000 A 
ATOM     10  C   UNL     1      -0.222  11.094  20.645  0.00  0.00    +0.000 A 
ATOM     11  C   UNL     1      -0.753  11.262  21.926  0.00  0.00    +0.000 A 
ATOM     12  C   UNL     1      -0.565  10.279  22.893  0.00  0.00    +0.000 A 
ATOM     13  C   UNL     1       0.148   9.123  22.580  0.00  0.00    +0.000 A 
ATOM     14  C   UNL     1       0.677   8.934  21.293  0.00  0.00    +0.000 A 
ATOM     15  C   UNL     1       1.379   7.766  20.961  0.00  0.00    +0.000 A 
ENDBRANCH   3   6
BRANCH   1  16
ATOM     16  C   UNL     1       5.355   4.117  18.917  0.00  0.00    +0.000 C 
BRANCH  16  17
ATOM     17  C   UNL     1       6.571   4.986  18.581  0.00  0.00    +0.000 C 
BRANCH  17  18
ATOM     18  C   UNL     1       6.321   6.026  17.482  0.00  0.00    +0.000 C 
BRANCH  18  23
ATOM     19  N   UNL     1       6.292   3.490  13.002  0.00  0.00    +0.000 N 
ATOM     20  C   UNL     1       6.546   4.265  14.066  0.00  0.00    +0.000 A 
ATOM     21  N   UNL     1       7.590   5.055  14.182  0.00  0.00    +0.000 NA
ATOM     22  N   UNL     1       7.595   5.759  15.367  0.00  0.00    +0.000 NA
ATOM     23  C   UNL     1       6.557   5.464  16.120  0.00  0.00    +0.000 A 
ATOM     24  S   UNL     1       5.502   4.299  15.430  0.00  0.00    +0.000 S 
ATOM     25  H   UNL     1       7.018   3.380  12.302  0.00  0.00    +0.000 HD
ATOM     26  H   UNL     1       5.597   2.756  13.048  0.00  0.00    +0.000 HD
ENDBRANCH  18  23
ENDBRANCH  17  18
ENDBRANCH  16  17
ENDBRANCH   1  16
TORSDOF 5
ENDMDL
