MODEL 1
REMARK VINA RESULT:      -6.4      0.000      0.000
REMARK  Name = 
REMARK  6 active torsions:
REMARK  status: ('A' for Active; 'I' for Inactive)
REMARK    1  A    between atoms: C_2  and  C_3
REMARK    2  A    between atoms: C_6  and  C_7
REMARK    3  A    between atoms: C_7  and  S_8
REMARK    4  A    between atoms: S_8  and  C_9
REMARK    5  A    between atoms: C_12  and  S_13
REMARK    6  A    between atoms: S_13  and  N_14
REMARK                            x       y       z     vdW  Elec       q    Type
REMARK                         _______ _______ _______ _____ _____    ______ ____
ROOT
ATOM      1  C   UNL     1       3.567   6.673  17.744  0.00  0.00    +0.000 A 
ATOM      2  C   UNL     1       3.305   5.322  17.873  0.00  0.00    +0.000 A 
ATOM      3  C   UNL     1       4.331   4.502  17.332  0.00  0.00    +0.000 A 
ATOM      4  C   UNL     1       5.367   5.246  16.809  0.00  0.00    +0.000 A 
ATOM      5  S   UNL     1       5.072   6.931  16.967  0.00  0.00    +0.000 S 
ENDROOT
BRANCH   4   6
ATOM      6  S   UNL     1       6.882   4.732  16.028  0.00  0.00    +0.000 S 
ATOM      7  O   UNL     1       6.529   3.624  15.171  0.00  0.00    +0.000 OA
ATOM      8  O   UNL     1       7.469   5.956  15.536  0.00  0.00    +0.000 OA
BRANCH   6   9
ATOM      9  N   UNL     1       7.898   4.149  17.221  0.00  0.00    +0.000 NA
ATOM     10  H   UNL     1       7.923   3.133  17.267  0.00  0.00    +0.000 HD
ATOM     11  H   UNL     1       7.815   4.649  18.103  0.00  0.00    +0.000 HD
ENDBRANCH   6   9
ENDBRANCH   4   6
BRANCH   1  12
ATOM     12  S   UNL     1       2.423   7.886  18.309  0.00  0.00    +0.000 S 
BRANCH  12  13
ATOM     13  C   UNL     1       1.969   7.459  20.012  0.00  0.00    +0.000 C 
BRANCH  13  17
ATOM     14  C   UNL     1      -0.187  10.713  21.933  0.00  0.00    +0.000 A 
ATOM     15  C   UNL     1       0.275   9.632  22.687  0.00  0.00    +0.000 A 
ATOM     16  C   UNL     1       0.976   8.591  22.067  0.00  0.00    +0.000 A 
ATOM     17  C   UNL     1       1.216   8.601  20.681  0.00  0.00    +0.000 A 
ATOM     18  C   UNL     1       0.746   9.693  19.936  0.00  0.00    +0.000 A 
ATOM     19  C   UNL     1       0.052  10.741  20.556  0.00  0.00    +0.000 A 
BRANCH  14  21
ATOM     20  N   UNL     1      -1.475  12.654  23.082  0.00  0.00    +0.000 NA
ATOM     21  C   UNL     1      -0.898  11.789  22.568  0.00  0.00    +0.000 C 
ENDBRANCH  14  21
ENDBRANCH  13  17
ENDBRANCH  12  13
ENDBRANCH   1  12
TORSDOF 6
ENDMDL
MODEL 2
REMARK VINA RESULT:      -6.4      5.612      8.238
REMARK  Name = 
REMARK  6 active torsions:
REMARK  status: ('A' for Active; 'I' for Inactive)
REMARK    1  A    between atoms: C_2  and  C_3
REMARK    2  A    between atoms: C_6  and  C_7
REMARK    3  A    between atoms: C_7  and  S_8
REMARK    4  A    between atoms: S_8  and  C_9
REMARK    5  A    between atoms: C_12  and  S_13
REMARK    6  A    between atoms: S_13  and  N_14
REMARK                            x       y       z     vdW  Elec       q    Type
REMARK                         _______ _______ _______ _____ _____    ______ ____
ROOT
ATOM      1  C   UNL     1       5.112   5.040  19.314  0.00  0.00    +0.000 A 
ATOM      2  C   UNL     1       4.124   6.006  19.287  0.00  0.00    +0.000 A 
ATOM      3  C   UNL     1       2.818   5.462  19.155  0.00  0.00    +0.000 A 
ATOM      4  C   UNL     1       2.835   4.084  19.096  0.00  0.00    +0.000 A 
ATOM      5  S   UNL     1       4.436   3.472  19.185  0.00  0.00    +0.000 S 
ENDROOT
BRANCH   4   6
ATOM      6  S   UNL     1       1.499   2.918  18.942  0.00  0.00    +0.000 S 
ATOM      7  O   UNL     1       0.892   2.836  20.250  0.00  0.00    +0.000 OA
ATOM      8  O   UNL     1       0.781   3.343  17.764  0.00  0.00    +0.000 OA
BRANCH   6   9
ATOM      9  N   UNL     1       2.165   1.423  18.595  0.00  0.00    +0.000 NA
ATOM     10  H   UNL     1       3.086   1.288  19.005  0.00  0.00    +0.000 HD
ATOM     11  H   UNL     1       2.046   1.144  17.624  0.00  0.00    +0.000 HD
ENDBRANCH   6   9
ENDBRANCH   4   6
BRANCH   1  12
ATOM     12  S   UNL     1       6.813   5.476  19.436  0.00  0.00    +0.000 S 
BRANCH  12  13
ATOM     13  C   UNL     1       7.238   6.445  17.963  0.00  0.00    +0.000 C 
BRANCH  13  17
ATOM     14  C   UNL     1       5.812   4.501  14.342  0.00  0.00    +0.000 A 
ATOM     15  C   UNL     1       6.842   3.927  15.092  0.00  0.00    +0.000 A 
ATOM     16  C   UNL     1       7.292   4.551  16.261  0.00  0.00    +0.000 A 
ATOM     17  C   UNL     1       6.735   5.767  16.696  0.00  0.00    +0.000 A 
ATOM     18  C   UNL     1       5.702   6.332  15.934  0.00  0.00    +0.000 A 
ATOM     19  C   UNL     1       5.243   5.704  14.767  0.00  0.00    +0.000 A 
BRANCH  14  21
ATOM     20  N   UNL     1       4.958   3.336  12.183  0.00  0.00    +0.000 NA
ATOM     21  C   UNL     1       5.341   3.857  13.146  0.00  0.00    +0.000 C 
ENDBRANCH  14  21
ENDBRANCH  13  17
ENDBRANCH  12  13
ENDBRANCH   1  12
TORSDOF 6
ENDMDL
MODEL 3
REMARK VINA RESULT:      -6.4      2.186      2.789
REMARK  Name = 
REMARK  6 active torsions:
REMARK  status: ('A' for Active; 'I' for Inactive)
REMARK    1  A    between atoms: C_2  and  C_3
REMARK    2  A    between atoms: C_6  and  C_7
REMARK    3  A    between atoms: C_7  and  S_8
REMARK    4  A    between atoms: S_8  and  C_9
REMARK    5  A    between atoms: C_12  and  S_13
REMARK    6  A    between atoms: S_13  and  N_14
REMARK                            x       y       z     vdW  Elec       q    Type
REMARK                         _______ _______ _______ _____ _____    ______ ____
ROOT
ATOM      1  C   UNL     1       3.383   4.517  18.536  0.00  0.00    +0.000 A 
ATOM      2  C   UNL     1       3.434   4.012  17.250  0.00  0.00    +0.000 A 
ATOM      3  C   UNL     1       4.727   4.101  16.669  0.00  0.00    +0.000 A 
ATOM      4  C   UNL     1       5.645   4.664  17.530  0.00  0.00    +0.000 A 
ATOM      5  S   UNL     1       4.920   5.092  19.027  0.00  0.00    +0.000 S 
ENDROOT
BRANCH   4   6
ATOM      6  S   UNL     1       7.380   4.998  17.315  0.00  0.00    +0.000 S 
ATOM      7  O   UNL     1       7.984   4.805  18.612  0.00  0.00    +0.000 OA
ATOM      8  O   UNL     1       7.753   4.232  16.148  0.00  0.00    +0.000 OA
BRANCH   6   9
ATOM      9  N   UNL     1       7.543   6.612  16.911  0.00  0.00    +0.000 NA
ATOM     10  H   UNL     1       7.304   6.811  15.942  0.00  0.00    +0.000 HD
ATOM     11  H   UNL     1       8.395   7.035  17.271  0.00  0.00    +0.000 HD
ENDBRANCH   6   9
ENDBRANCH   4   6
BRANCH   1  12
ATOM     12  S   UNL     1       1.878   4.546  19.448  0.00  0.00    +0.000 S 
BRANCH  12  13
ATOM     13  C   UNL     1       2.075   5.747  20.793  0.00  0.00    +0.000 C 
BRANCH  13  17
ATOM     14  C   UNL     1       1.061   9.762  19.461  0.00  0.00    +0.000 A 
ATOM     15  C   UNL     1       1.756   8.894  18.616  0.00  0.00    +0.000 A 
ATOM     16  C   UNL     1       2.072   7.599  19.045  0.00  0.00    +0.000 A 
ATOM     17  C   UNL     1       1.717   7.152  20.330  0.00  0.00    +0.000 A 
ATOM     18  C   UNL     1       1.020   8.035  21.169  0.00  0.00    +0.000 A 
ATOM     19  C   UNL     1       0.694   9.329  20.738  0.00  0.00    +0.000 A 
BRANCH  14  21
ATOM     20  N   UNL     1       0.451  12.158  18.664  0.00  0.00    +0.000 NA
ATOM     21  C   UNL     1       0.725  11.089  19.020  0.00  0.00    +0.000 C 
ENDBRANCH  14  21
ENDBRANCH  13  17
ENDBRANCH  12  13
ENDBRANCH   1  12
TORSDOF 6
ENDMDL
MODEL 4
REMARK VINA RESULT:      -6.4      2.026      2.555
REMARK  Name = 
REMARK  6 active torsions:
REMARK  status: ('A' for Active; 'I' for Inactive)
REMARK    1  A    between atoms: C_2  and  C_3
REMARK    2  A    between atoms: C_6  and  C_7
REMARK    3  A    between atoms: C_7  and  S_8
REMARK    4  A    between atoms: S_8  and  C_9
REMARK    5  A    between atoms: C_12  and  S_13
REMARK    6  A    between atoms: S_13  and  N_14
REMARK                            x       y       z     vdW  Elec       q    Type
REMARK                         _______ _______ _______ _____ _____    ______ ____
ROOT
ATOM      1  C   UNL     1       3.449   4.566  18.350  0.00  0.00    +0.000 A 
ATOM      2  C   UNL     1       3.415   3.961  17.108  0.00  0.00    +0.000 A 
ATOM      3  C   UNL     1       4.656   4.034  16.419  0.00  0.00    +0.000 A 
ATOM      4  C   UNL     1       5.620   4.687  17.158  0.00  0.00    +0.000 A 
ATOM      5  S   UNL     1       5.002   5.215  18.670  0.00  0.00    +0.000 S 
ENDROOT
BRANCH   4   6
ATOM      6  S   UNL     1       7.322   5.043  16.779  0.00  0.00    +0.000 S 
ATOM      7  O   UNL     1       7.518   4.628  15.409  0.00  0.00    +0.000 OA
ATOM      8  O   UNL     1       7.515   6.402  17.227  0.00  0.00    +0.000 OA
BRANCH   6   9
ATOM      9  N   UNL     1       8.276   4.070  17.748  0.00  0.00    +0.000 NA
ATOM     10  H   UNL     1       8.804   3.375  17.224  0.00  0.00    +0.000 HD
ATOM     11  H   UNL     1       7.805   3.752  18.590  0.00  0.00    +0.000 HD
ENDBRANCH   6   9
ENDBRANCH   4   6
BRANCH   1  12
ATOM     12  S   UNL     1       2.020   4.632  19.375  0.00  0.00    +0.000 S 
BRANCH  12  13
ATOM     13  C   UNL     1       2.326   5.870  20.664  0.00  0.00    +0.000 C 
BRANCH  13  17
ATOM     14  C   UNL     1       0.997   9.812  19.390  0.00  0.00    +0.000 A 
ATOM     15  C   UNL     1       1.724   8.997  18.518  0.00  0.00    +0.000 A 
ATOM     16  C   UNL     1       2.142   7.726  18.928  0.00  0.00    +0.000 A 
ATOM     17  C   UNL     1       1.857   7.250  20.221  0.00  0.00    +0.000 A 
ATOM     18  C   UNL     1       1.128   8.078  21.086  0.00  0.00    +0.000 A 
ATOM     19  C   UNL     1       0.700   9.348  20.674  0.00  0.00    +0.000 A 
BRANCH  14  21
ATOM     20  N   UNL     1       0.203  12.164  18.624  0.00  0.00    +0.000 NA
ATOM     21  C   UNL     1       0.557  11.114  18.968  0.00  0.00    +0.000 C 
ENDBRANCH  14  21
ENDBRANCH  13  17
ENDBRANCH  12  13
ENDBRANCH   1  12
TORSDOF 6
ENDMDL
MODEL 5
REMARK VINA RESULT:      -6.3      1.964      2.611
REMARK  Name = 
REMARK  6 active torsions:
REMARK  status: ('A' for Active; 'I' for Inactive)
REMARK    1  A    between atoms: C_2  and  C_3
REMARK    2  A    between atoms: C_6  and  C_7
REMARK    3  A    between atoms: C_7  and  S_8
REMARK    4  A    between atoms: S_8  and  C_9
REMARK    5  A    between atoms: C_12  and  S_13
REMARK    6  A    between atoms: S_13  and  N_14
REMARK                            x       y       z     vdW  Elec       q    Type
REMARK                         _______ _______ _______ _____ _____    ______ ____
ROOT
ATOM      1  C   UNL     1       3.435   5.048  17.859  0.00  0.00    +0.000 A 
ATOM      2  C   UNL     1       3.634   3.864  17.175  0.00  0.00    +0.000 A 
ATOM      3  C   UNL     1       4.921   3.774  16.581  0.00  0.00    +0.000 A 
ATOM      4  C   UNL     1       5.688   4.892  16.835  0.00  0.00    +0.000 A 
ATOM      5  S   UNL     1       4.828   6.042  17.776  0.00  0.00    +0.000 S 
ENDROOT
BRANCH   4   6
ATOM      6  S   UNL     1       7.351   5.290  16.342  0.00  0.00    +0.000 S 
ATOM      7  O   UNL     1       7.544   6.680  16.684  0.00  0.00    +0.000 OA
ATOM      8  O   UNL     1       8.155   4.223  16.890  0.00  0.00    +0.000 OA
BRANCH   6   9
ATOM      9  N   UNL     1       7.436   5.158  14.677  0.00  0.00    +0.000 NA
ATOM     10  H   UNL     1       6.639   5.572  14.200  0.00  0.00    +0.000 HD
ATOM     11  H   UNL     1       7.739   4.241  14.359  0.00  0.00    +0.000 HD
ENDBRANCH   6   9
ENDBRANCH   4   6
BRANCH   1  12
ATOM     12  S   UNL     1       1.902   5.402  18.649  0.00  0.00    +0.000 S 
BRANCH  12  13
ATOM     13  C   UNL     1       2.245   6.523  20.033  0.00  0.00    +0.000 C 
BRANCH  13  17
ATOM     14  C   UNL     1       0.876  10.557  19.149  0.00  0.00    +0.000 A 
ATOM     15  C   UNL     1       1.514   9.797  18.165  0.00  0.00    +0.000 A 
ATOM     16  C   UNL     1       1.944   8.496  18.451  0.00  0.00    +0.000 A 
ATOM     17  C   UNL     1       1.762   7.934  19.727  0.00  0.00    +0.000 A 
ATOM     18  C   UNL     1       1.122   8.708  20.706  0.00  0.00    +0.000 A 
ATOM     19  C   UNL     1       0.681  10.008  20.420  0.00  0.00    +0.000 A 
BRANCH  14  21
ATOM     20  N   UNL     1       0.055  12.964  18.622  0.00  0.00    +0.000 NA
ATOM     21  C   UNL     1       0.423  11.890  18.856  0.00  0.00    +0.000 C 
ENDBRANCH  14  21
ENDBRANCH  13  17
ENDBRANCH  12  13
ENDBRANCH   1  12
TORSDOF 6
ENDMDL
MODEL 6
REMARK VINA RESULT:      -6.3      2.236      2.552
REMARK  Name = 
REMARK  6 active torsions:
REMARK  status: ('A' for Active; 'I' for Inactive)
REMARK    1  A    between atoms: C_2  and  C_3
REMARK    2  A    between atoms: C_6  and  C_7
REMARK    3  A    between atoms: C_7  and  S_8
REMARK    4  A    between atoms: S_8  and  C_9
REMARK    5  A    between atoms: C_12  and  S_13
REMARK    6  A    between atoms: S_13  and  N_14
REMARK                            x       y       z     vdW  Elec       q    Type
REMARK                         _______ _______ _______ _____ _____    ______ ____
ROOT
ATOM      1  C   UNL     1       3.475   4.687  18.540  0.00  0.00    +0.000 A 
ATOM      2  C   UNL     1       3.594   4.345  17.206  0.00  0.00    +0.000 A 
ATOM      3  C   UNL     1       4.906   4.540  16.697  0.00  0.00    +0.000 A 
ATOM      4  C   UNL     1       5.770   5.017  17.660  0.00  0.00    +0.000 A 
ATOM      5  S   UNL     1       4.971   5.238  19.164  0.00  0.00    +0.000 S 
ENDROOT
BRANCH   4   6
ATOM      6  S   UNL     1       7.500   5.422  17.564  0.00  0.00    +0.000 S 
ATOM      7  O   UNL     1       8.195   4.161  17.446  0.00  0.00    +0.000 OA
ATOM      8  O   UNL     1       7.574   6.460  16.564  0.00  0.00    +0.000 OA
BRANCH   6   9
ATOM      9  N   UNL     1       7.945   6.114  19.020  0.00  0.00    +0.000 NA
ATOM     10  H   UNL     1       8.561   5.525  19.574  0.00  0.00    +0.000 HD
ATOM     11  H   UNL     1       7.172   6.561  19.508  0.00  0.00    +0.000 HD
ENDBRANCH   6   9
ENDBRANCH   4   6
BRANCH   1  12
ATOM     12  S   UNL     1       1.934   4.563  19.381  0.00  0.00    +0.000 S 
BRANCH  12  13
ATOM     13  C   UNL     1       1.975   5.723  20.774  0.00  0.00    +0.000 C 
BRANCH  13  17
ATOM     14  C   UNL     1       1.084   9.778  19.471  0.00  0.00    +0.000 A 
ATOM     15  C   UNL     1       0.705   9.347  20.745  0.00  0.00    +0.000 A 
ATOM     16  C   UNL     1       1.002   8.045  21.164  0.00  0.00    +0.000 A 
ATOM     17  C   UNL     1       1.666   7.142  20.315  0.00  0.00    +0.000 A 
ATOM     18  C   UNL     1       2.040   7.587  19.038  0.00  0.00    +0.000 A 
ATOM     19  C   UNL     1       1.753   8.894  18.620  0.00  0.00    +0.000 A 
BRANCH  14  21
ATOM     20  N   UNL     1       0.553  12.200  18.699  0.00  0.00    +0.000 NA
ATOM     21  C   UNL     1       0.790  11.118  19.042  0.00  0.00    +0.000 C 
ENDBRANCH  14  21
ENDBRANCH  13  17
ENDBRANCH  12  13
ENDBRANCH   1  12
TORSDOF 6
ENDMDL
MODEL 7
REMARK VINA RESULT:      -6.2      1.343      1.464
REMARK  Name = 
REMARK  6 active torsions:
REMARK  status: ('A' for Active; 'I' for Inactive)
REMARK    1  A    between atoms: C_2  and  C_3
REMARK    2  A    between atoms: C_6  and  C_7
REMARK    3  A    between atoms: C_7  and  S_8
REMARK    4  A    between atoms: S_8  and  C_9
REMARK    5  A    between atoms: C_12  and  S_13
REMARK    6  A    between atoms: S_13  and  N_14
REMARK                            x       y       z     vdW  Elec       q    Type
REMARK                         _______ _______ _______ _____ _____    ______ ____
ROOT
ATOM      1  C   UNL     1       3.661   5.563  19.009  0.00  0.00    +0.000 A 
ATOM      2  C   UNL     1       4.217   4.412  19.535  0.00  0.00    +0.000 A 
ATOM      3  C   UNL     1       5.365   3.974  18.822  0.00  0.00    +0.000 A 
ATOM      4  C   UNL     1       5.671   4.809  17.769  0.00  0.00    +0.000 A 
ATOM      5  S   UNL     1       4.551   6.104  17.649  0.00  0.00    +0.000 S 
ENDROOT
BRANCH   4   6
ATOM      6  S   UNL     1       6.990   4.730  16.576  0.00  0.00    +0.000 S 
ATOM      7  O   UNL     1       8.129   4.189  17.281  0.00  0.00    +0.000 OA
ATOM      8  O   UNL     1       6.398   4.091  15.424  0.00  0.00    +0.000 OA
BRANCH   6   9
ATOM      9  N   UNL     1       7.366   6.296  16.126  0.00  0.00    +0.000 NA
ATOM     10  H   UNL     1       6.803   6.997  16.603  0.00  0.00    +0.000 HD
ATOM     11  H   UNL     1       7.492   6.409  15.123  0.00  0.00    +0.000 HD
ENDBRANCH   6   9
ENDBRANCH   4   6
BRANCH   1  12
ATOM     12  S   UNL     1       2.209   6.277  19.703  0.00  0.00    +0.000 S 
BRANCH  12  13
ATOM     13  C   UNL     1       2.133   8.004  19.155  0.00  0.00    +0.000 C 
BRANCH  13  17
ATOM     14  C   UNL     1      -0.389  10.363  21.803  0.00  0.00    +0.000 A 
ATOM     15  C   UNL     1       0.320   9.265  22.297  0.00  0.00    +0.000 A 
ATOM     16  C   UNL     1       1.137   8.514  21.444  0.00  0.00    +0.000 A 
ATOM     17  C   UNL     1       1.250   8.833  20.079  0.00  0.00    +0.000 A 
ATOM     18  C   UNL     1       0.533   9.938  19.596  0.00  0.00    +0.000 A 
ATOM     19  C   UNL     1      -0.278  10.697  20.450  0.00  0.00    +0.000 A 
BRANCH  14  21
ATOM     20  N   UNL     1      -1.889  11.772  23.387  0.00  0.00    +0.000 NA
ATOM     21  C   UNL     1      -1.221  11.143  22.679  0.00  0.00    +0.000 C 
ENDBRANCH  14  21
ENDBRANCH  13  17
ENDBRANCH  12  13
ENDBRANCH   1  12
TORSDOF 6
ENDMDL
MODEL 8
REMARK VINA RESULT:      -6.2      3.336      4.098
REMARK  Name = 
REMARK  6 active torsions:
REMARK  status: ('A' for Active; 'I' for Inactive)
REMARK    1  A    between atoms: C_2  and  C_3
REMARK    2  A    between atoms: C_6  and  C_7
REMARK    3  A    between atoms: C_7  and  S_8
REMARK    4  A    between atoms: S_8  and  C_9
REMARK    5  A    between atoms: C_12  and  S_13
REMARK    6  A    between atoms: S_13  and  N_14
REMARK                            x       y       z     vdW  Elec       q    Type
REMARK                         _______ _______ _______ _____ _____    ______ ____
ROOT
ATOM      1  C   UNL     1       4.296   3.342  18.841  0.00  0.00    +0.000 A 
ATOM      2  C   UNL     1       4.147   2.962  17.520  0.00  0.00    +0.000 A 
ATOM      3  C   UNL     1       4.944   3.730  16.629  0.00  0.00    +0.000 A 
ATOM      4  C   UNL     1       5.697   4.676  17.290  0.00  0.00    +0.000 A 
ATOM      5  S   UNL     1       5.414   4.631  18.983  0.00  0.00    +0.000 S 
ENDROOT
BRANCH   4   6
ATOM      6  S   UNL     1       6.853   5.877  16.667  0.00  0.00    +0.000 S 
ATOM      7  O   UNL     1       6.067   7.034  16.307  0.00  0.00    +0.000 OA
ATOM      8  O   UNL     1       7.905   5.914  17.655  0.00  0.00    +0.000 OA
BRANCH   6   9
ATOM      9  N   UNL     1       7.523   5.261  15.264  0.00  0.00    +0.000 NA
ATOM     10  H   UNL     1       6.831   4.892  14.616  0.00  0.00    +0.000 HD
ATOM     11  H   UNL     1       8.351   4.693  15.427  0.00  0.00    +0.000 HD
ENDBRANCH   6   9
ENDBRANCH   4   6
BRANCH   1  12
ATOM     12  S   UNL     1       3.383   2.558  20.125  0.00  0.00    +0.000 S 
BRANCH  12  13
ATOM     13  C   UNL     1       1.797   3.424  20.279  0.00  0.00    +0.000 C 
BRANCH  13  17
ATOM     14  C   UNL     1       2.031   7.438  18.616  0.00  0.00    +0.000 A 
ATOM     15  C   UNL     1       2.104   7.242  19.998  0.00  0.00    +0.000 A 
ATOM     16  C   UNL     1       2.038   5.948  20.528  0.00  0.00    +0.000 A 
ATOM     17  C   UNL     1       1.881   4.828  19.693  0.00  0.00    +0.000 A 
ATOM     18  C   UNL     1       1.808   5.039  18.308  0.00  0.00    +0.000 A 
ATOM     19  C   UNL     1       1.884   6.333  17.774  0.00  0.00    +0.000 A 
BRANCH  14  21
ATOM     20  N   UNL     1       2.174   9.836  17.628  0.00  0.00    +0.000 NA
ATOM     21  C   UNL     1       2.110   8.765  18.067  0.00  0.00    +0.000 C 
ENDBRANCH  14  21
ENDBRANCH  13  17
ENDBRANCH  12  13
ENDBRANCH   1  12
TORSDOF 6
ENDMDL
MODEL 9
REMARK VINA RESULT:      -6.2      1.240      1.351
REMARK  Name = 
REMARK  6 active torsions:
REMARK  status: ('A' for Active; 'I' for Inactive)
REMARK    1  A    between atoms: C_2  and  C_3
REMARK    2  A    between atoms: C_6  and  C_7
REMARK    3  A    between atoms: C_7  and  S_8
REMARK    4  A    between atoms: S_8  and  C_9
REMARK    5  A    between atoms: C_12  and  S_13
REMARK    6  A    between atoms: S_13  and  N_14
REMARK                            x       y       z     vdW  Elec       q    Type
REMARK                         _______ _______ _______ _____ _____    ______ ____
ROOT
ATOM      1  C   UNL     1       3.625   5.459  18.492  0.00  0.00    +0.000 A 
ATOM      2  C   UNL     1       3.686   4.081  18.393  0.00  0.00    +0.000 A 
ATOM      3  C   UNL     1       4.648   3.634  17.447  0.00  0.00    +0.000 A 
ATOM      4  C   UNL     1       5.313   4.683  16.849  0.00  0.00    +0.000 A 
ATOM      5  S   UNL     1       4.749   6.197  17.431  0.00  0.00    +0.000 S 
ENDROOT
BRANCH   4   6
ATOM      6  S   UNL     1       6.599   4.686  15.619  0.00  0.00    +0.000 S 
ATOM      7  O   UNL     1       6.425   5.907  14.867  0.00  0.00    +0.000 OA
ATOM      8  O   UNL     1       7.803   4.377  16.354  0.00  0.00    +0.000 OA
BRANCH   6   9
ATOM      9  N   UNL     1       6.318   3.404  14.582  0.00  0.00    +0.000 NA
ATOM     10  H   UNL     1       6.721   3.538  13.658  0.00  0.00    +0.000 HD
ATOM     11  H   UNL     1       5.364   3.053  14.623  0.00  0.00    +0.000 HD
ENDBRANCH   6   9
ENDBRANCH   4   6
BRANCH   1  12
ATOM     12  S   UNL     1       2.482   6.247  19.573  0.00  0.00    +0.000 S 
BRANCH  12  13
ATOM     13  C   UNL     1       2.159   7.906  18.915  0.00  0.00    +0.000 C 
BRANCH  13  17
ATOM     14  C   UNL     1      -0.115  10.290  21.756  0.00  0.00    +0.000 A 
ATOM     15  C   UNL     1       0.543   9.131  22.175  0.00  0.00    +0.000 A 
ATOM     16  C   UNL     1       1.281   8.372  21.260  0.00  0.00    +0.000 A 
ATOM     17  C   UNL     1       1.363   8.744  19.907  0.00  0.00    +0.000 A 
ATOM     18  C   UNL     1       0.698   9.909  19.498  0.00  0.00    +0.000 A 
ATOM     19  C   UNL     1      -0.034  10.677  20.415  0.00  0.00    +0.000 A 
BRANCH  14  21
ATOM     20  N   UNL     1      -1.474  11.712  23.453  0.00  0.00    +0.000 NA
ATOM     21  C   UNL     1      -0.866  11.079  22.695  0.00  0.00    +0.000 C 
ENDBRANCH  14  21
ENDBRANCH  13  17
ENDBRANCH  12  13
ENDBRANCH   1  12
TORSDOF 6
ENDMDL
