MODEL 1
REMARK VINA RESULT:      -6.8      0.000      0.000
REMARK  Name = 
REMARK  0 active torsions:
REMARK  status: ('A' for Active; 'I' for Inactive)
REMARK                            x       y       z     vdW  Elec       q    Type
REMARK                         _______ _______ _______ _____ _____    ______ ____
ROOT
ATOM      1  C   UNL     1       8.239   7.020  18.678  0.00  0.00    +0.000 A 
ATOM      2  C   UNL     1       7.660   7.612  17.572  0.00  0.00    +0.000 A 
ATOM      3  N   UNL     1       6.534   7.160  16.988  0.00  0.00    +0.000 NA
ATOM      4  C   UNL     1       5.949   6.060  17.530  0.00  0.00    +0.000 A 
ATOM      5  C   UNL     1       6.456   5.385  18.651  0.00  0.00    +0.000 A 
ATOM      6  C   UNL     1       7.627   5.893  19.223  0.00  0.00    +0.000 A 
ATOM      7  N   UNL     1       5.843   4.254  19.197  0.00  0.00    +0.000 N 
ATOM      8  C   UNL     1       4.680   3.627  18.747  0.00  0.00    +0.000 A 
ATOM      9  N   UNL     1       4.284   2.537  19.448  0.00  0.00    +0.000 NA
ATOM     10  C   UNL     1       3.160   1.906  19.038  0.00  0.00    +0.000 A 
ATOM     11  C   UNL     1       2.400   2.308  17.955  0.00  0.00    +0.000 A 
ATOM     12  C   UNL     1       2.817   3.427  17.246  0.00  0.00    +0.000 A 
ATOM     13  C   UNL     1       3.972   4.107  17.636  0.00  0.00    +0.000 A 
ATOM     14  S   UNL     1       4.466   5.533  16.695  0.00  0.00    +0.000 S 
ATOM     15  H   UNL     1       6.243   3.799  20.004  0.00  0.00    +0.000 HD
ENDROOT
TORSDOF 0
ENDMDL
MODEL 2
REMARK VINA RESULT:      -6.6      2.162      2.764
REMARK  Name = 
REMARK  0 active torsions:
REMARK  status: ('A' for Active; 'I' for Inactive)
REMARK                            x       y       z     vdW  Elec       q    Type
REMARK                         _______ _______ _______ _____ _____    ______ ____
ROOT
ATOM      1  C   UNL     1       6.831   4.839  15.713  0.00  0.00    +0.000 A 
ATOM      2  C   UNL     1       7.089   5.755  16.715  0.00  0.00    +0.000 A 
ATOM      3  N   UNL     1       6.301   5.922  17.794  0.00  0.00    +0.000 NA
ATOM      4  C   UNL     1       5.194   5.139  17.886  0.00  0.00    +0.000 A 
ATOM      5  C   UNL     1       4.842   4.181  16.924  0.00  0.00    +0.000 A 
ATOM      6  C   UNL     1       5.692   4.043  15.822  0.00  0.00    +0.000 A 
ATOM      7  N   UNL     1       3.699   3.382  17.032  0.00  0.00    +0.000 N 
ATOM      8  C   UNL     1       2.756   3.397  18.060  0.00  0.00    +0.000 A 
ATOM      9  N   UNL     1       1.728   2.523  17.936  0.00  0.00    +0.000 NA
ATOM     10  C   UNL     1       0.796   2.512  18.916  0.00  0.00    +0.000 A 
ATOM     11  C   UNL     1       0.834   3.334  20.027  0.00  0.00    +0.000 A 
ATOM     12  C   UNL     1       1.893   4.225  20.142  0.00  0.00    +0.000 A 
ATOM     13  C   UNL     1       2.877   4.269  19.152  0.00  0.00    +0.000 A 
ATOM     14  S   UNL     1       4.211   5.428  19.343  0.00  0.00    +0.000 S 
ATOM     15  H   UNL     1       3.484   2.705  16.315  0.00  0.00    +0.000 HD
ENDROOT
TORSDOF 0
ENDMDL
MODEL 3
REMARK VINA RESULT:      -6.6      1.353      5.004
REMARK  Name = 
REMARK  0 active torsions:
REMARK  status: ('A' for Active; 'I' for Inactive)
REMARK                            x       y       z     vdW  Elec       q    Type
REMARK                         _______ _______ _______ _____ _____    ______ ____
ROOT
ATOM      1  C   UNL     1       1.878   2.231  19.585  0.00  0.00    +0.000 A 
ATOM      2  C   UNL     1       1.320   2.866  18.492  0.00  0.00    +0.000 A 
ATOM      3  N   UNL     1       1.947   3.829  17.790  0.00  0.00    +0.000 NA
ATOM      4  C   UNL     1       3.194   4.184  18.193  0.00  0.00    +0.000 A 
ATOM      5  C   UNL     1       3.849   3.602  19.290  0.00  0.00    +0.000 A 
ATOM      6  C   UNL     1       3.159   2.605  19.987  0.00  0.00    +0.000 A 
ATOM      7  N   UNL     1       5.134   3.978  19.693  0.00  0.00    +0.000 N 
ATOM      8  C   UNL     1       5.949   4.949  19.109  0.00  0.00    +0.000 A 
ATOM      9  N   UNL     1       7.160   5.133  19.688  0.00  0.00    +0.000 NA
ATOM     10  C   UNL     1       7.975   6.066  19.145  0.00  0.00    +0.000 A 
ATOM     11  C   UNL     1       7.645   6.834  18.044  0.00  0.00    +0.000 A 
ATOM     12  C   UNL     1       6.401   6.635  17.461  0.00  0.00    +0.000 A 
ATOM     13  C   UNL     1       5.529   5.681  17.990  0.00  0.00    +0.000 A 
ATOM     14  S   UNL     1       3.946   5.464  17.208  0.00  0.00    +0.000 S 
ATOM     15  H   UNL     1       5.566   3.533  20.488  0.00  0.00    +0.000 HD
ENDROOT
TORSDOF 0
ENDMDL
MODEL 4
REMARK VINA RESULT:      -6.5      2.068      4.977
REMARK  Name = 
REMARK  0 active torsions:
REMARK  status: ('A' for Active; 'I' for Inactive)
REMARK                            x       y       z     vdW  Elec       q    Type
REMARK                         _______ _______ _______ _____ _____    ______ ____
ROOT
ATOM      1  C   UNL     1       1.369   3.103  21.050  0.00  0.00    +0.000 A 
ATOM      2  C   UNL     1       0.669   2.927  19.871  0.00  0.00    +0.000 A 
ATOM      3  N   UNL     1       1.217   3.074  18.650  0.00  0.00    +0.000 NA
ATOM      4  C   UNL     1       2.531   3.413  18.592  0.00  0.00    +0.000 A 
ATOM      5  C   UNL     1       3.330   3.616  19.728  0.00  0.00    +0.000 A 
ATOM      6  C   UNL     1       2.717   3.451  20.974  0.00  0.00    +0.000 A 
ATOM      7  N   UNL     1       4.682   3.965  19.652  0.00  0.00    +0.000 N 
ATOM      8  C   UNL     1       5.436   4.167  18.496  0.00  0.00    +0.000 A 
ATOM      9  N   UNL     1       6.734   4.503  18.685  0.00  0.00    +0.000 NA
ATOM     10  C   UNL     1       7.493   4.705  17.583  0.00  0.00    +0.000 A 
ATOM     11  C   UNL     1       7.022   4.587  16.289  0.00  0.00    +0.000 A 
ATOM     12  C   UNL     1       5.689   4.242  16.109  0.00  0.00    +0.000 A 
ATOM     13  C   UNL     1       4.871   4.025  17.220  0.00  0.00    +0.000 A 
ATOM     14  S   UNL     1       3.171   3.585  16.938  0.00  0.00    +0.000 S 
ATOM     15  H   UNL     1       5.218   4.101  20.496  0.00  0.00    +0.000 HD
ENDROOT
TORSDOF 0
ENDMDL
MODEL 5
REMARK VINA RESULT:      -6.5      1.964      5.009
REMARK  Name = 
REMARK  0 active torsions:
REMARK  status: ('A' for Active; 'I' for Inactive)
REMARK                            x       y       z     vdW  Elec       q    Type
REMARK                         _______ _______ _______ _____ _____    ______ ____
ROOT
ATOM      1  C   UNL     1       1.771   2.605  21.008  0.00  0.00    +0.000 A 
ATOM      2  C   UNL     1       0.945   3.604  20.528  0.00  0.00    +0.000 A 
ATOM      3  N   UNL     1       1.371   4.606  19.734  0.00  0.00    +0.000 NA
ATOM      4  C   UNL     1       2.686   4.619  19.397  0.00  0.00    +0.000 A 
ATOM      5  C   UNL     1       3.607   3.653  19.832  0.00  0.00    +0.000 A 
ATOM      6  C   UNL     1       3.119   2.632  20.654  0.00  0.00    +0.000 A 
ATOM      7  N   UNL     1       4.959   3.680  19.476  0.00  0.00    +0.000 N 
ATOM      8  C   UNL     1       5.600   4.623  18.671  0.00  0.00    +0.000 A 
ATOM      9  N   UNL     1       6.926   4.432  18.474  0.00  0.00    +0.000 NA
ATOM     10  C   UNL     1       7.577   5.329  17.697  0.00  0.00    +0.000 A 
ATOM     11  C   UNL     1       6.969   6.417  17.099  0.00  0.00    +0.000 A 
ATOM     12  C   UNL     1       5.609   6.600  17.310  0.00  0.00    +0.000 A 
ATOM     13  C   UNL     1       4.900   5.698  18.105  0.00  0.00    +0.000 A 
ATOM     14  S   UNL     1       3.160   5.976  18.345  0.00  0.00    +0.000 S 
ATOM     15  H   UNL     1       5.586   2.965  19.813  0.00  0.00    +0.000 HD
ENDROOT
TORSDOF 0
ENDMDL
MODEL 6
REMARK VINA RESULT:      -6.3      2.021      2.338
REMARK  Name = 
REMARK  0 active torsions:
REMARK  status: ('A' for Active; 'I' for Inactive)
REMARK                            x       y       z     vdW  Elec       q    Type
REMARK                         _______ _______ _______ _____ _____    ______ ____
ROOT
ATOM      1  C   UNL     1       6.977   5.232  16.524  0.00  0.00    +0.000 A 
ATOM      2  C   UNL     1       6.007   6.087  16.035  0.00  0.00    +0.000 A 
ATOM      3  N   UNL     1       4.751   6.145  16.517  0.00  0.00    +0.000 NA
ATOM      4  C   UNL     1       4.438   5.309  17.541  0.00  0.00    +0.000 A 
ATOM      5  C   UNL     1       5.347   4.404  18.109  0.00  0.00    +0.000 A 
ATOM      6  C   UNL     1       6.640   4.381  17.575  0.00  0.00    +0.000 A 
ATOM      7  N   UNL     1       5.009   3.550  19.163  0.00  0.00    +0.000 N 
ATOM      8  C   UNL     1       3.772   3.449  19.802  0.00  0.00    +0.000 A 
ATOM      9  N   UNL     1       3.693   2.538  20.801  0.00  0.00    +0.000 NA
ATOM     10  C   UNL     1       2.508   2.417  21.442  0.00  0.00    +0.000 A 
ATOM     11  C   UNL     1       1.385   3.163  21.137  0.00  0.00    +0.000 A 
ATOM     12  C   UNL     1       1.480   4.093  20.110  0.00  0.00    +0.000 A 
ATOM     13  C   UNL     1       2.686   4.250  19.423  0.00  0.00    +0.000 A 
ATOM     14  S   UNL     1       2.758   5.453  18.116  0.00  0.00    +0.000 S 
ATOM     15  H   UNL     1       5.695   2.914  19.540  0.00  0.00    +0.000 HD
ENDROOT
TORSDOF 0
ENDMDL
MODEL 7
REMARK VINA RESULT:      -6.3      2.544      4.650
REMARK  Name = 
REMARK  0 active torsions:
REMARK  status: ('A' for Active; 'I' for Inactive)
REMARK                            x       y       z     vdW  Elec       q    Type
REMARK                         _______ _______ _______ _____ _____    ______ ____
ROOT
ATOM      1  C   UNL     1       2.487   2.907  21.181  0.00  0.00    +0.000 A 
ATOM      2  C   UNL     1       2.079   4.222  21.292  0.00  0.00    +0.000 A 
ATOM      3  N   UNL     1       2.416   5.184  20.412  0.00  0.00    +0.000 NA
ATOM      4  C   UNL     1       3.200   4.824  19.363  0.00  0.00    +0.000 A 
ATOM      5  C   UNL     1       3.669   3.517  19.160  0.00  0.00    +0.000 A 
ATOM      6  C   UNL     1       3.292   2.552  20.100  0.00  0.00    +0.000 A 
ATOM      7  N   UNL     1       4.476   3.160  18.075  0.00  0.00    +0.000 N 
ATOM      8  C   UNL     1       4.938   3.998  17.058  0.00  0.00    +0.000 A 
ATOM      9  N   UNL     1       5.713   3.413  16.114  0.00  0.00    +0.000 NA
ATOM     10  C   UNL     1       6.176   4.197  15.114  0.00  0.00    +0.000 A 
ATOM     11  C   UNL     1       5.904   5.548  15.002  0.00  0.00    +0.000 A 
ATOM     12  C   UNL     1       5.107   6.134  15.977  0.00  0.00    +0.000 A 
ATOM     13  C   UNL     1       4.609   5.360  17.027  0.00  0.00    +0.000 A 
ATOM     14  S   UNL     1       3.595   6.158  18.251  0.00  0.00    +0.000 S 
ATOM     15  H   UNL     1       4.791   2.208  17.969  0.00  0.00    +0.000 HD
ENDROOT
TORSDOF 0
ENDMDL
MODEL 8
REMARK VINA RESULT:      -6.3      2.413      2.831
REMARK  Name = 
REMARK  0 active torsions:
REMARK  status: ('A' for Active; 'I' for Inactive)
REMARK                            x       y       z     vdW  Elec       q    Type
REMARK                         _______ _______ _______ _____ _____    ______ ____
ROOT
ATOM      1  C   UNL     1       6.270   4.550  15.191  0.00  0.00    +0.000 A 
ATOM      2  C   UNL     1       5.899   5.874  15.329  0.00  0.00    +0.000 A 
ATOM      3  N   UNL     1       4.985   6.303  16.220  0.00  0.00    +0.000 NA
ATOM      4  C   UNL     1       4.405   5.370  17.018  0.00  0.00    +0.000 A 
ATOM      5  C   UNL     1       4.710   4.001  16.957  0.00  0.00    +0.000 A 
ATOM      6  C   UNL     1       5.667   3.604  16.017  0.00  0.00    +0.000 A 
ATOM      7  N   UNL     1       4.105   3.052  17.786  0.00  0.00    +0.000 N 
ATOM      8  C   UNL     1       3.139   3.284  18.767  0.00  0.00    +0.000 A 
ATOM      9  N   UNL     1       2.704   2.192  19.440  0.00  0.00    +0.000 NA
ATOM     10  C   UNL     1       1.768   2.382  20.398  0.00  0.00    +0.000 A 
ATOM     11  C   UNL     1       1.238   3.617  20.726  0.00  0.00    +0.000 A 
ATOM     12  C   UNL     1       1.693   4.727  20.028  0.00  0.00    +0.000 A 
ATOM     13  C   UNL     1       2.659   4.574  19.031  0.00  0.00    +0.000 A 
ATOM     14  S   UNL     1       3.210   6.026  18.164  0.00  0.00    +0.000 S 
ATOM     15  H   UNL     1       4.355   2.078  17.708  0.00  0.00    +0.000 HD
ENDROOT
TORSDOF 0
ENDMDL
MODEL 9
REMARK VINA RESULT:      -6.3      2.037      2.263
REMARK  Name = 
REMARK  0 active torsions:
REMARK  status: ('A' for Active; 'I' for Inactive)
REMARK                            x       y       z     vdW  Elec       q    Type
REMARK                         _______ _______ _______ _____ _____    ______ ____
ROOT
ATOM      1  C   UNL     1       7.573   5.590  17.965  0.00  0.00    +0.000 A 
ATOM      2  C   UNL     1       7.308   4.912  16.791  0.00  0.00    +0.000 A 
ATOM      3  N   UNL     1       6.158   4.251  16.554  0.00  0.00    +0.000 NA
ATOM      4  C   UNL     1       5.219   4.262  17.535  0.00  0.00    +0.000 A 
ATOM      5  C   UNL     1       5.389   4.919  18.763  0.00  0.00    +0.000 A 
ATOM      6  C   UNL     1       6.599   5.592  18.963  0.00  0.00    +0.000 A 
ATOM      7  N   UNL     1       4.412   4.921  19.764  0.00  0.00    +0.000 N 
ATOM      8  C   UNL     1       3.163   4.301  19.722  0.00  0.00    +0.000 A 
ATOM      9  N   UNL     1       2.391   4.447  20.825  0.00  0.00    +0.000 NA
ATOM     10  C   UNL     1       1.172   3.859  20.817  0.00  0.00    +0.000 A 
ATOM     11  C   UNL     1       0.677   3.125  19.755  0.00  0.00    +0.000 A 
ATOM     12  C   UNL     1       1.479   2.984  18.630  0.00  0.00    +0.000 A 
ATOM     13  C   UNL     1       2.743   3.575  18.598  0.00  0.00    +0.000 A 
ATOM     14  S   UNL     1       3.733   3.364  17.136  0.00  0.00    +0.000 S 
ATOM     15  H   UNL     1       4.578   5.407  20.633  0.00  0.00    +0.000 HD
ENDROOT
TORSDOF 0
ENDMDL
