MODEL 1
REMARK VINA RESULT:      -7.8      0.000      0.000
REMARK  Name = 
REMARK  4 active torsions:
REMARK  status: ('A' for Active; 'I' for Inactive)
REMARK    1  A    between atoms: C_1  and  O_2
REMARK    2  A    between atoms: O_2  and  C_3
REMARK    3  A    between atoms: N_9  and  C_10
REMARK    4  A    between atoms: C_10  and  C_11
REMARK                            x       y       z     vdW  Elec       q    Type
REMARK                         _______ _______ _______ _____ _____    ______ ____
ROOT
ATOM      1  C   UNL     1       5.503   4.988  16.953  0.00  0.00    +0.000 A 
ATOM      2  C   UNL     1       6.364   4.399  17.884  0.00  0.00    +0.000 A 
ATOM      3  C   UNL     1       7.366   5.151  18.523  0.00  0.00    +0.000 A 
ATOM      4  C   UNL     1       7.498   6.511  18.207  0.00  0.00    +0.000 A 
ATOM      5  N   UNL     1       8.362   7.462  18.707  0.00  0.00    +0.000 NA
ATOM      6  C   UNL     1       8.087   8.561  18.046  0.00  0.00    +0.000 A 
ATOM      7  N   UNL     1       8.618   9.797  18.154  0.00  0.00    +0.000 N 
ATOM      8  N   UNL     1       7.073   8.360  17.148  0.00  0.00    +0.000 N 
ATOM      9  C   UNL     1       6.657   7.060  17.247  0.00  0.00    +0.000 A 
ATOM     10  C   UNL     1       5.647   6.338  16.604  0.00  0.00    +0.000 A 
ATOM     11  H   UNL     1       9.051  10.151  17.302  0.00  0.00    +0.000 HD
ATOM     12  H   UNL     1       6.670   9.079  16.570  0.00  0.00    +0.000 HD
ENDROOT
BRANCH   1  14
ATOM     13  C   UNL     1       3.682   3.475  17.059  0.00  0.00    +0.000 C 
ATOM     14  O   UNL     1       4.504   4.336  16.280  0.00  0.00    +0.000 OA
ENDBRANCH   1  14
BRANCH   7  15
ATOM     15  C   UNL     1       9.465  10.068  19.307  0.00  0.00    +0.000 C 
BRANCH  15  16
ATOM     16  C   UNL     1      10.137  11.417  19.132  0.00  0.00    +0.000 A 
ATOM     17  C   UNL     1      10.777  11.703  17.907  0.00  0.00    +0.000 A 
ATOM     18  C   UNL     1      11.370  12.940  17.746  0.00  0.00    +0.000 A 
ATOM     19  C   UNL     1      11.373  13.881  18.746  0.00  0.00    +0.000 A 
ATOM     20  C   UNL     1      10.772  13.642  19.962  0.00  0.00    +0.000 A 
ATOM     21  C   UNL     1      10.144  12.403  20.150  0.00  0.00    +0.000 A 
ATOM     22 CL   UNL     1       9.377  12.130  21.676  0.00  0.00    +0.000 Cl
ATOM     23  O   UNL     1      11.994  15.027  18.377  0.00  0.00    +0.000 OA
ATOM     24  C   UNL     1      12.328  14.731  17.005  0.00  0.00    +0.000 C 
ATOM     25  O   UNL     1      11.998  13.379  16.621  0.00  0.00    +0.000 OA
ENDBRANCH  15  16
ENDBRANCH   7  15
TORSDOF 3
ENDMDL
MODEL 2
REMARK VINA RESULT:      -7.5      7.006      9.755
REMARK  Name = 
REMARK  4 active torsions:
REMARK  status: ('A' for Active; 'I' for Inactive)
REMARK    1  A    between atoms: C_1  and  O_2
REMARK    2  A    between atoms: O_2  and  C_3
REMARK    3  A    between atoms: N_9  and  C_10
REMARK    4  A    between atoms: C_10  and  C_11
REMARK                            x       y       z     vdW  Elec       q    Type
REMARK                         _______ _______ _______ _____ _____    ______ ____
ROOT
ATOM      1  C   UNL     1      -0.744  11.461  21.800  0.00  0.00    +0.000 A 
ATOM      2  C   UNL     1      -0.683  10.524  22.836  0.00  0.00    +0.000 A 
ATOM      3  C   UNL     1      -0.018   9.296  22.664  0.00  0.00    +0.000 A 
ATOM      4  C   UNL     1       0.583   9.018  21.428  0.00  0.00    +0.000 A 
ATOM      5  N   UNL     1       1.313   7.922  21.018  0.00  0.00    +0.000 NA
ATOM      6  C   UNL     1       1.610   8.154  19.763  0.00  0.00    +0.000 A 
ATOM      7  N   UNL     1       2.330   7.418  18.889  0.00  0.00    +0.000 N 
ATOM      8  N   UNL     1       1.113   9.361  19.349  0.00  0.00    +0.000 N 
ATOM      9  C   UNL     1       0.471   9.950  20.404  0.00  0.00    +0.000 A 
ATOM     10  C   UNL     1      -0.176  11.181  20.550  0.00  0.00    +0.000 A 
ATOM     11  H   UNL     1       1.822   7.134  18.053  0.00  0.00    +0.000 HD
ATOM     12  H   UNL     1       1.263   9.760  18.437  0.00  0.00    +0.000 HD
ENDROOT
BRANCH   1  14
ATOM     13  C   UNL     1      -0.653  13.714  22.534  0.00  0.00    +0.000 C 
ATOM     14  O   UNL     1      -1.371  12.678  21.874  0.00  0.00    +0.000 OA
ENDBRANCH   1  14
BRANCH   7  15
ATOM     15  C   UNL     1       3.103   6.305  19.422  0.00  0.00    +0.000 C 
BRANCH  15  16
ATOM     16  C   UNL     1       3.809   5.593  18.283  0.00  0.00    +0.000 A 
ATOM     17  C   UNL     1       4.915   6.219  17.671  0.00  0.00    +0.000 A 
ATOM     18  C   UNL     1       5.566   5.557  16.649  0.00  0.00    +0.000 A 
ATOM     19  C   UNL     1       5.153   4.327  16.201  0.00  0.00    +0.000 A 
ATOM     20  C   UNL     1       4.071   3.683  16.758  0.00  0.00    +0.000 A 
ATOM     21  C   UNL     1       3.401   4.320  17.812  0.00  0.00    +0.000 A 
ATOM     22 CL   UNL     1       2.057   3.486  18.512  0.00  0.00    +0.000 Cl
ATOM     23  O   UNL     1       5.936   3.849  15.203  0.00  0.00    +0.000 OA
ATOM     24  C   UNL     1       6.933   4.888  15.114  0.00  0.00    +0.000 C 
ATOM     25  O   UNL     1       6.662   6.010  15.981  0.00  0.00    +0.000 OA
ENDBRANCH  15  16
ENDBRANCH   7  15
TORSDOF 3
ENDMDL
MODEL 3
REMARK VINA RESULT:      -7.5      6.971      9.813
REMARK  Name = 
REMARK  4 active torsions:
REMARK  status: ('A' for Active; 'I' for Inactive)
REMARK    1  A    between atoms: C_1  and  O_2
REMARK    2  A    between atoms: O_2  and  C_3
REMARK    3  A    between atoms: N_9  and  C_10
REMARK    4  A    between atoms: C_10  and  C_11
REMARK                            x       y       z     vdW  Elec       q    Type
REMARK                         _______ _______ _______ _____ _____    ______ ____
ROOT
ATOM      1  C   UNL     1      -0.176  13.303  19.506  0.00  0.00    +0.000 A 
ATOM      2  C   UNL     1      -0.836  12.453  20.397  0.00  0.00    +0.000 A 
ATOM      3  C   UNL     1      -0.549  11.076  20.433  0.00  0.00    +0.000 A 
ATOM      4  C   UNL     1       0.412  10.561  19.551  0.00  0.00    +0.000 A 
ATOM      5  N   UNL     1       0.894   9.277  19.409  0.00  0.00    +0.000 NA
ATOM      6  C   UNL     1       1.750   9.336  18.418  0.00  0.00    +0.000 A 
ATOM      7  N   UNL     1       2.526   8.371  17.880  0.00  0.00    +0.000 N 
ATOM      8  N   UNL     1       1.851  10.609  17.923  0.00  0.00    +0.000 N 
ATOM      9  C   UNL     1       1.022  11.422  18.647  0.00  0.00    +0.000 A 
ATOM     10  C   UNL     1       0.762  12.795  18.597  0.00  0.00    +0.000 A 
ATOM     11  H   UNL     1       2.364   8.199  16.888  0.00  0.00    +0.000 HD
ATOM     12  H   UNL     1       2.483  10.891  17.193  0.00  0.00    +0.000 HD
ENDROOT
BRANCH   1  14
ATOM     13  C   UNL     1      -1.169  15.248  20.430  0.00  0.00    +0.000 C 
ATOM     14  O   UNL     1      -0.392  14.653  19.397  0.00  0.00    +0.000 OA
ENDBRANCH   1  14
BRANCH   7  15
ATOM     15  C   UNL     1       2.638   7.114  18.605  0.00  0.00    +0.000 C 
BRANCH  15  16
ATOM     16  C   UNL     1       3.477   6.141  17.797  0.00  0.00    +0.000 A 
ATOM     17  C   UNL     1       4.631   6.620  17.142  0.00  0.00    +0.000 A 
ATOM     18  C   UNL     1       5.402   5.726  16.425  0.00  0.00    +0.000 A 
ATOM     19  C   UNL     1       5.064   4.399  16.316  0.00  0.00    +0.000 A 
ATOM     20  C   UNL     1       3.940   3.890  16.927  0.00  0.00    +0.000 A 
ATOM     21  C   UNL     1       3.148   4.768  17.679  0.00  0.00    +0.000 A 
ATOM     22 CL   UNL     1       1.752   4.104  18.456  0.00  0.00    +0.000 Cl
ATOM     23  O   UNL     1       5.959   3.695  15.582  0.00  0.00    +0.000 OA
ATOM     24  C   UNL     1       6.940   4.713  15.293  0.00  0.00    +0.000 C 
ATOM     25  O   UNL     1       6.555   6.022  15.765  0.00  0.00    +0.000 OA
ENDBRANCH  15  16
ENDBRANCH   7  15
TORSDOF 3
ENDMDL
MODEL 4
REMARK VINA RESULT:      -7.3      7.586      9.867
REMARK  Name = 
REMARK  4 active torsions:
REMARK  status: ('A' for Active; 'I' for Inactive)
REMARK    1  A    between atoms: C_1  and  O_2
REMARK    2  A    between atoms: O_2  and  C_3
REMARK    3  A    between atoms: N_9  and  C_10
REMARK    4  A    between atoms: C_10  and  C_11
REMARK                            x       y       z     vdW  Elec       q    Type
REMARK                         _______ _______ _______ _____ _____    ______ ____
ROOT
ATOM      1  C   UNL     1       4.416   4.732  18.054  0.00  0.00    +0.000 A 
ATOM      2  C   UNL     1       3.898   4.454  19.323  0.00  0.00    +0.000 A 
ATOM      3  C   UNL     1       3.053   5.368  19.977  0.00  0.00    +0.000 A 
ATOM      4  C   UNL     1       2.738   6.576  19.338  0.00  0.00    +0.000 A 
ATOM      5  N   UNL     1       1.919   7.610  19.742  0.00  0.00    +0.000 NA
ATOM      6  C   UNL     1       2.004   8.509  18.791  0.00  0.00    +0.000 A 
ATOM      7  N   UNL     1       1.388   9.704  18.667  0.00  0.00    +0.000 N 
ATOM      8  N   UNL     1       2.834   8.093  17.785  0.00  0.00    +0.000 N 
ATOM      9  C   UNL     1       3.300   6.844  18.097  0.00  0.00    +0.000 A 
ATOM     10  C   UNL     1       4.135   5.950  17.421  0.00  0.00    +0.000 A 
ATOM     11  H   UNL     1       2.018  10.503  18.603  0.00  0.00    +0.000 HD
ATOM     12  H   UNL     1       3.007   8.605  16.937  0.00  0.00    +0.000 HD
ENDROOT
BRANCH   1  14
ATOM     13  C   UNL     1       5.167   4.003  15.926  0.00  0.00    +0.000 C 
ATOM     14  O   UNL     1       5.248   3.906  17.344  0.00  0.00    +0.000 OA
ENDBRANCH   1  14
BRANCH   7  15
ATOM     15  C   UNL     1       0.288   9.993  19.576  0.00  0.00    +0.000 C 
BRANCH  15  16
ATOM     16  C   UNL     1      -0.918  10.450  18.777  0.00  0.00    +0.000 A 
ATOM     17  C   UNL     1      -1.129   9.904  17.493  0.00  0.00    +0.000 A 
ATOM     18  C   UNL     1      -2.239  10.309  16.779  0.00  0.00    +0.000 A 
ATOM     19  C   UNL     1      -3.122  11.238  17.272  0.00  0.00    +0.000 A 
ATOM     20  C   UNL     1      -2.949  11.808  18.513  0.00  0.00    +0.000 A 
ATOM     21  C   UNL     1      -1.843  11.403  19.272  0.00  0.00    +0.000 A 
ATOM     22 CL   UNL     1      -1.655  12.115  20.837  0.00  0.00    +0.000 Cl
ATOM     23  O   UNL     1      -4.147  11.482  16.419  0.00  0.00    +0.000 OA
ATOM     24  C   UNL     1      -3.849  10.553  15.357  0.00  0.00    +0.000 C 
ATOM     25  O   UNL     1      -2.599   9.856  15.546  0.00  0.00    +0.000 OA
ENDBRANCH  15  16
ENDBRANCH   7  15
TORSDOF 3
ENDMDL
MODEL 5
REMARK VINA RESULT:      -7.3      2.838      9.182
REMARK  Name = 
REMARK  4 active torsions:
REMARK  status: ('A' for Active; 'I' for Inactive)
REMARK    1  A    between atoms: C_1  and  O_2
REMARK    2  A    between atoms: O_2  and  C_3
REMARK    3  A    between atoms: N_9  and  C_10
REMARK    4  A    between atoms: C_10  and  C_11
REMARK                            x       y       z     vdW  Elec       q    Type
REMARK                         _______ _______ _______ _____ _____    ______ ____
ROOT
ATOM      1  C   UNL     1       9.759  11.732  19.300  0.00  0.00    +0.000 A 
ATOM      2  C   UNL     1       8.997  12.185  18.219  0.00  0.00    +0.000 A 
ATOM      3  C   UNL     1       8.192  11.300  17.479  0.00  0.00    +0.000 A 
ATOM      4  C   UNL     1       8.168   9.945  17.838  0.00  0.00    +0.000 A 
ATOM      5  N   UNL     1       7.449   8.895  17.306  0.00  0.00    +0.000 NA
ATOM      6  C   UNL     1       7.823   7.839  17.987  0.00  0.00    +0.000 A 
ATOM      7  N   UNL     1       7.416   6.555  17.895  0.00  0.00    +0.000 N 
ATOM      8  N   UNL     1       8.745   8.166  18.945  0.00  0.00    +0.000 N 
ATOM      9  C   UNL     1       8.967   9.516  18.890  0.00  0.00    +0.000 A 
ATOM     10  C   UNL     1       9.769  10.374  19.647  0.00  0.00    +0.000 A 
ATOM     11  H   UNL     1       8.155   5.888  17.677  0.00  0.00    +0.000 HD
ATOM     12  H   UNL     1       9.132   7.519  19.612  0.00  0.00    +0.000 HD
ENDROOT
BRANCH   1  14
ATOM     13  C   UNL     1      11.965  12.224  20.017  0.00  0.00    +0.000 C 
ATOM     14  O   UNL     1      10.574  12.517  20.074  0.00  0.00    +0.000 OA
ENDBRANCH   1  14
BRANCH   7  15
ATOM     15  C   UNL     1       6.229   6.280  17.097  0.00  0.00    +0.000 C 
BRANCH  15  16
ATOM     16  C   UNL     1       5.199   5.570  17.956  0.00  0.00    +0.000 A 
ATOM     17  C   UNL     1       5.532   4.322  18.524  0.00  0.00    +0.000 A 
ATOM     18  C   UNL     1       4.598   3.690  19.321  0.00  0.00    +0.000 A 
ATOM     19  C   UNL     1       3.357   4.229  19.553  0.00  0.00    +0.000 A 
ATOM     20  C   UNL     1       2.983   5.437  19.010  0.00  0.00    +0.000 A 
ATOM     21  C   UNL     1       3.916   6.114  18.213  0.00  0.00    +0.000 A 
ATOM     22 CL   UNL     1       3.436   7.640  17.557  0.00  0.00    +0.000 Cl
ATOM     23  O   UNL     1       2.601   3.456  20.372  0.00  0.00    +0.000 OA
ATOM     24  C   UNL     1       3.530   2.397  20.685  0.00  0.00    +0.000 C 
ATOM     25  O   UNL     1       4.775   2.502  19.963  0.00  0.00    +0.000 OA
ENDBRANCH  15  16
ENDBRANCH   7  15
TORSDOF 3
ENDMDL
MODEL 6
REMARK VINA RESULT:      -7.3      7.914      9.679
REMARK  Name = 
REMARK  4 active torsions:
REMARK  status: ('A' for Active; 'I' for Inactive)
REMARK    1  A    between atoms: C_1  and  O_2
REMARK    2  A    between atoms: O_2  and  C_3
REMARK    3  A    between atoms: N_9  and  C_10
REMARK    4  A    between atoms: C_10  and  C_11
REMARK                            x       y       z     vdW  Elec       q    Type
REMARK                         _______ _______ _______ _____ _____    ______ ____
ROOT
ATOM      1  C   UNL     1       3.988   4.127  19.004  0.00  0.00    +0.000 A 
ATOM      2  C   UNL     1       4.215   4.804  17.802  0.00  0.00    +0.000 A 
ATOM      3  C   UNL     1       3.699   6.095  17.589  0.00  0.00    +0.000 A 
ATOM      4  C   UNL     1       2.942   6.699  18.603  0.00  0.00    +0.000 A 
ATOM      5  N   UNL     1       2.361   7.948  18.658  0.00  0.00    +0.000 NA
ATOM      6  C   UNL     1       1.742   7.992  19.813  0.00  0.00    +0.000 A 
ATOM      7  N   UNL     1       1.034   8.989  20.383  0.00  0.00    +0.000 N 
ATOM      8  N   UNL     1       1.910   6.826  20.511  0.00  0.00    +0.000 N 
ATOM      9  C   UNL     1       2.697   5.986  19.770  0.00  0.00    +0.000 A 
ATOM     10  C   UNL     1       3.205   4.707  20.012  0.00  0.00    +0.000 A 
ATOM     11  H   UNL     1       0.064   8.757  20.593  0.00  0.00    +0.000 HD
ATOM     12  H   UNL     1       1.560   6.659  21.440  0.00  0.00    +0.000 HD
ENDROOT
BRANCH   1  14
ATOM     13  C   UNL     1       3.687   1.787  18.774  0.00  0.00    +0.000 C 
ATOM     14  O   UNL     1       4.446   2.870  19.299  0.00  0.00    +0.000 OA
ENDBRANCH   1  14
BRANCH   7  15
ATOM     15  C   UNL     1       1.123  10.311  19.778  0.00  0.00    +0.000 C 
BRANCH  15  16
ATOM     16  C   UNL     1      -0.238  10.709  19.237  0.00  0.00    +0.000 A 
ATOM     17  C   UNL     1      -0.651  10.192  17.991  0.00  0.00    +0.000 A 
ATOM     18  C   UNL     1      -1.899  10.542  17.513  0.00  0.00    +0.000 A 
ATOM     19  C   UNL     1      -2.729  11.391  18.202  0.00  0.00    +0.000 A 
ATOM     20  C   UNL     1      -2.363  11.929  19.415  0.00  0.00    +0.000 A 
ATOM     21  C   UNL     1      -1.111  11.578  19.937  0.00  0.00    +0.000 A 
ATOM     22 CL   UNL     1      -0.679  12.248  21.471  0.00  0.00    +0.000 Cl
ATOM     23  O   UNL     1      -3.909  11.591  17.565  0.00  0.00    +0.000 OA
ATOM     24  C   UNL     1      -3.758  10.720  16.425  0.00  0.00    +0.000 C 
ATOM     25  O   UNL     1      -2.454  10.106  16.349  0.00  0.00    +0.000 OA
ENDBRANCH  15  16
ENDBRANCH   7  15
TORSDOF 3
ENDMDL
MODEL 7
REMARK VINA RESULT:      -7.3      2.565      9.131
REMARK  Name = 
REMARK  4 active torsions:
REMARK  status: ('A' for Active; 'I' for Inactive)
REMARK    1  A    between atoms: C_1  and  O_2
REMARK    2  A    between atoms: O_2  and  C_3
REMARK    3  A    between atoms: N_9  and  C_10
REMARK    4  A    between atoms: C_10  and  C_11
REMARK                            x       y       z     vdW  Elec       q    Type
REMARK                         _______ _______ _______ _____ _____    ______ ____
ROOT
ATOM      1  C   UNL     1      10.113  12.940  18.853  0.00  0.00    +0.000 A 
ATOM      2  C   UNL     1      10.516  12.216  19.979  0.00  0.00    +0.000 A 
ATOM      3  C   UNL     1      10.135  10.873  20.152  0.00  0.00    +0.000 A 
ATOM      4  C   UNL     1       9.333  10.265  19.174  0.00  0.00    +0.000 A 
ATOM      5  N   UNL     1       8.858   8.973  19.088  0.00  0.00    +0.000 NA
ATOM      6  C   UNL     1       8.132   8.943  17.997  0.00  0.00    +0.000 A 
ATOM      7  N   UNL     1       7.458   7.921  17.429  0.00  0.00    +0.000 N 
ATOM      8  N   UNL     1       8.130  10.159  17.368  0.00  0.00    +0.000 N 
ATOM      9  C   UNL     1       8.914  11.021  18.087  0.00  0.00    +0.000 A 
ATOM     10  C   UNL     1       9.285  12.354  17.887  0.00  0.00    +0.000 A 
ATOM     11  H   UNL     1       6.455   8.077  17.327  0.00  0.00    +0.000 HD
ATOM     12  H   UNL     1       7.677  10.349  16.489  0.00  0.00    +0.000 HD
ENDROOT
BRANCH   1  14
ATOM     13  C   UNL     1      11.010  14.522  17.332  0.00  0.00    +0.000 C 
ATOM     14  O   UNL     1      10.431  14.250  18.603  0.00  0.00    +0.000 OA
ENDBRANCH   1  14
BRANCH   7  15
ATOM     15  C   UNL     1       7.718   6.580  17.931  0.00  0.00    +0.000 C 
BRANCH  15  16
ATOM     16  C   UNL     1       6.448   5.754  17.841  0.00  0.00    +0.000 A 
ATOM     17  C   UNL     1       5.612   5.667  18.974  0.00  0.00    +0.000 A 
ATOM     18  C   UNL     1       4.448   4.930  18.880  0.00  0.00    +0.000 A 
ATOM     19  C   UNL     1       4.099   4.267  17.730  0.00  0.00    +0.000 A 
ATOM     20  C   UNL     1       4.889   4.312  16.604  0.00  0.00    +0.000 A 
ATOM     21  C   UNL     1       6.068   5.068  16.660  0.00  0.00    +0.000 A 
ATOM     22 CL   UNL     1       7.037   5.130  15.229  0.00  0.00    +0.000 Cl
ATOM     23  O   UNL     1       2.915   3.618  17.845  0.00  0.00    +0.000 OA
ATOM     24  C   UNL     1       2.521   3.999  19.180  0.00  0.00    +0.000 C 
ATOM     25  O   UNL     1       3.525   4.774  19.868  0.00  0.00    +0.000 OA
ENDBRANCH  15  16
ENDBRANCH   7  15
TORSDOF 3
ENDMDL
MODEL 8
REMARK VINA RESULT:      -7.3      7.752     10.812
REMARK  Name = 
REMARK  4 active torsions:
REMARK  status: ('A' for Active; 'I' for Inactive)
REMARK    1  A    between atoms: C_1  and  O_2
REMARK    2  A    between atoms: O_2  and  C_3
REMARK    3  A    between atoms: N_9  and  C_10
REMARK    4  A    between atoms: C_10  and  C_11
REMARK                            x       y       z     vdW  Elec       q    Type
REMARK                         _______ _______ _______ _____ _____    ______ ____
ROOT
ATOM      1  C   UNL     1      -1.516  12.037  20.168  0.00  0.00    +0.000 A 
ATOM      2  C   UNL     1      -0.991  11.469  21.332  0.00  0.00    +0.000 A 
ATOM      3  C   UNL     1       0.001  10.473  21.269  0.00  0.00    +0.000 A 
ATOM      4  C   UNL     1       0.456  10.048  20.012  0.00  0.00    +0.000 A 
ATOM      5  N   UNL     1       1.427   9.128  19.681  0.00  0.00    +0.000 NA
ATOM      6  C   UNL     1       1.430   9.084  18.370  0.00  0.00    +0.000 A 
ATOM      7  N   UNL     1       2.202   8.368  17.525  0.00  0.00    +0.000 N 
ATOM      8  N   UNL     1       0.509   9.949  17.842  0.00  0.00    +0.000 N 
ATOM      9  C   UNL     1      -0.114  10.600  18.872  0.00  0.00    +0.000 A 
ATOM     10  C   UNL     1      -1.094  11.597  18.906  0.00  0.00    +0.000 A 
ATOM     11  H   UNL     1       1.688   7.739  16.909  0.00  0.00    +0.000 HD
ATOM     12  H   UNL     1       0.375  10.111  16.858  0.00  0.00    +0.000 HD
ENDROOT
BRANCH   1  14
ATOM     13  C   UNL     1      -2.214  14.190  20.873  0.00  0.00    +0.000 C 
ATOM     14  O   UNL     1      -2.485  13.006  20.131  0.00  0.00    +0.000 OA
ENDBRANCH   1  14
BRANCH   7  15
ATOM     15  C   UNL     1       3.369   7.697  18.082  0.00  0.00    +0.000 C 
BRANCH  15  16
ATOM     16  C   UNL     1       3.177   6.195  17.990  0.00  0.00    +0.000 A 
ATOM     17  C   UNL     1       2.153   5.593  18.750  0.00  0.00    +0.000 A 
ATOM     18  C   UNL     1       1.970   4.228  18.647  0.00  0.00    +0.000 A 
ATOM     19  C   UNL     1       2.768   3.446  17.849  0.00  0.00    +0.000 A 
ATOM     20  C   UNL     1       3.788   3.987  17.099  0.00  0.00    +0.000 A 
ATOM     21  C   UNL     1       3.986   5.373  17.167  0.00  0.00    +0.000 A 
ATOM     22 CL   UNL     1       5.259   6.037  16.201  0.00  0.00    +0.000 Cl
ATOM     23  O   UNL     1       2.411   2.139  17.881  0.00  0.00    +0.000 OA
ATOM     24  C   UNL     1       1.254   2.190  18.741  0.00  0.00    +0.000 C 
ATOM     25  O   UNL     1       1.012   3.504  19.288  0.00  0.00    +0.000 OA
ENDBRANCH  15  16
ENDBRANCH   7  15
TORSDOF 3
ENDMDL
MODEL 9
REMARK VINA RESULT:      -7.3      8.254      9.805
REMARK  Name = 
REMARK  4 active torsions:
REMARK  status: ('A' for Active; 'I' for Inactive)
REMARK    1  A    between atoms: C_1  and  O_2
REMARK    2  A    between atoms: O_2  and  C_3
REMARK    3  A    between atoms: N_9  and  C_10
REMARK    4  A    between atoms: C_10  and  C_11
REMARK                            x       y       z     vdW  Elec       q    Type
REMARK                         _______ _______ _______ _____ _____    ______ ____
ROOT
ATOM      1  C   UNL     1       3.166   3.896  18.611  0.00  0.00    +0.000 A 
ATOM      2  C   UNL     1       2.822   3.915  19.966  0.00  0.00    +0.000 A 
ATOM      3  C   UNL     1       2.341   5.088  20.576  0.00  0.00    +0.000 A 
ATOM      4  C   UNL     1       2.216   6.251  19.803  0.00  0.00    +0.000 A 
ATOM      5  N   UNL     1       1.747   7.502  20.145  0.00  0.00    +0.000 NA
ATOM      6  C   UNL     1       1.878   8.229  19.061  0.00  0.00    +0.000 A 
ATOM      7  N   UNL     1       1.551   9.519  18.834  0.00  0.00    +0.000 N 
ATOM      8  N   UNL     1       2.402   7.495  18.031  0.00  0.00    +0.000 N 
ATOM      9  C   UNL     1       2.605   6.215  18.470  0.00  0.00    +0.000 A 
ATOM     10  C   UNL     1       3.077   5.061  17.837  0.00  0.00    +0.000 A 
ATOM     11  H   UNL     1       2.331  10.114  18.559  0.00  0.00    +0.000 HD
ATOM     12  H   UNL     1       2.543   7.840  17.096  0.00  0.00    +0.000 HD
ENDROOT
BRANCH   1  14
ATOM     13  C   UNL     1       3.659   1.578  18.655  0.00  0.00    +0.000 C 
ATOM     14  O   UNL     1       3.645   2.805  17.934  0.00  0.00    +0.000 OA
ENDBRANCH   1  14
BRANCH   7  15
ATOM     15  C   UNL     1       0.722  10.189  19.827  0.00  0.00    +0.000 C 
BRANCH  15  16
ATOM     16  C   UNL     1      -0.568  10.650  19.176  0.00  0.00    +0.000 A 
ATOM     17  C   UNL     1      -0.878  10.188  17.879  0.00  0.00    +0.000 A 
ATOM     18  C   UNL     1      -2.064  10.596  17.300  0.00  0.00    +0.000 A 
ATOM     19  C   UNL     1      -2.929  11.449  17.939  0.00  0.00    +0.000 A 
ATOM     20  C   UNL     1      -2.663  11.935  19.199  0.00  0.00    +0.000 A 
ATOM     21  C   UNL     1      -1.477  11.525  19.822  0.00  0.00    +0.000 A 
ATOM     22 CL   UNL     1      -1.170  12.130  21.413  0.00  0.00    +0.000 Cl
ATOM     23  O   UNL     1      -4.037  11.710  17.203  0.00  0.00    +0.000 OA
ATOM     24  C   UNL     1      -3.806  10.872  16.051  0.00  0.00    +0.000 C 
ATOM     25  O   UNL     1      -2.521  10.217  16.074  0.00  0.00    +0.000 OA
ENDBRANCH  15  16
ENDBRANCH   7  15
TORSDOF 3
ENDMDL
