MODEL 1
REMARK VINA RESULT:      -8.4      0.000      0.000
REMARK  Name = 
REMARK  7 active torsions:
REMARK  status: ('A' for Active; 'I' for Inactive)
REMARK    1  A    between atoms: C_1  and  C_2
REMARK    2  A    between atoms: C_2  and  C_3
REMARK    3  A    between atoms: N_5  and  C_6
REMARK    4  A    between atoms: C_9  and  N_10
REMARK    5  A    between atoms: C_11  and  C_13
REMARK    6  A    between atoms: C_13  and  C_14
REMARK    7  A    between atoms: C_14  and  N_15
REMARK                            x       y       z     vdW  Elec       q    Type
REMARK                         _______ _______ _______ _____ _____    ______ ____
ROOT
ATOM      1  N   UNL     1       2.936   6.362  20.001  0.00  0.00    +0.000 N 
ATOM      2  C   UNL     1       2.652   5.085  19.547  0.00  0.00    +0.000 C 
ATOM      3  O   UNL     1       1.567   4.677  19.136  0.00  0.00    +0.000 OA
ATOM      4  H   UNL     1       3.897   6.516  20.312  0.00  0.00    +0.000 HD
ENDROOT
BRANCH   1   8
ATOM      5  C   UNL     1       0.395   9.727  19.977  0.00  0.00    +0.000 A 
ATOM      6  C   UNL     1       0.428   8.865  21.072  0.00  0.00    +0.000 A 
ATOM      7  C   UNL     1       1.262   7.763  21.098  0.00  0.00    +0.000 A 
ATOM      8  C   UNL     1       2.087   7.475  20.017  0.00  0.00    +0.000 A 
ATOM      9  C   UNL     1       2.054   8.321  18.900  0.00  0.00    +0.000 A 
ATOM     10  C   UNL     1       1.200   9.435  18.872  0.00  0.00    +0.000 A 
BRANCH   5  13
ATOM     11  C   UNL     1      -1.506  11.049  19.099  0.00  0.00    +0.000 C 
ATOM     12  O   UNL     1      -1.945  10.213  18.315  0.00  0.00    +0.000 OA
ATOM     13  N   UNL     1      -0.430  10.872  19.959  0.00  0.00    +0.000 N 
ATOM     14  H   UNL     1      -0.296  11.551  20.696  0.00  0.00    +0.000 HD
BRANCH  11  16
ATOM     15  C   UNL     1      -2.009  12.938  20.644  0.00  0.00    +0.000 C 
ATOM     16  C   UNL     1      -2.150  12.412  19.222  0.00  0.00    +0.000 C 
ENDBRANCH  11  16
ENDBRANCH   5  13
ENDBRANCH   1   8
BRANCH   2  17
ATOM     17  C   UNL     1       3.808   4.104  19.641  0.00  0.00    +0.000 C 
BRANCH  17  18
ATOM     18  C   UNL     1       5.164   4.675  19.231  0.00  0.00    +0.000 C 
BRANCH  18  19
ATOM     19  N   UNL     1       5.071   5.683  18.150  0.00  0.00    +0.000 NA
ATOM     20  C   UNL     1       6.396   6.081  17.601  0.00  0.00    +0.000 C 
ATOM     21  C   UNL     1       7.133   4.970  16.833  0.00  0.00    +0.000 C 
ATOM     22  N   UNL     1       6.269   4.374  15.810  0.00  0.00    +0.000 N 
ATOM     23  C   UNL     1       6.644   4.466  14.486  0.00  0.00    +0.000 A 
ATOM     24  C   UNL     1       6.137   3.579  13.538  0.00  0.00    +0.000 A 
ATOM     25  C   UNL     1       6.576   3.633  12.217  0.00  0.00    +0.000 A 
ATOM     26  C   UNL     1       7.514   4.586  11.857  0.00  0.00    +0.000 A 
ATOM     27  C   UNL     1       7.968   5.441  12.841  0.00  0.00    +0.000 A 
ATOM     28  N   UNL     1       7.558   5.394  14.129  0.00  0.00    +0.000 NA
ATOM     29  C   UNL     1       4.896   4.040  16.200  0.00  0.00    +0.000 C 
ATOM     30  C   UNL     1       4.249   5.174  17.028  0.00  0.00    +0.000 C 
ENDBRANCH  18  19
ENDBRANCH  17  18
ENDBRANCH   2  17
TORSDOF 6
ENDMDL
MODEL 2
REMARK VINA RESULT:      -8.3      1.108      1.150
REMARK  Name = 
REMARK  7 active torsions:
REMARK  status: ('A' for Active; 'I' for Inactive)
REMARK    1  A    between atoms: C_1  and  C_2
REMARK    2  A    between atoms: C_2  and  C_3
REMARK    3  A    between atoms: N_5  and  C_6
REMARK    4  A    between atoms: C_9  and  N_10
REMARK    5  A    between atoms: C_11  and  C_13
REMARK    6  A    between atoms: C_13  and  C_14
REMARK    7  A    between atoms: C_14  and  N_15
REMARK                            x       y       z     vdW  Elec       q    Type
REMARK                         _______ _______ _______ _____ _____    ______ ____
ROOT
ATOM      1  N   UNL     1       2.870   6.474  19.997  0.00  0.00    +0.000 N 
ATOM      2  C   UNL     1       2.581   5.156  19.683  0.00  0.00    +0.000 C 
ATOM      3  O   UNL     1       1.464   4.668  19.526  0.00  0.00    +0.000 OA
ATOM      4  H   UNL     1       3.862   6.697  20.096  0.00  0.00    +0.000 HD
ENDROOT
BRANCH   1   8
ATOM      5  C   UNL     1       0.181   9.707  20.309  0.00  0.00    +0.000 A 
ATOM      6  C   UNL     1       0.294   8.771  21.335  0.00  0.00    +0.000 A 
ATOM      7  C   UNL     1       1.177   7.710  21.251  0.00  0.00    +0.000 A 
ATOM      8  C   UNL     1       1.973   7.542  20.124  0.00  0.00    +0.000 A 
ATOM      9  C   UNL     1       1.860   8.464  19.075  0.00  0.00    +0.000 A 
ATOM     10  C   UNL     1       0.956   9.535  19.159  0.00  0.00    +0.000 A 
BRANCH   5  13
ATOM     11  C   UNL     1      -0.424  11.965  21.125  0.00  0.00    +0.000 C 
ATOM     12  O   UNL     1       0.633  12.229  21.691  0.00  0.00    +0.000 OA
ATOM     13  N   UNL     1      -0.695  10.810  20.404  0.00  0.00    +0.000 N 
ATOM     14  H   UNL     1      -1.518  10.800  19.816  0.00  0.00    +0.000 HD
BRANCH  11  16
ATOM     15  C   UNL     1      -2.529  12.615  22.288  0.00  0.00    +0.000 C 
ATOM     16  C   UNL     1      -1.579  12.941  21.144  0.00  0.00    +0.000 C 
ENDBRANCH  11  16
ENDBRANCH   5  13
ENDBRANCH   1   8
BRANCH   2  17
ATOM     17  C   UNL     1       3.792   4.244  19.593  0.00  0.00    +0.000 C 
BRANCH  17  18
ATOM     18  C   UNL     1       5.094   4.947  19.214  0.00  0.00    +0.000 C 
BRANCH  18  19
ATOM     19  N   UNL     1       4.946   5.874  18.068  0.00  0.00    +0.000 NA
ATOM     20  C   UNL     1       6.247   6.317  17.498  0.00  0.00    +0.000 C 
ATOM     21  C   UNL     1       7.055   5.206  16.806  0.00  0.00    +0.000 C 
ATOM     22  N   UNL     1       6.236   4.493  15.822  0.00  0.00    +0.000 N 
ATOM     23  C   UNL     1       6.613   4.521  14.496  0.00  0.00    +0.000 A 
ATOM     24  C   UNL     1       6.167   3.544  13.606  0.00  0.00    +0.000 A 
ATOM     25  C   UNL     1       6.610   3.540  12.285  0.00  0.00    +0.000 A 
ATOM     26  C   UNL     1       7.489   4.522  11.866  0.00  0.00    +0.000 A 
ATOM     27  C   UNL     1       7.884   5.467  12.792  0.00  0.00    +0.000 A 
ATOM     28  N   UNL     1       7.471   5.479  14.081  0.00  0.00    +0.000 NA
ATOM     29  C   UNL     1       4.884   4.101  16.231  0.00  0.00    +0.000 C 
ATOM     30  C   UNL     1       4.163   5.244  16.981  0.00  0.00    +0.000 C 
ENDBRANCH  18  19
ENDBRANCH  17  18
ENDBRANCH   2  17
TORSDOF 6
ENDMDL
MODEL 3
REMARK VINA RESULT:      -8.2      1.185      1.489
REMARK  Name = 
REMARK  7 active torsions:
REMARK  status: ('A' for Active; 'I' for Inactive)
REMARK    1  A    between atoms: C_1  and  C_2
REMARK    2  A    between atoms: C_2  and  C_3
REMARK    3  A    between atoms: N_5  and  C_6
REMARK    4  A    between atoms: C_9  and  N_10
REMARK    5  A    between atoms: C_11  and  C_13
REMARK    6  A    between atoms: C_13  and  C_14
REMARK    7  A    between atoms: C_14  and  N_15
REMARK                            x       y       z     vdW  Elec       q    Type
REMARK                         _______ _______ _______ _____ _____    ______ ____
ROOT
ATOM      1  N   UNL     1       2.983   6.243  20.077  0.00  0.00    +0.000 N 
ATOM      2  C   UNL     1       2.590   4.929  19.883  0.00  0.00    +0.000 C 
ATOM      3  O   UNL     1       1.470   4.538  19.562  0.00  0.00    +0.000 OA
ATOM      4  H   UNL     1       3.959   6.376  20.351  0.00  0.00    +0.000 HD
ENDROOT
BRANCH   1   8
ATOM      5  C   UNL     1       0.685   9.738  19.541  0.00  0.00    +0.000 A 
ATOM      6  C   UNL     1       1.465   9.229  18.504  0.00  0.00    +0.000 A 
ATOM      7  C   UNL     1       2.217   8.080  18.662  0.00  0.00    +0.000 A 
ATOM      8  C   UNL     1       2.225   7.403  19.875  0.00  0.00    +0.000 A 
ATOM      9  C   UNL     1       1.461   7.910  20.935  0.00  0.00    +0.000 A 
ATOM     10  C   UNL     1       0.705   9.081  20.775  0.00  0.00    +0.000 A 
BRANCH   5  13
ATOM     11  C   UNL     1       0.221  12.148  19.865  0.00  0.00    +0.000 C 
ATOM     12  O   UNL     1       1.274  12.451  20.416  0.00  0.00    +0.000 OA
ATOM     13  N   UNL     1      -0.110  10.892  19.375  0.00  0.00    +0.000 N 
ATOM     14  H   UNL     1      -0.911  10.817  18.762  0.00  0.00    +0.000 HD
BRANCH  11  16
ATOM     15  C   UNL     1      -0.241  14.554  19.409  0.00  0.00    +0.000 C 
ATOM     16  C   UNL     1      -0.860  13.181  19.635  0.00  0.00    +0.000 C 
ENDBRANCH  11  16
ENDBRANCH   5  13
ENDBRANCH   1   8
BRANCH   2  17
ATOM     17  C   UNL     1       3.667   3.895  20.166  0.00  0.00    +0.000 C 
BRANCH  17  18
ATOM     18  C   UNL     1       4.807   3.866  19.151  0.00  0.00    +0.000 C 
BRANCH  18  19
ATOM     19  N   UNL     1       4.810   5.035  18.241  0.00  0.00    +0.000 NA
ATOM     20  C   UNL     1       6.178   5.466  17.841  0.00  0.00    +0.000 C 
ATOM     21  C   UNL     1       6.930   4.463  16.949  0.00  0.00    +0.000 C 
ATOM     22  N   UNL     1       6.116   4.070  15.796  0.00  0.00    +0.000 N 
ATOM     23  C   UNL     1       6.576   4.357  14.527  0.00  0.00    +0.000 A 
ATOM     24  C   UNL     1       6.106   3.650  13.421  0.00  0.00    +0.000 A 
ATOM     25  C   UNL     1       6.628   3.897  12.153  0.00  0.00    +0.000 A 
ATOM     26  C   UNL     1       7.613   4.859  12.005  0.00  0.00    +0.000 A 
ATOM     27  C   UNL     1       8.028   5.531  13.138  0.00  0.00    +0.000 A 
ATOM     28  N   UNL     1       7.536   5.295  14.377  0.00  0.00    +0.000 NA
ATOM     29  C   UNL     1       4.713   3.730  16.047  0.00  0.00    +0.000 C 
ATOM     30  C   UNL     1       4.046   4.742  17.007  0.00  0.00    +0.000 C 
ENDBRANCH  18  19
ENDBRANCH  17  18
ENDBRANCH   2  17
TORSDOF 6
ENDMDL
MODEL 4
REMARK VINA RESULT:      -7.9      0.457      1.011
REMARK  Name = 
REMARK  7 active torsions:
REMARK  status: ('A' for Active; 'I' for Inactive)
REMARK    1  A    between atoms: C_1  and  C_2
REMARK    2  A    between atoms: C_2  and  C_3
REMARK    3  A    between atoms: N_5  and  C_6
REMARK    4  A    between atoms: C_9  and  N_10
REMARK    5  A    between atoms: C_11  and  C_13
REMARK    6  A    between atoms: C_13  and  C_14
REMARK    7  A    between atoms: C_14  and  N_15
REMARK                            x       y       z     vdW  Elec       q    Type
REMARK                         _______ _______ _______ _____ _____    ______ ____
ROOT
ATOM      1  N   UNL     1       2.870   6.493  19.723  0.00  0.00    +0.000 N 
ATOM      2  C   UNL     1       2.462   5.171  19.780  0.00  0.00    +0.000 C 
ATOM      3  O   UNL     1       1.326   4.763  20.013  0.00  0.00    +0.000 OA
ATOM      4  H   UNL     1       3.861   6.642  19.523  0.00  0.00    +0.000 HD
ENDROOT
BRANCH   1   8
ATOM      5  C   UNL     1       0.472   9.939  20.135  0.00  0.00    +0.000 A 
ATOM      6  C   UNL     1       1.097   9.643  18.925  0.00  0.00    +0.000 A 
ATOM      7  C   UNL     1       1.879   8.514  18.772  0.00  0.00    +0.000 A 
ATOM      8  C   UNL     1       2.075   7.641  19.836  0.00  0.00    +0.000 A 
ATOM      9  C   UNL     1       1.469   7.931  21.066  0.00  0.00    +0.000 A 
ATOM     10  C   UNL     1       0.682   9.083  21.221  0.00  0.00    +0.000 A 
BRANCH   5  13
ATOM     11  C   UNL     1      -1.452  11.354  19.487  0.00  0.00    +0.000 C 
ATOM     12  O   UNL     1      -1.912  10.624  18.614  0.00  0.00    +0.000 OA
ATOM     13  N   UNL     1      -0.354  11.073  20.287  0.00  0.00    +0.000 N 
ATOM     14  H   UNL     1      -0.200  11.651  21.102  0.00  0.00    +0.000 HD
BRANCH  11  16
ATOM     15  C   UNL     1      -3.563  12.497  20.154  0.00  0.00    +0.000 C 
ATOM     16  C   UNL     1      -2.094  12.687  19.801  0.00  0.00    +0.000 C 
ENDBRANCH  11  16
ENDBRANCH   5  13
ENDBRANCH   1   8
BRANCH   2  17
ATOM     17  C   UNL     1       3.574   4.154  19.591  0.00  0.00    +0.000 C 
BRANCH  17  18
ATOM     18  C   UNL     1       4.943   4.755  19.282  0.00  0.00    +0.000 C 
BRANCH  18  19
ATOM     19  N   UNL     1       4.910   5.755  18.189  0.00  0.00    +0.000 NA
ATOM     20  C   UNL     1       6.260   6.105  17.670  0.00  0.00    +0.000 C 
ATOM     21  C   UNL     1       6.980   4.963  16.932  0.00  0.00    +0.000 C 
ATOM     22  N   UNL     1       6.124   4.384  15.893  0.00  0.00    +0.000 N 
ATOM     23  C   UNL     1       6.535   4.451  14.578  0.00  0.00    +0.000 A 
ATOM     24  C   UNL     1       6.024   3.570  13.626  0.00  0.00    +0.000 A 
ATOM     25  C   UNL     1       6.497   3.597  12.316  0.00  0.00    +0.000 A 
ATOM     26  C   UNL     1       7.474   4.516  11.970  0.00  0.00    +0.000 A 
ATOM     27  C   UNL     1       7.930   5.367  12.957  0.00  0.00    +0.000 A 
ATOM     28  N   UNL     1       7.487   5.346  14.236  0.00  0.00    +0.000 NA
ATOM     29  C   UNL     1       4.731   4.098  16.251  0.00  0.00    +0.000 C 
ATOM     30  C   UNL     1       4.100   5.260  17.051  0.00  0.00    +0.000 C 
ENDBRANCH  18  19
ENDBRANCH  17  18
ENDBRANCH   2  17
TORSDOF 6
ENDMDL
MODEL 5
REMARK VINA RESULT:      -7.9      6.322      8.672
REMARK  Name = 
REMARK  7 active torsions:
REMARK  status: ('A' for Active; 'I' for Inactive)
REMARK    1  A    between atoms: C_1  and  C_2
REMARK    2  A    between atoms: C_2  and  C_3
REMARK    3  A    between atoms: N_5  and  C_6
REMARK    4  A    between atoms: C_9  and  N_10
REMARK    5  A    between atoms: C_11  and  C_13
REMARK    6  A    between atoms: C_13  and  C_14
REMARK    7  A    between atoms: C_14  and  N_15
REMARK                            x       y       z     vdW  Elec       q    Type
REMARK                         _______ _______ _______ _____ _____    ______ ____
ROOT
ATOM      1  N   UNL     1       8.832   8.963  18.825  0.00  0.00    +0.000 N 
ATOM      2  C   UNL     1       7.896   8.478  17.927  0.00  0.00    +0.000 C 
ATOM      3  O   UNL     1       7.097   9.142  17.269  0.00  0.00    +0.000 OA
ATOM      4  H   UNL     1       9.408   8.257  19.287  0.00  0.00    +0.000 HD
ENDROOT
BRANCH   1   8
ATOM      5  C   UNL     1       9.733  12.972  19.776  0.00  0.00    +0.000 A 
ATOM      6  C   UNL     1       9.511  12.583  18.456  0.00  0.00    +0.000 A 
ATOM      7  C   UNL     1       9.206  11.275  18.130  0.00  0.00    +0.000 A 
ATOM      8  C   UNL     1       9.126  10.301  19.118  0.00  0.00    +0.000 A 
ATOM      9  C   UNL     1       9.363  10.670  20.449  0.00  0.00    +0.000 A 
ATOM     10  C   UNL     1       9.681  11.997  20.777  0.00  0.00    +0.000 A 
BRANCH   5  13
ATOM     11  C   UNL     1      11.271  14.892  20.052  0.00  0.00    +0.000 C 
ATOM     12  O   UNL     1      12.284  14.363  19.604  0.00  0.00    +0.000 OA
ATOM     13  N   UNL     1      10.011  14.312  20.118  0.00  0.00    +0.000 N 
ATOM     14  H   UNL     1       9.222  14.914  20.311  0.00  0.00    +0.000 HD
BRANCH  11  16
ATOM     15  C   UNL     1      12.253  17.161  19.745  0.00  0.00    +0.000 C 
ATOM     16  C   UNL     1      11.304  16.310  20.577  0.00  0.00    +0.000 C 
ENDBRANCH  11  16
ENDBRANCH   5  13
ENDBRANCH   1   8
BRANCH   2  17
ATOM     17  C   UNL     1       7.842   6.964  17.821  0.00  0.00    +0.000 C 
BRANCH  17  18
ATOM     18  C   UNL     1       6.829   6.429  16.811  0.00  0.00    +0.000 C 
BRANCH  18  19
ATOM     19  N   UNL     1       6.505   4.997  17.009  0.00  0.00    +0.000 NA
ATOM     20  C   UNL     1       6.546   4.576  18.436  0.00  0.00    +0.000 C 
ATOM     21  C   UNL     1       5.450   5.196  19.319  0.00  0.00    +0.000 C 
ATOM     22  N   UNL     1       4.124   5.004  18.726  0.00  0.00    +0.000 N 
ATOM     23  C   UNL     1       3.184   4.272  19.420  0.00  0.00    +0.000 A 
ATOM     24  C   UNL     1       1.824   4.417  19.148  0.00  0.00    +0.000 A 
ATOM     25  C   UNL     1       0.877   3.727  19.903  0.00  0.00    +0.000 A 
ATOM     26  C   UNL     1       1.304   2.889  20.918  0.00  0.00    +0.000 A 
ATOM     27  C   UNL     1       2.665   2.781  21.129  0.00  0.00    +0.000 A 
ATOM     28  N   UNL     1       3.595   3.451  20.411  0.00  0.00    +0.000 NA
ATOM     29  C   UNL     1       3.982   5.279  17.293  0.00  0.00    +0.000 C 
ATOM     30  C   UNL     1       5.156   4.687  16.482  0.00  0.00    +0.000 C 
ENDBRANCH  18  19
ENDBRANCH  17  18
ENDBRANCH   2  17
TORSDOF 6
ENDMDL
MODEL 6
REMARK VINA RESULT:      -7.7      1.047      1.866
REMARK  Name = 
REMARK  7 active torsions:
REMARK  status: ('A' for Active; 'I' for Inactive)
REMARK    1  A    between atoms: C_1  and  C_2
REMARK    2  A    between atoms: C_2  and  C_3
REMARK    3  A    between atoms: N_5  and  C_6
REMARK    4  A    between atoms: C_9  and  N_10
REMARK    5  A    between atoms: C_11  and  C_13
REMARK    6  A    between atoms: C_13  and  C_14
REMARK    7  A    between atoms: C_14  and  N_15
REMARK                            x       y       z     vdW  Elec       q    Type
REMARK                         _______ _______ _______ _____ _____    ______ ____
ROOT
ATOM      1  N   UNL     1       2.748   7.006  20.044  0.00  0.00    +0.000 N 
ATOM      2  C   UNL     1       2.862   5.796  19.380  0.00  0.00    +0.000 C 
ATOM      3  O   UNL     1       2.106   5.360  18.514  0.00  0.00    +0.000 OA
ATOM      4  H   UNL     1       3.470   7.198  20.741  0.00  0.00    +0.000 HD
ENDROOT
BRANCH   1   8
ATOM      5  C   UNL     1      -0.106  10.055  19.450  0.00  0.00    +0.000 A 
ATOM      6  C   UNL     1       0.799   9.717  18.445  0.00  0.00    +0.000 A 
ATOM      7  C   UNL     1       1.735   8.715  18.622  0.00  0.00    +0.000 A 
ATOM      8  C   UNL     1       1.806   8.020  19.823  0.00  0.00    +0.000 A 
ATOM      9  C   UNL     1       0.916   8.357  20.851  0.00  0.00    +0.000 A 
ATOM     10  C   UNL     1      -0.027   9.381  20.672  0.00  0.00    +0.000 A 
BRANCH   5  13
ATOM     11  C   UNL     1      -2.252  10.880  18.535  0.00  0.00    +0.000 C 
ATOM     12  O   UNL     1      -2.642   9.826  18.042  0.00  0.00    +0.000 OA
ATOM     13  N   UNL     1      -1.084  11.055  19.263  0.00  0.00    +0.000 N 
ATOM     14  H   UNL     1      -0.976  11.911  19.789  0.00  0.00    +0.000 HD
BRANCH  11  16
ATOM     15  C   UNL     1      -4.119  12.213  19.508  0.00  0.00    +0.000 C 
ATOM     16  C   UNL     1      -3.071  12.146  18.406  0.00  0.00    +0.000 C 
ENDBRANCH  11  16
ENDBRANCH   5  13
ENDBRANCH   1   8
BRANCH   2  17
ATOM     17  C   UNL     1       4.017   4.925  19.841  0.00  0.00    +0.000 C 
BRANCH  17  18
ATOM     18  C   UNL     1       5.371   5.285  19.234  0.00  0.00    +0.000 C 
BRANCH  18  19
ATOM     19  N   UNL     1       6.018   4.152  18.532  0.00  0.00    +0.000 NA
ATOM     20  C   UNL     1       5.171   3.564  17.458  0.00  0.00    +0.000 C 
ATOM     21  C   UNL     1       4.931   4.490  16.253  0.00  0.00    +0.000 C 
ATOM     22  N   UNL     1       6.195   5.017  15.732  0.00  0.00    +0.000 N 
ATOM     23  C   UNL     1       6.561   4.712  14.438  0.00  0.00    +0.000 A 
ATOM     24  C   UNL     1       7.479   5.504  13.750  0.00  0.00    +0.000 A 
ATOM     25  C   UNL     1       7.788   5.231  12.420  0.00  0.00    +0.000 A 
ATOM     26  C   UNL     1       7.179   4.158  11.793  0.00  0.00    +0.000 A 
ATOM     27  C   UNL     1       6.287   3.406  12.532  0.00  0.00    +0.000 A 
ATOM     28  N   UNL     1       5.970   3.665  13.821  0.00  0.00    +0.000 NA
ATOM     29  C   UNL     1       7.165   5.523  16.707  0.00  0.00    +0.000 C 
ATOM     30  C   UNL     1       7.298   4.576  17.921  0.00  0.00    +0.000 C 
ENDBRANCH  18  19
ENDBRANCH  17  18
ENDBRANCH   2  17
TORSDOF 6
ENDMDL
MODEL 7
REMARK VINA RESULT:      -7.6      2.067      3.145
REMARK  Name = 
REMARK  7 active torsions:
REMARK  status: ('A' for Active; 'I' for Inactive)
REMARK    1  A    between atoms: C_1  and  C_2
REMARK    2  A    between atoms: C_2  and  C_3
REMARK    3  A    between atoms: N_5  and  C_6
REMARK    4  A    between atoms: C_9  and  N_10
REMARK    5  A    between atoms: C_11  and  C_13
REMARK    6  A    between atoms: C_13  and  C_14
REMARK    7  A    between atoms: C_14  and  N_15
REMARK                            x       y       z     vdW  Elec       q    Type
REMARK                         _______ _______ _______ _____ _____    ______ ____
ROOT
ATOM      1  N   UNL     1       2.464   6.259  20.346  0.00  0.00    +0.000 N 
ATOM      2  C   UNL     1       1.747   5.085  20.506  0.00  0.00    +0.000 C 
ATOM      3  O   UNL     1       0.538   4.936  20.341  0.00  0.00    +0.000 OA
ATOM      4  H   UNL     1       3.466   6.194  20.536  0.00  0.00    +0.000 HD
ENDROOT
BRANCH   1   8
ATOM      5  C   UNL     1       1.023  10.003  19.046  0.00  0.00    +0.000 A 
ATOM      6  C   UNL     1       1.749   9.180  18.187  0.00  0.00    +0.000 A 
ATOM      7  C   UNL     1       2.221   7.946  18.597  0.00  0.00    +0.000 A 
ATOM      8  C   UNL     1       1.992   7.497  19.892  0.00  0.00    +0.000 A 
ATOM      9  C   UNL     1       1.279   8.319  20.775  0.00  0.00    +0.000 A 
ATOM     10  C   UNL     1       0.809   9.575  20.359  0.00  0.00    +0.000 A 
BRANCH   5  13
ATOM     11  C   UNL     1       1.060  12.477  18.963  0.00  0.00    +0.000 C 
ATOM     12  O   UNL     1       2.104  12.652  19.586  0.00  0.00    +0.000 OA
ATOM     13  N   UNL     1       0.511  11.249  18.623  0.00  0.00    +0.000 N 
ATOM     14  H   UNL     1      -0.232  11.234  17.937  0.00  0.00    +0.000 HD
BRANCH  11  16
ATOM     15  C   UNL     1       0.868  14.961  18.934  0.00  0.00    +0.000 C 
ATOM     16  C   UNL     1       0.250  13.652  18.462  0.00  0.00    +0.000 C 
ENDBRANCH  11  16
ENDBRANCH   5  13
ENDBRANCH   1   8
BRANCH   2  17
ATOM     17  C   UNL     1       2.565   3.902  20.993  0.00  0.00    +0.000 C 
BRANCH  17  18
ATOM     18  C   UNL     1       2.202   2.566  20.350  0.00  0.00    +0.000 C 
BRANCH  18  19
ATOM     19  N   UNL     1       3.350   1.904  19.688  0.00  0.00    +0.000 NA
ATOM     20  C   UNL     1       3.195   1.791  18.212  0.00  0.00    +0.000 C 
ATOM     21  C   UNL     1       3.224   3.133  17.461  0.00  0.00    +0.000 C 
ATOM     22  N   UNL     1       4.402   3.921  17.833  0.00  0.00    +0.000 N 
ATOM     23  C   UNL     1       5.324   4.242  16.858  0.00  0.00    +0.000 A 
ATOM     24  C   UNL     1       6.196   5.317  17.026  0.00  0.00    +0.000 A 
ATOM     25  C   UNL     1       7.074   5.678  16.007  0.00  0.00    +0.000 A 
ATOM     26  C   UNL     1       7.076   4.950  14.829  0.00  0.00    +0.000 A 
ATOM     27  C   UNL     1       6.196   3.891  14.729  0.00  0.00    +0.000 A 
ATOM     28  N   UNL     1       5.331   3.534  15.707  0.00  0.00    +0.000 NA
ATOM     29  C   UNL     1       4.727   4.013  19.259  0.00  0.00    +0.000 C 
ATOM     30  C   UNL     1       4.606   2.640  19.959  0.00  0.00    +0.000 C 
ENDBRANCH  18  19
ENDBRANCH  17  18
ENDBRANCH   2  17
TORSDOF 6
ENDMDL
MODEL 8
REMARK VINA RESULT:      -7.6      6.048      8.396
REMARK  Name = 
REMARK  7 active torsions:
REMARK  status: ('A' for Active; 'I' for Inactive)
REMARK    1  A    between atoms: C_1  and  C_2
REMARK    2  A    between atoms: C_2  and  C_3
REMARK    3  A    between atoms: N_5  and  C_6
REMARK    4  A    between atoms: C_9  and  N_10
REMARK    5  A    between atoms: C_11  and  C_13
REMARK    6  A    between atoms: C_13  and  C_14
REMARK    7  A    between atoms: C_14  and  N_15
REMARK                            x       y       z     vdW  Elec       q    Type
REMARK                         _______ _______ _______ _____ _____    ______ ____
ROOT
ATOM      1  N   UNL     1       8.763   8.748  19.146  0.00  0.00    +0.000 N 
ATOM      2  C   UNL     1       8.154   8.053  18.114  0.00  0.00    +0.000 C 
ATOM      3  O   UNL     1       7.880   8.488  16.998  0.00  0.00    +0.000 OA
ATOM      4  H   UNL     1       8.905   8.221  20.010  0.00  0.00    +0.000 HD
ENDROOT
BRANCH   1   8
ATOM      5  C   UNL     1      10.290  12.679  19.138  0.00  0.00    +0.000 A 
ATOM      6  C   UNL     1      10.074  11.994  17.943  0.00  0.00    +0.000 A 
ATOM      7  C   UNL     1       9.566  10.708  17.930  0.00  0.00    +0.000 A 
ATOM      8  C   UNL     1       9.268  10.054  19.119  0.00  0.00    +0.000 A 
ATOM      9  C   UNL     1       9.495  10.721  20.331  0.00  0.00    +0.000 A 
ATOM     10  C   UNL     1      10.018  12.023  20.342  0.00  0.00    +0.000 A 
BRANCH   5  13
ATOM     11  C   UNL     1      10.152  15.076  18.534  0.00  0.00    +0.000 C 
ATOM     12  O   UNL     1       9.061  15.047  17.974  0.00  0.00    +0.000 OA
ATOM     13  N   UNL     1      10.777  14.004  19.156  0.00  0.00    +0.000 N 
ATOM     14  H   UNL     1      11.567  14.198  19.757  0.00  0.00    +0.000 HD
BRANCH  11  16
ATOM     15  C   UNL     1      10.514  17.166  19.842  0.00  0.00    +0.000 C 
ATOM     16  C   UNL     1      10.945  16.362  18.623  0.00  0.00    +0.000 C 
ENDBRANCH  11  16
ENDBRANCH   5  13
ENDBRANCH   1   8
BRANCH   2  17
ATOM     17  C   UNL     1       7.743   6.632  18.461  0.00  0.00    +0.000 C 
BRANCH  17  18
ATOM     18  C   UNL     1       7.226   5.811  17.282  0.00  0.00    +0.000 C 
BRANCH  18  19
ATOM     19  N   UNL     1       5.808   6.089  16.953  0.00  0.00    +0.000 NA
ATOM     20  C   UNL     1       5.081   4.901  16.430  0.00  0.00    +0.000 C 
ATOM     21  C   UNL     1       4.875   3.773  17.456  0.00  0.00    +0.000 C 
ATOM     22  N   UNL     1       4.276   4.286  18.691  0.00  0.00    +0.000 N 
ATOM     23  C   UNL     1       3.041   3.811  19.080  0.00  0.00    +0.000 A 
ATOM     24  C   UNL     1       2.626   3.905  20.407  0.00  0.00    +0.000 A 
ATOM     25  C   UNL     1       1.408   3.358  20.805  0.00  0.00    +0.000 A 
ATOM     26  C   UNL     1       0.612   2.728  19.864  0.00  0.00    +0.000 A 
ATOM     27  C   UNL     1       1.075   2.677  18.564  0.00  0.00    +0.000 A 
ATOM     28  N   UNL     1       2.260   3.196  18.165  0.00  0.00    +0.000 NA
ATOM     29  C   UNL     1       4.835   5.522  19.246  0.00  0.00    +0.000 C 
ATOM     30  C   UNL     1       5.080   6.579  18.146  0.00  0.00    +0.000 C 
ENDBRANCH  18  19
ENDBRANCH  17  18
ENDBRANCH   2  17
TORSDOF 6
ENDMDL
MODEL 9
REMARK VINA RESULT:      -7.5      1.510      2.026
REMARK  Name = 
REMARK  7 active torsions:
REMARK  status: ('A' for Active; 'I' for Inactive)
REMARK    1  A    between atoms: C_1  and  C_2
REMARK    2  A    between atoms: C_2  and  C_3
REMARK    3  A    between atoms: N_5  and  C_6
REMARK    4  A    between atoms: C_9  and  N_10
REMARK    5  A    between atoms: C_11  and  C_13
REMARK    6  A    between atoms: C_13  and  C_14
REMARK    7  A    between atoms: C_14  and  N_15
REMARK                            x       y       z     vdW  Elec       q    Type
REMARK                         _______ _______ _______ _____ _____    ______ ____
ROOT
ATOM      1  N   UNL     1       2.307   6.939  20.404  0.00  0.00    +0.000 N 
ATOM      2  C   UNL     1       2.936   6.410  19.290  0.00  0.00    +0.000 C 
ATOM      3  O   UNL     1       2.812   6.790  18.127  0.00  0.00    +0.000 OA
ATOM      4  H   UNL     1       2.528   6.486  21.293  0.00  0.00    +0.000 HD
ENDROOT
BRANCH   1   8
ATOM      5  C   UNL     1      -0.208  10.323  20.512  0.00  0.00    +0.000 A 
ATOM      6  C   UNL     1      -0.189   9.413  21.568  0.00  0.00    +0.000 A 
ATOM      7  C   UNL     1       0.636   8.303  21.550  0.00  0.00    +0.000 A 
ATOM      8  C   UNL     1       1.467   8.058  20.463  0.00  0.00    +0.000 A 
ATOM      9  C   UNL     1       1.449   8.953  19.385  0.00  0.00    +0.000 A 
ATOM     10  C   UNL     1       0.604  10.074  19.402  0.00  0.00    +0.000 A 
BRANCH   5  13
ATOM     11  C   UNL     1      -0.738  12.618  21.272  0.00  0.00    +0.000 C 
ATOM     12  O   UNL     1       0.290  12.828  21.909  0.00  0.00    +0.000 OA
ATOM     13  N   UNL     1      -1.023  11.474  20.540  0.00  0.00    +0.000 N 
ATOM     14  H   UNL     1      -1.802  11.505  19.895  0.00  0.00    +0.000 HD
BRANCH  11  16
ATOM     15  C   UNL     1      -3.158  13.009  20.828  0.00  0.00    +0.000 C 
ATOM     16  C   UNL     1      -1.834  13.659  21.205  0.00  0.00    +0.000 C 
ENDBRANCH  11  16
ENDBRANCH   5  13
ENDBRANCH   1   8
BRANCH   2  17
ATOM     17  C   UNL     1       3.811   5.200  19.569  0.00  0.00    +0.000 C 
BRANCH  17  18
ATOM     18  C   UNL     1       5.285   5.382  19.213  0.00  0.00    +0.000 C 
BRANCH  18  19
ATOM     19  N   UNL     1       5.873   4.204  18.534  0.00  0.00    +0.000 NA
ATOM     20  C   UNL     1       5.007   3.653  17.456  0.00  0.00    +0.000 C 
ATOM     21  C   UNL     1       4.835   4.574  16.237  0.00  0.00    +0.000 C 
ATOM     22  N   UNL     1       6.134   5.020  15.726  0.00  0.00    +0.000 N 
ATOM     23  C   UNL     1       6.497   4.677  14.440  0.00  0.00    +0.000 A 
ATOM     24  C   UNL     1       7.468   5.406  13.754  0.00  0.00    +0.000 A 
ATOM     25  C   UNL     1       7.776   5.098  12.431  0.00  0.00    +0.000 A 
ATOM     26  C   UNL     1       7.113   4.054  11.810  0.00  0.00    +0.000 A 
ATOM     27  C   UNL     1       6.170   3.365  12.547  0.00  0.00    +0.000 A 
ATOM     28  N   UNL     1       5.853   3.658  13.829  0.00  0.00    +0.000 NA
ATOM     29  C   UNL     1       7.120   5.483  16.706  0.00  0.00    +0.000 C 
ATOM     30  C   UNL     1       7.184   4.545  17.934  0.00  0.00    +0.000 C 
ENDBRANCH  18  19
ENDBRANCH  17  18
ENDBRANCH   2  17
TORSDOF 6
ENDMDL
