MODEL 1
REMARK VINA RESULT:      -8.0      0.000      0.000
REMARK  Name = 
REMARK  5 active torsions:
REMARK  status: ('A' for Active; 'I' for Inactive)
REMARK    1  A    between atoms: C_1  and  O_2
REMARK    2  A    between atoms: O_2  and  C_3
REMARK    3  A    between atoms: C_6  and  N_7
REMARK    4  A    between atoms: C_9  and  C_10
REMARK    5  A    between atoms: C_16  and  C_17
REMARK                            x       y       z     vdW  Elec       q    Type
REMARK                         _______ _______ _______ _____ _____    ______ ____
ROOT
ATOM      1  N   UNL     1       2.242   7.817  18.676  0.00  0.00    +0.000 N 
ATOM      2  N   UNL     1       3.296   7.998  17.839  0.00  0.00    +0.000 NA
ATOM      3  C   UNL     1       3.817   6.765  17.740  0.00  0.00    +0.000 A 
ATOM      4  C   UNL     1       2.963   5.848  18.442  0.00  0.00    +0.000 A 
ATOM      5  N   UNL     1       1.991   6.540  19.053  0.00  0.00    +0.000 NA
ENDROOT
BRANCH   4   6
ATOM      6  C   UNL     1       3.070   4.398  18.591  0.00  0.00    +0.000 A 
ATOM      7  C   UNL     1       3.954   3.851  19.534  0.00  0.00    +0.000 A 
ATOM      8  C   UNL     1       4.189   2.474  19.566  0.00  0.00    +0.000 A 
ATOM      9  C   UNL     1       3.541   1.645  18.659  0.00  0.00    +0.000 A 
ATOM     10  F   UNL     1       3.814   0.334  18.650  0.00  0.00    +0.000 F 
ATOM     11  C   UNL     1       2.622   2.158  17.753  0.00  0.00    +0.000 A 
ATOM     12  C   UNL     1       2.364   3.530  17.739  0.00  0.00    +0.000 A 
ENDBRANCH   4   6
BRANCH   1  16
ATOM     13  C   UNL     1      -0.147  11.000  20.117  0.00  0.00    +0.000 A 
ATOM     14  C   UNL     1       0.263  10.975  18.782  0.00  0.00    +0.000 A 
ATOM     15  C   UNL     1       1.057   9.927  18.295  0.00  0.00    +0.000 A 
ATOM     16  C   UNL     1       1.450   8.897  19.153  0.00  0.00    +0.000 A 
ATOM     17  C   UNL     1       1.063   8.939  20.500  0.00  0.00    +0.000 A 
ATOM     18  C   UNL     1       0.275   9.990  20.981  0.00  0.00    +0.000 A 
BRANCH  13  20
ATOM     19  C   UNL     1      -1.481  12.816  19.394  0.00  0.00    +0.000 C 
ATOM     20  O   UNL     1      -0.928  12.066  20.472  0.00  0.00    +0.000 OA
ENDBRANCH  13  20
ENDBRANCH   1  16
BRANCH   3  21
ATOM     21  C   UNL     1       5.077   6.519  17.029  0.00  0.00    +0.000 A 
ATOM     22  C   UNL     1       6.281   7.066  17.483  0.00  0.00    +0.000 A 
ATOM     23  C   UNL     1       7.455   6.747  16.821  0.00  0.00    +0.000 A 
ATOM     24  N   UNL     1       7.503   5.968  15.726  0.00  0.00    +0.000 NA
ATOM     25  C   UNL     1       6.325   5.492  15.266  0.00  0.00    +0.000 A 
ATOM     26  C   UNL     1       5.103   5.730  15.878  0.00  0.00    +0.000 A 
ENDBRANCH   3  21
TORSDOF 4
ENDMDL
MODEL 2
REMARK VINA RESULT:      -8.0      0.466      1.099
REMARK  Name = 
REMARK  5 active torsions:
REMARK  status: ('A' for Active; 'I' for Inactive)
REMARK    1  A    between atoms: C_1  and  O_2
REMARK    2  A    between atoms: O_2  and  C_3
REMARK    3  A    between atoms: C_6  and  N_7
REMARK    4  A    between atoms: C_9  and  C_10
REMARK    5  A    between atoms: C_16  and  C_17
REMARK                            x       y       z     vdW  Elec       q    Type
REMARK                         _______ _______ _______ _____ _____    ______ ____
ROOT
ATOM      1  N   UNL     1       2.243   7.814  18.697  0.00  0.00    +0.000 N 
ATOM      2  N   UNL     1       3.297   7.998  17.861  0.00  0.00    +0.000 NA
ATOM      3  C   UNL     1       3.816   6.765  17.756  0.00  0.00    +0.000 A 
ATOM      4  C   UNL     1       2.962   5.845  18.454  0.00  0.00    +0.000 A 
ATOM      5  N   UNL     1       1.991   6.537  19.069  0.00  0.00    +0.000 NA
ENDROOT
BRANCH   4   6
ATOM      6  C   UNL     1       3.067   4.394  18.597  0.00  0.00    +0.000 A 
ATOM      7  C   UNL     1       3.932   3.843  19.554  0.00  0.00    +0.000 A 
ATOM      8  C   UNL     1       4.168   2.466  19.584  0.00  0.00    +0.000 A 
ATOM      9  C   UNL     1       3.538   1.641  18.659  0.00  0.00    +0.000 A 
ATOM     10  F   UNL     1       3.812   0.331  18.648  0.00  0.00    +0.000 F 
ATOM     11  C   UNL     1       2.637   2.159  17.738  0.00  0.00    +0.000 A 
ATOM     12  C   UNL     1       2.378   3.531  17.726  0.00  0.00    +0.000 A 
ENDBRANCH   4   6
BRANCH   1  16
ATOM     13  C   UNL     1      -0.077  11.059  20.111  0.00  0.00    +0.000 A 
ATOM     14  C   UNL     1       0.300  10.032  20.979  0.00  0.00    +0.000 A 
ATOM     15  C   UNL     1       1.066   8.951  20.521  0.00  0.00    +0.000 A 
ATOM     16  C   UNL     1       1.453   8.894  19.179  0.00  0.00    +0.000 A 
ATOM     17  C   UNL     1       1.048   9.910  18.302  0.00  0.00    +0.000 A 
ATOM     18  C   UNL     1       0.279  10.984  18.765  0.00  0.00    +0.000 A 
BRANCH  13  20
ATOM     19  C   UNL     1      -1.146  11.894  22.050  0.00  0.00    +0.000 C 
ATOM     20  O   UNL     1      -0.813  12.066  20.676  0.00  0.00    +0.000 OA
ENDBRANCH  13  20
ENDBRANCH   1  16
BRANCH   3  21
ATOM     21  C   UNL     1       5.075   6.519  17.043  0.00  0.00    +0.000 A 
ATOM     22  C   UNL     1       6.280   7.066  17.496  0.00  0.00    +0.000 A 
ATOM     23  C   UNL     1       7.453   6.748  16.833  0.00  0.00    +0.000 A 
ATOM     24  N   UNL     1       7.500   5.971  15.736  0.00  0.00    +0.000 NA
ATOM     25  C   UNL     1       6.322   5.496  15.277  0.00  0.00    +0.000 A 
ATOM     26  C   UNL     1       5.100   5.733  15.890  0.00  0.00    +0.000 A 
ENDBRANCH   3  21
TORSDOF 4
ENDMDL
MODEL 3
REMARK VINA RESULT:      -7.7      1.502      2.139
REMARK  Name = 
REMARK  5 active torsions:
REMARK  status: ('A' for Active; 'I' for Inactive)
REMARK    1  A    between atoms: C_1  and  O_2
REMARK    2  A    between atoms: O_2  and  C_3
REMARK    3  A    between atoms: C_6  and  N_7
REMARK    4  A    between atoms: C_9  and  C_10
REMARK    5  A    between atoms: C_16  and  C_17
REMARK                            x       y       z     vdW  Elec       q    Type
REMARK                         _______ _______ _______ _____ _____    ______ ____
ROOT
ATOM      1  N   UNL     1       2.210   8.776  18.085  0.00  0.00    +0.000 N 
ATOM      2  N   UNL     1       3.343   8.624  17.353  0.00  0.00    +0.000 NA
ATOM      3  C   UNL     1       3.652   7.332  17.542  0.00  0.00    +0.000 A 
ATOM      4  C   UNL     1       2.601   6.714  18.300  0.00  0.00    +0.000 A 
ATOM      5  N   UNL     1       1.715   7.655  18.660  0.00  0.00    +0.000 NA
ENDROOT
BRANCH   4   6
ATOM      6  C   UNL     1       2.445   5.324  18.725  0.00  0.00    +0.000 A 
ATOM      7  C   UNL     1       2.056   4.346  17.798  0.00  0.00    +0.000 A 
ATOM      8  C   UNL     1       1.739   3.053  18.226  0.00  0.00    +0.000 A 
ATOM      9  C   UNL     1       1.814   2.740  19.578  0.00  0.00    +0.000 A 
ATOM     10  F   UNL     1       1.451   1.519  19.994  0.00  0.00    +0.000 F 
ATOM     11  C   UNL     1       2.249   3.677  20.505  0.00  0.00    +0.000 A 
ATOM     12  C   UNL     1       2.593   4.960  20.076  0.00  0.00    +0.000 A 
ENDBRANCH   4   6
BRANCH   1  16
ATOM     13  C   UNL     1       0.296  12.518  18.580  0.00  0.00    +0.000 A 
ATOM     14  C   UNL     1       1.676  12.455  18.369  0.00  0.00    +0.000 A 
ATOM     15  C   UNL     1       2.320  11.221  18.207  0.00  0.00    +0.000 A 
ATOM     16  C   UNL     1       1.579  10.038  18.262  0.00  0.00    +0.000 A 
ATOM     17  C   UNL     1       0.199  10.101  18.505  0.00  0.00    +0.000 A 
ATOM     18  C   UNL     1      -0.438  11.337  18.671  0.00  0.00    +0.000 A 
BRANCH  13  20
ATOM     19  C   UNL     1       0.729  14.821  18.912  0.00  0.00    +0.000 C 
ATOM     20  O   UNL     1      -0.221  13.779  18.711  0.00  0.00    +0.000 OA
ENDBRANCH  13  20
ENDBRANCH   1  16
BRANCH   3  21
ATOM     21  C   UNL     1       4.904   6.759  17.034  0.00  0.00    +0.000 A 
ATOM     22  C   UNL     1       4.906   5.872  15.953  0.00  0.00    +0.000 A 
ATOM     23  C   UNL     1       6.117   5.413  15.463  0.00  0.00    +0.000 A 
ATOM     24  N   UNL     1       7.308   5.737  16.000  0.00  0.00    +0.000 NA
ATOM     25  C   UNL     1       7.286   6.550  17.079  0.00  0.00    +0.000 A 
ATOM     26  C   UNL     1       6.127   7.085  17.622  0.00  0.00    +0.000 A 
ENDBRANCH   3  21
TORSDOF 4
ENDMDL
MODEL 4
REMARK VINA RESULT:      -7.7      1.471      1.971
REMARK  Name = 
REMARK  5 active torsions:
REMARK  status: ('A' for Active; 'I' for Inactive)
REMARK    1  A    between atoms: C_1  and  O_2
REMARK    2  A    between atoms: O_2  and  C_3
REMARK    3  A    between atoms: C_6  and  N_7
REMARK    4  A    between atoms: C_9  and  C_10
REMARK    5  A    between atoms: C_16  and  C_17
REMARK                            x       y       z     vdW  Elec       q    Type
REMARK                         _______ _______ _______ _____ _____    ______ ____
ROOT
ATOM      1  N   UNL     1       2.196   8.785  18.066  0.00  0.00    +0.000 N 
ATOM      2  N   UNL     1       3.333   8.655  17.334  0.00  0.00    +0.000 NA
ATOM      3  C   UNL     1       3.662   7.366  17.517  0.00  0.00    +0.000 A 
ATOM      4  C   UNL     1       2.619   6.728  18.270  0.00  0.00    +0.000 A 
ATOM      5  N   UNL     1       1.718   7.653  18.634  0.00  0.00    +0.000 NA
ENDROOT
BRANCH   4   6
ATOM      6  C   UNL     1       2.485   5.334  18.687  0.00  0.00    +0.000 A 
ATOM      7  C   UNL     1       1.870   4.402  17.836  0.00  0.00    +0.000 A 
ATOM      8  C   UNL     1       1.584   3.112  18.290  0.00  0.00    +0.000 A 
ATOM      9  C   UNL     1       1.913   2.753  19.592  0.00  0.00    +0.000 A 
ATOM     10  F   UNL     1       1.582   1.538  20.046  0.00  0.00    +0.000 F 
ATOM     11  C   UNL     1       2.570   3.642  20.433  0.00  0.00    +0.000 A 
ATOM     12  C   UNL     1       2.882   4.922  19.971  0.00  0.00    +0.000 A 
ENDBRANCH   4   6
BRANCH   1  16
ATOM     13  C   UNL     1       0.292  12.520  18.646  0.00  0.00    +0.000 A 
ATOM     14  C   UNL     1      -0.454  11.339  18.658  0.00  0.00    +0.000 A 
ATOM     15  C   UNL     1       0.166  10.097  18.464  0.00  0.00    +0.000 A 
ATOM     16  C   UNL     1       1.545  10.036  18.249  0.00  0.00    +0.000 A 
ATOM     17  C   UNL     1       2.289  11.224  18.207  0.00  0.00    +0.000 A 
ATOM     18  C   UNL     1       1.663  12.462  18.397  0.00  0.00    +0.000 A 
BRANCH  13  20
ATOM     19  C   UNL     1       0.340  14.870  18.920  0.00  0.00    +0.000 C 
ATOM     20  O   UNL     1      -0.422  13.668  18.859  0.00  0.00    +0.000 OA
ENDBRANCH  13  20
ENDBRANCH   1  16
BRANCH   3  21
ATOM     21  C   UNL     1       4.923   6.816  17.008  0.00  0.00    +0.000 A 
ATOM     22  C   UNL     1       6.150   7.188  17.567  0.00  0.00    +0.000 A 
ATOM     23  C   UNL     1       7.309   6.588  17.103  0.00  0.00    +0.000 A 
ATOM     24  N   UNL     1       7.331   5.690  16.101  0.00  0.00    +0.000 NA
ATOM     25  C   UNL     1       6.145   5.383  15.533  0.00  0.00    +0.000 A 
ATOM     26  C   UNL     1       4.929   5.906  15.950  0.00  0.00    +0.000 A 
ENDBRANCH   3  21
TORSDOF 4
ENDMDL
MODEL 5
REMARK VINA RESULT:      -7.6      2.201      4.189
REMARK  Name = 
REMARK  5 active torsions:
REMARK  status: ('A' for Active; 'I' for Inactive)
REMARK    1  A    between atoms: C_1  and  O_2
REMARK    2  A    between atoms: O_2  and  C_3
REMARK    3  A    between atoms: C_6  and  N_7
REMARK    4  A    between atoms: C_9  and  C_10
REMARK    5  A    between atoms: C_16  and  C_17
REMARK                            x       y       z     vdW  Elec       q    Type
REMARK                         _______ _______ _______ _____ _____    ______ ____
ROOT
ATOM      1  N   UNL     1       2.033   8.395  18.787  0.00  0.00    +0.000 N 
ATOM      2  N   UNL     1       1.630   7.440  19.665  0.00  0.00    +0.000 NA
ATOM      3  C   UNL     1       2.263   6.342  19.226  0.00  0.00    +0.000 A 
ATOM      4  C   UNL     1       3.137   6.714  18.148  0.00  0.00    +0.000 A 
ATOM      5  N   UNL     1       2.950   8.012  17.867  0.00  0.00    +0.000 NA
ENDROOT
BRANCH   4   6
ATOM      6  C   UNL     1       4.066   5.896  17.371  0.00  0.00    +0.000 A 
ATOM      7  C   UNL     1       4.861   6.488  16.378  0.00  0.00    +0.000 A 
ATOM      8  C   UNL     1       5.623   5.694  15.517  0.00  0.00    +0.000 A 
ATOM      9  C   UNL     1       5.591   4.310  15.649  0.00  0.00    +0.000 A 
ATOM     10  F   UNL     1       6.272   3.548  14.785  0.00  0.00    +0.000 F 
ATOM     11  C   UNL     1       4.853   3.707  16.659  0.00  0.00    +0.000 A 
ATOM     12  C   UNL     1       4.114   4.501  17.538  0.00  0.00    +0.000 A 
ENDBRANCH   4   6
BRANCH   1  16
ATOM     13  C   UNL     1       0.450  12.320  18.829  0.00  0.00    +0.000 A 
ATOM     14  C   UNL     1       1.726  12.080  18.313  0.00  0.00    +0.000 A 
ATOM     15  C   UNL     1       2.261  10.784  18.297  0.00  0.00    +0.000 A 
ATOM     16  C   UNL     1       1.515   9.719  18.808  0.00  0.00    +0.000 A 
ATOM     17  C   UNL     1       0.248   9.966  19.354  0.00  0.00    +0.000 A 
ATOM     18  C   UNL     1      -0.279  11.263  19.371  0.00  0.00    +0.000 A 
BRANCH  13  20
ATOM     19  C   UNL     1       1.058  14.607  18.858  0.00  0.00    +0.000 C 
ATOM     20  O   UNL     1       0.032  13.622  18.779  0.00  0.00    +0.000 OA
ENDBRANCH  13  20
ENDBRANCH   1  16
BRANCH   3  21
ATOM     21  C   UNL     1       2.004   5.020  19.809  0.00  0.00    +0.000 A 
ATOM     22  C   UNL     1       1.313   4.038  19.093  0.00  0.00    +0.000 A 
ATOM     23  C   UNL     1       1.155   2.783  19.656  0.00  0.00    +0.000 A 
ATOM     24  N   UNL     1       1.592   2.459  20.886  0.00  0.00    +0.000 NA
ATOM     25  C   UNL     1       2.208   3.435  21.588  0.00  0.00    +0.000 A 
ATOM     26  C   UNL     1       2.441   4.712  21.098  0.00  0.00    +0.000 A 
ENDBRANCH   3  21
TORSDOF 4
ENDMDL
MODEL 6
REMARK VINA RESULT:      -7.5      2.226      4.183
REMARK  Name = 
REMARK  5 active torsions:
REMARK  status: ('A' for Active; 'I' for Inactive)
REMARK    1  A    between atoms: C_1  and  O_2
REMARK    2  A    between atoms: O_2  and  C_3
REMARK    3  A    between atoms: C_6  and  N_7
REMARK    4  A    between atoms: C_9  and  C_10
REMARK    5  A    between atoms: C_16  and  C_17
REMARK                            x       y       z     vdW  Elec       q    Type
REMARK                         _______ _______ _______ _____ _____    ______ ____
ROOT
ATOM      1  N   UNL     1       1.867   8.357  19.201  0.00  0.00    +0.000 N 
ATOM      2  N   UNL     1       1.530   7.340  20.035  0.00  0.00    +0.000 NA
ATOM      3  C   UNL     1       2.170   6.289  19.501  0.00  0.00    +0.000 A 
ATOM      4  C   UNL     1       2.984   6.750  18.411  0.00  0.00    +0.000 A 
ATOM      5  N   UNL     1       2.751   8.057  18.219  0.00  0.00    +0.000 NA
ENDROOT
BRANCH   4   6
ATOM      6  C   UNL     1       3.897   6.007  17.545  0.00  0.00    +0.000 A 
ATOM      7  C   UNL     1       4.657   6.685  16.580  0.00  0.00    +0.000 A 
ATOM      8  C   UNL     1       5.401   5.971  15.637  0.00  0.00    +0.000 A 
ATOM      9  C   UNL     1       5.386   4.582  15.659  0.00  0.00    +0.000 A 
ATOM     10  F   UNL     1       6.048   3.898  14.718  0.00  0.00    +0.000 F 
ATOM     11  C   UNL     1       4.683   3.891  16.638  0.00  0.00    +0.000 A 
ATOM     12  C   UNL     1       3.963   4.604  17.599  0.00  0.00    +0.000 A 
ENDBRANCH   4   6
BRANCH   1  16
ATOM     13  C   UNL     1       0.277  12.262  19.574  0.00  0.00    +0.000 A 
ATOM     14  C   UNL     1      -0.191  11.229  20.390  0.00  0.00    +0.000 A 
ATOM     15  C   UNL     1       0.326   9.931  20.273  0.00  0.00    +0.000 A 
ATOM     16  C   UNL     1       1.317   9.663  19.326  0.00  0.00    +0.000 A 
ATOM     17  C   UNL     1       1.765  10.693  18.487  0.00  0.00    +0.000 A 
ATOM     18  C   UNL     1       1.241  11.985  18.606  0.00  0.00    +0.000 A 
BRANCH  13  20
ATOM     19  C   UNL     1      -0.116  14.446  18.753  0.00  0.00    +0.000 C 
ATOM     20  O   UNL     1      -0.295  13.486  19.790  0.00  0.00    +0.000 OA
ENDBRANCH  13  20
ENDBRANCH   1  16
BRANCH   3  21
ATOM     21  C   UNL     1       1.972   4.928  20.013  0.00  0.00    +0.000 A 
ATOM     22  C   UNL     1       2.522   4.529  21.236  0.00  0.00    +0.000 A 
ATOM     23  C   UNL     1       2.247   3.258  21.713  0.00  0.00    +0.000 A 
ATOM     24  N   UNL     1       1.512   2.354  21.040  0.00  0.00    +0.000 NA
ATOM     25  C   UNL     1       1.035   2.734  19.835  0.00  0.00    +0.000 A 
ATOM     26  C   UNL     1       1.229   3.995  19.288  0.00  0.00    +0.000 A 
ENDBRANCH   3  21
TORSDOF 4
ENDMDL
MODEL 7
REMARK VINA RESULT:      -7.5      1.202      1.739
REMARK  Name = 
REMARK  5 active torsions:
REMARK  status: ('A' for Active; 'I' for Inactive)
REMARK    1  A    between atoms: C_1  and  O_2
REMARK    2  A    between atoms: O_2  and  C_3
REMARK    3  A    between atoms: C_6  and  N_7
REMARK    4  A    between atoms: C_9  and  C_10
REMARK    5  A    between atoms: C_16  and  C_17
REMARK                            x       y       z     vdW  Elec       q    Type
REMARK                         _______ _______ _______ _____ _____    ______ ____
ROOT
ATOM      1  N   UNL     1       2.246   8.702  18.054  0.00  0.00    +0.000 N 
ATOM      2  N   UNL     1       3.397   8.576  17.344  0.00  0.00    +0.000 NA
ATOM      3  C   UNL     1       3.705   7.279  17.499  0.00  0.00    +0.000 A 
ATOM      4  C   UNL     1       2.639   6.635  18.214  0.00  0.00    +0.000 A 
ATOM      5  N   UNL     1       1.742   7.562  18.582  0.00  0.00    +0.000 NA
ENDROOT
BRANCH   4   6
ATOM      6  C   UNL     1       2.478   5.232  18.590  0.00  0.00    +0.000 A 
ATOM      7  C   UNL     1       3.228   4.699  19.650  0.00  0.00    +0.000 A 
ATOM      8  C   UNL     1       3.210   3.326  19.907  0.00  0.00    +0.000 A 
ATOM      9  C   UNL     1       2.442   2.487  19.108  0.00  0.00    +0.000 A 
ATOM     10  F   UNL     1       2.474   1.164  19.316  0.00  0.00    +0.000 F 
ATOM     11  C   UNL     1       1.651   3.000  18.088  0.00  0.00    +0.000 A 
ATOM     12  C   UNL     1       1.646   4.375  17.848  0.00  0.00    +0.000 A 
ENDBRANCH   4   6
BRANCH   1  16
ATOM     13  C   UNL     1       0.378  12.446  18.690  0.00  0.00    +0.000 A 
ATOM     14  C   UNL     1      -0.371  11.268  18.736  0.00  0.00    +0.000 A 
ATOM     15  C   UNL     1       0.237  10.023  18.524  0.00  0.00    +0.000 A 
ATOM     16  C   UNL     1       1.606   9.956  18.257  0.00  0.00    +0.000 A 
ATOM     17  C   UNL     1       2.352  11.141  18.181  0.00  0.00    +0.000 A 
ATOM     18  C   UNL     1       1.738  12.382  18.389  0.00  0.00    +0.000 A 
BRANCH  13  20
ATOM     19  C   UNL     1      -1.364  13.504  19.894  0.00  0.00    +0.000 C 
ATOM     20  O   UNL     1      -0.323  13.598  18.925  0.00  0.00    +0.000 OA
ENDBRANCH  13  20
ENDBRANCH   1  16
BRANCH   3  21
ATOM     21  C   UNL     1       4.971   6.726  17.003  0.00  0.00    +0.000 A 
ATOM     22  C   UNL     1       4.993   5.812  15.946  0.00  0.00    +0.000 A 
ATOM     23  C   UNL     1       6.215   5.372  15.464  0.00  0.00    +0.000 A 
ATOM     24  N   UNL     1       7.398   5.741  15.989  0.00  0.00    +0.000 NA
ATOM     25  C   UNL     1       7.358   6.581  17.046  0.00  0.00    +0.000 A 
ATOM     26  C   UNL     1       6.186   7.100  17.579  0.00  0.00    +0.000 A 
ENDBRANCH   3  21
TORSDOF 4
ENDMDL
MODEL 8
REMARK VINA RESULT:      -7.5      0.964      1.307
REMARK  Name = 
REMARK  5 active torsions:
REMARK  status: ('A' for Active; 'I' for Inactive)
REMARK    1  A    between atoms: C_1  and  O_2
REMARK    2  A    between atoms: O_2  and  C_3
REMARK    3  A    between atoms: C_6  and  N_7
REMARK    4  A    between atoms: C_9  and  C_10
REMARK    5  A    between atoms: C_16  and  C_17
REMARK                            x       y       z     vdW  Elec       q    Type
REMARK                         _______ _______ _______ _____ _____    ______ ____
ROOT
ATOM      1  N   UNL     1       2.312   8.499  18.191  0.00  0.00    +0.000 N 
ATOM      2  N   UNL     1       3.435   8.467  17.429  0.00  0.00    +0.000 NA
ATOM      3  C   UNL     1       3.802   7.177  17.488  0.00  0.00    +0.000 A 
ATOM      4  C   UNL     1       2.793   6.444  18.201  0.00  0.00    +0.000 A 
ATOM      5  N   UNL     1       1.876   7.307  18.664  0.00  0.00    +0.000 NA
ENDROOT
BRANCH   4   6
ATOM      6  C   UNL     1       2.705   5.015  18.492  0.00  0.00    +0.000 A 
ATOM      7  C   UNL     1       3.439   4.468  19.555  0.00  0.00    +0.000 A 
ATOM      8  C   UNL     1       3.496   3.084  19.736  0.00  0.00    +0.000 A 
ATOM      9  C   UNL     1       2.820   2.247  18.856  0.00  0.00    +0.000 A 
ATOM     10  F   UNL     1       2.926   0.919  18.993  0.00  0.00    +0.000 F 
ATOM     11  C   UNL     1       2.044   2.769  17.829  0.00  0.00    +0.000 A 
ATOM     12  C   UNL     1       1.962   4.153  17.665  0.00  0.00    +0.000 A 
ENDBRANCH   4   6
BRANCH   1  16
ATOM     13  C   UNL     1       0.330  12.118  19.131  0.00  0.00    +0.000 A 
ATOM     14  C   UNL     1      -0.259  10.891  19.445  0.00  0.00    +0.000 A 
ATOM     15  C   UNL     1       0.387   9.686  19.135  0.00  0.00    +0.000 A 
ATOM     16  C   UNL     1       1.632   9.709  18.500  0.00  0.00    +0.000 A 
ATOM     17  C   UNL     1       2.207  10.941  18.158  0.00  0.00    +0.000 A 
ATOM     18  C   UNL     1       1.554  12.140  18.465  0.00  0.00    +0.000 A 
BRANCH  13  20
ATOM     19  C   UNL     1      -0.156  14.398  18.720  0.00  0.00    +0.000 C 
ATOM     20  O   UNL     1      -0.390  13.225  19.493  0.00  0.00    +0.000 OA
ENDBRANCH  13  20
ENDBRANCH   1  16
BRANCH   3  21
ATOM     21  C   UNL     1       5.066   6.711  16.907  0.00  0.00    +0.000 A 
ATOM     22  C   UNL     1       6.296   7.102  17.446  0.00  0.00    +0.000 A 
ATOM     23  C   UNL     1       7.460   6.580  16.910  0.00  0.00    +0.000 A 
ATOM     24  N   UNL     1       7.484   5.741  15.857  0.00  0.00    +0.000 NA
ATOM     25  C   UNL     1       6.292   5.417  15.312  0.00  0.00    +0.000 A 
ATOM     26  C   UNL     1       5.072   5.863  15.798  0.00  0.00    +0.000 A 
ENDBRANCH   3  21
TORSDOF 4
ENDMDL
MODEL 9
REMARK VINA RESULT:      -7.5      1.155      1.328
REMARK  Name = 
REMARK  5 active torsions:
REMARK  status: ('A' for Active; 'I' for Inactive)
REMARK    1  A    between atoms: C_1  and  O_2
REMARK    2  A    between atoms: O_2  and  C_3
REMARK    3  A    between atoms: C_6  and  N_7
REMARK    4  A    between atoms: C_9  and  C_10
REMARK    5  A    between atoms: C_16  and  C_17
REMARK                            x       y       z     vdW  Elec       q    Type
REMARK                         _______ _______ _______ _____ _____    ______ ____
ROOT
ATOM      1  N   UNL     1       2.266   8.690  18.067  0.00  0.00    +0.000 N 
ATOM      2  N   UNL     1       3.409   8.588  17.341  0.00  0.00    +0.000 NA
ATOM      3  C   UNL     1       3.735   7.293  17.474  0.00  0.00    +0.000 A 
ATOM      4  C   UNL     1       2.685   6.626  18.193  0.00  0.00    +0.000 A 
ATOM      5  N   UNL     1       1.782   7.537  18.585  0.00  0.00    +0.000 NA
ENDROOT
BRANCH   4   6
ATOM      6  C   UNL     1       2.546   5.216  18.552  0.00  0.00    +0.000 A 
ATOM      7  C   UNL     1       3.344   4.668  19.567  0.00  0.00    +0.000 A 
ATOM      8  C   UNL     1       3.342   3.290  19.802  0.00  0.00    +0.000 A 
ATOM      9  C   UNL     1       2.542   2.463  19.023  0.00  0.00    +0.000 A 
ATOM     10  F   UNL     1       2.587   1.137  19.207  0.00  0.00    +0.000 F 
ATOM     11  C   UNL     1       1.703   2.990  18.050  0.00  0.00    +0.000 A 
ATOM     12  C   UNL     1       1.683   4.369  17.834  0.00  0.00    +0.000 A 
ENDBRANCH   4   6
BRANCH   1  16
ATOM     13  C   UNL     1       0.289  12.376  18.715  0.00  0.00    +0.000 A 
ATOM     14  C   UNL     1       1.648  12.353  18.388  0.00  0.00    +0.000 A 
ATOM     15  C   UNL     1       2.313  11.138  18.175  0.00  0.00    +0.000 A 
ATOM     16  C   UNL     1       1.614   9.934  18.295  0.00  0.00    +0.000 A 
ATOM     17  C   UNL     1       0.259   9.957  18.652  0.00  0.00    +0.000 A 
ATOM     18  C   UNL     1      -0.399  11.173  18.869  0.00  0.00    +0.000 A 
BRANCH  13  20
ATOM     19  C   UNL     1      -1.283  13.720  19.865  0.00  0.00    +0.000 C 
ATOM     20  O   UNL     1      -0.252  13.621  18.887  0.00  0.00    +0.000 OA
ENDBRANCH  13  20
ENDBRANCH   1  16
BRANCH   3  21
ATOM     21  C   UNL     1       5.001   6.762  16.955  0.00  0.00    +0.000 A 
ATOM     22  C   UNL     1       6.226   7.143  17.512  0.00  0.00    +0.000 A 
ATOM     23  C   UNL     1       7.389   6.560  17.037  0.00  0.00    +0.000 A 
ATOM     24  N   UNL     1       7.417   5.671  16.027  0.00  0.00    +0.000 NA
ATOM     25  C   UNL     1       6.232   5.356  15.462  0.00  0.00    +0.000 A 
ATOM     26  C   UNL     1       5.012   5.862  15.888  0.00  0.00    +0.000 A 
ENDBRANCH   3  21
TORSDOF 4
ENDMDL
