MODEL 1
REMARK VINA RESULT:      -7.3      0.000      0.000
REMARK  Name = 
REMARK  6 active torsions:
REMARK  status: ('A' for Active; 'I' for Inactive)
REMARK    1  A    between atoms: C_1  and  C_2
REMARK    2  A    between atoms: C_5  and  S_6
REMARK    3  A    between atoms: S_6  and  N_9
REMARK    4  A    between atoms: N_12  and  C_13
REMARK    5  A    between atoms: C_13  and  C_14
REMARK    6  A    between atoms: C_17  and  C_18
REMARK                            x       y       z     vdW  Elec       q    Type
REMARK                         _______ _______ _______ _____ _____    ______ ____
ROOT
ATOM      1  N   UNL     1       4.191   5.750  18.586  0.00  0.00    +0.000 NA
ATOM      2  C   UNL     1       4.356   5.639  17.121  0.00  0.00    +0.000 C 
ATOM      3  C   UNL     1       5.664   6.362  16.720  0.00  0.00    +0.000 C 
ATOM      4  N   UNL     1       6.885   5.844  17.389  0.00  0.00    +0.000 NA
ATOM      5  C   UNL     1       6.647   5.843  18.858  0.00  0.00    +0.000 C 
ATOM      6  C   UNL     1       5.338   5.165  19.329  0.00  0.00    +0.000 C 
ENDROOT
BRANCH   1   7
ATOM      7  S   UNL     1       2.644   5.623  19.237  0.00  0.00    +0.000 S 
ATOM      8  O   UNL     1       2.762   5.115  20.587  0.00  0.00    +0.000 OA
ATOM      9  O   UNL     1       1.804   4.958  18.264  0.00  0.00    +0.000 OA
BRANCH   7  14
ATOM     10  C   UNL     1       0.416  11.268  19.494  0.00  0.00    +0.000 C 
ATOM     11  C   UNL     1       1.024   9.896  19.446  0.00  0.00    +0.000 A 
ATOM     12  C   UNL     1       1.588   9.407  18.261  0.00  0.00    +0.000 A 
ATOM     13  C   UNL     1       2.115   8.116  18.209  0.00  0.00    +0.000 A 
ATOM     14  C   UNL     1       2.091   7.311  19.352  0.00  0.00    +0.000 A 
ATOM     15  C   UNL     1       1.523   7.783  20.538  0.00  0.00    +0.000 A 
ATOM     16  C   UNL     1       1.000   9.077  20.585  0.00  0.00    +0.000 A 
ENDBRANCH   7  14
ENDBRANCH   1   7
BRANCH   4  17
ATOM     17  C   UNL     1       7.225   4.516  16.846  0.00  0.00    +0.000 C 
BRANCH  17  18
ATOM     18  C   UNL     1       7.019   4.445  15.364  0.00  0.00    +0.000 A 
ATOM     19  C   UNL     1       6.143   3.622  14.683  0.00  0.00    +0.000 A 
ATOM     20  S   UNL     1       6.280   3.885  12.996  0.00  0.00    +0.000 S 
ATOM     21  C   UNL     1       7.482   5.076  13.290  0.00  0.00    +0.000 A 
ATOM     22  C   UNL     1       8.099   5.833  12.168  0.00  0.00    +0.000 C 
ATOM     23  N   UNL     1       7.797   5.263  14.552  0.00  0.00    +0.000 NA
ENDBRANCH  17  18
ENDBRANCH   4  17
TORSDOF 4
ENDMDL
MODEL 2
REMARK VINA RESULT:      -7.2      1.099      1.356
REMARK  Name = 
REMARK  6 active torsions:
REMARK  status: ('A' for Active; 'I' for Inactive)
REMARK    1  A    between atoms: C_1  and  C_2
REMARK    2  A    between atoms: C_5  and  S_6
REMARK    3  A    between atoms: S_6  and  N_9
REMARK    4  A    between atoms: N_12  and  C_13
REMARK    5  A    between atoms: C_13  and  C_14
REMARK    6  A    between atoms: C_17  and  C_18
REMARK                            x       y       z     vdW  Elec       q    Type
REMARK                         _______ _______ _______ _____ _____    ______ ____
ROOT
ATOM      1  N   UNL     1       4.295   5.802  18.127  0.00  0.00    +0.000 NA
ATOM      2  C   UNL     1       4.224   5.506  16.679  0.00  0.00    +0.000 C 
ATOM      3  C   UNL     1       5.327   6.317  15.959  0.00  0.00    +0.000 C 
ATOM      4  N   UNL     1       6.704   6.051  16.443  0.00  0.00    +0.000 NA
ATOM      5  C   UNL     1       6.722   6.229  17.920  0.00  0.00    +0.000 C 
ATOM      6  C   UNL     1       5.623   5.471  18.705  0.00  0.00    +0.000 C 
ENDROOT
BRANCH   1   7
ATOM      7  S   UNL     1       2.916   5.583  19.065  0.00  0.00    +0.000 S 
ATOM      8  O   UNL     1       3.329   5.133  20.377  0.00  0.00    +0.000 OA
ATOM      9  O   UNL     1       1.962   4.822  18.287  0.00  0.00    +0.000 OA
BRANCH   7  14
ATOM     10  C   UNL     1       0.343  11.062  19.566  0.00  0.00    +0.000 C 
ATOM     11  C   UNL     1       1.035   9.734  19.457  0.00  0.00    +0.000 A 
ATOM     12  C   UNL     1       1.598   9.320  18.244  0.00  0.00    +0.000 A 
ATOM     13  C   UNL     1       2.204   8.068  18.135  0.00  0.00    +0.000 A 
ATOM     14  C   UNL     1       2.260   7.226  19.250  0.00  0.00    +0.000 A 
ATOM     15  C   UNL     1       1.694   7.623  20.465  0.00  0.00    +0.000 A 
ATOM     16  C   UNL     1       1.092   8.879  20.568  0.00  0.00    +0.000 A 
ENDBRANCH   7  14
ENDBRANCH   1   7
BRANCH   4  17
ATOM     17  C   UNL     1       7.137   4.710  16.006  0.00  0.00    +0.000 C 
BRANCH  17  18
ATOM     18  C   UNL     1       7.050   4.550  14.520  0.00  0.00    +0.000 A 
ATOM     19  C   UNL     1       7.771   5.240  13.563  0.00  0.00    +0.000 A 
ATOM     20  S   UNL     1       7.309   4.726  11.996  0.00  0.00    +0.000 S 
ATOM     21  C   UNL     1       6.196   3.622  12.696  0.00  0.00    +0.000 A 
ATOM     22  C   UNL     1       5.377   2.718  11.846  0.00  0.00    +0.000 C 
ATOM     23  N   UNL     1       6.134   3.636  14.009  0.00  0.00    +0.000 NA
ENDBRANCH  17  18
ENDBRANCH   4  17
TORSDOF 4
ENDMDL
MODEL 3
REMARK VINA RESULT:      -7.2      3.143      7.350
REMARK  Name = 
REMARK  6 active torsions:
REMARK  status: ('A' for Active; 'I' for Inactive)
REMARK    1  A    between atoms: C_1  and  C_2
REMARK    2  A    between atoms: C_5  and  S_6
REMARK    3  A    between atoms: S_6  and  N_9
REMARK    4  A    between atoms: N_12  and  C_13
REMARK    5  A    between atoms: C_13  and  C_14
REMARK    6  A    between atoms: C_17  and  C_18
REMARK                            x       y       z     vdW  Elec       q    Type
REMARK                         _______ _______ _______ _____ _____    ______ ____
ROOT
ATOM      1  N   UNL     1       5.697   6.001  17.496  0.00  0.00    +0.000 NA
ATOM      2  C   UNL     1       5.040   4.925  18.269  0.00  0.00    +0.000 C 
ATOM      3  C   UNL     1       4.116   5.575  19.326  0.00  0.00    +0.000 C 
ATOM      4  N   UNL     1       3.077   6.476  18.765  0.00  0.00    +0.000 NA
ATOM      5  C   UNL     1       3.747   7.472  17.887  0.00  0.00    +0.000 C 
ATOM      6  C   UNL     1       4.715   6.893  16.825  0.00  0.00    +0.000 C 
ENDROOT
BRANCH   1   7
ATOM      7  S   UNL     1       7.158   5.671  16.730  0.00  0.00    +0.000 S 
ATOM      8  O   UNL     1       7.847   4.653  17.494  0.00  0.00    +0.000 OA
ATOM      9  O   UNL     1       7.799   6.932  16.426  0.00  0.00    +0.000 OA
BRANCH   7  14
ATOM     10  C   UNL     1       5.742   2.872  11.529  0.00  0.00    +0.000 C 
ATOM     11  C   UNL     1       6.057   3.613  12.796  0.00  0.00    +0.000 A 
ATOM     12  C   UNL     1       7.169   4.461  12.868  0.00  0.00    +0.000 A 
ATOM     13  C   UNL     1       7.482   5.117  14.059  0.00  0.00    +0.000 A 
ATOM     14  C   UNL     1       6.673   4.935  15.184  0.00  0.00    +0.000 A 
ATOM     15  C   UNL     1       5.565   4.085  15.129  0.00  0.00    +0.000 A 
ATOM     16  C   UNL     1       5.254   3.433  13.933  0.00  0.00    +0.000 A 
ENDBRANCH   7  14
ENDBRANCH   1   7
BRANCH   4  17
ATOM     17  C   UNL     1       2.046   5.679  18.073  0.00  0.00    +0.000 C 
BRANCH  17  18
ATOM     18  C   UNL     1       1.858   4.334  18.706  0.00  0.00    +0.000 A 
ATOM     19  C   UNL     1       1.850   3.107  18.070  0.00  0.00    +0.000 A 
ATOM     20  S   UNL     1       1.577   1.857  19.209  0.00  0.00    +0.000 S 
ATOM     21  C   UNL     1       1.499   3.029  20.462  0.00  0.00    +0.000 A 
ATOM     22  C   UNL     1       1.296   2.622  21.877  0.00  0.00    +0.000 C 
ATOM     23  N   UNL     1       1.637   4.278  20.078  0.00  0.00    +0.000 NA
ENDBRANCH  17  18
ENDBRANCH   4  17
TORSDOF 4
ENDMDL
MODEL 4
REMARK VINA RESULT:      -7.1      0.248      1.040
REMARK  Name = 
REMARK  6 active torsions:
REMARK  status: ('A' for Active; 'I' for Inactive)
REMARK    1  A    between atoms: C_1  and  C_2
REMARK    2  A    between atoms: C_5  and  S_6
REMARK    3  A    between atoms: S_6  and  N_9
REMARK    4  A    between atoms: N_12  and  C_13
REMARK    5  A    between atoms: C_13  and  C_14
REMARK    6  A    between atoms: C_17  and  C_18
REMARK                            x       y       z     vdW  Elec       q    Type
REMARK                         _______ _______ _______ _____ _____    ______ ____
ROOT
ATOM      1  N   UNL     1       4.141   5.608  18.639  0.00  0.00    +0.000 NA
ATOM      2  C   UNL     1       4.256   5.484  17.170  0.00  0.00    +0.000 C 
ATOM      3  C   UNL     1       5.494   6.286  16.705  0.00  0.00    +0.000 C 
ATOM      4  N   UNL     1       6.773   5.865  17.331  0.00  0.00    +0.000 NA
ATOM      5  C   UNL     1       6.595   5.873  18.808  0.00  0.00    +0.000 C 
ATOM      6  C   UNL     1       5.355   5.116  19.343  0.00  0.00    +0.000 C 
ENDROOT
BRANCH   1   7
ATOM      7  S   UNL     1       2.635   5.388  19.354  0.00  0.00    +0.000 S 
ATOM      8  O   UNL     1       2.841   4.902  20.702  0.00  0.00    +0.000 OA
ATOM      9  O   UNL     1       1.800   4.660  18.422  0.00  0.00    +0.000 OA
BRANCH   7  14
ATOM     10  C   UNL     1       0.730  11.128  19.918  0.00  0.00    +0.000 C 
ATOM     11  C   UNL     1       1.142   9.692  19.763  0.00  0.00    +0.000 A 
ATOM     12  C   UNL     1       1.080   8.812  20.851  0.00  0.00    +0.000 A 
ATOM     13  C   UNL     1       1.502   7.489  20.714  0.00  0.00    +0.000 A 
ATOM     14  C   UNL     1       1.977   7.037  19.480  0.00  0.00    +0.000 A 
ATOM     15  C   UNL     1       2.052   7.907  18.389  0.00  0.00    +0.000 A 
ATOM     16  C   UNL     1       1.625   9.230  18.530  0.00  0.00    +0.000 A 
ENDBRANCH   7  14
ENDBRANCH   1   7
BRANCH   4  17
ATOM     17  C   UNL     1       7.182   4.553  16.794  0.00  0.00    +0.000 C 
BRANCH  17  18
ATOM     18  C   UNL     1       7.005   4.475  15.309  0.00  0.00    +0.000 A 
ATOM     19  C   UNL     1       6.157   3.632  14.614  0.00  0.00    +0.000 A 
ATOM     20  S   UNL     1       6.321   3.893  12.930  0.00  0.00    +0.000 S 
ATOM     21  C   UNL     1       7.494   5.108  13.242  0.00  0.00    +0.000 A 
ATOM     22  C   UNL     1       8.117   5.873  12.129  0.00  0.00    +0.000 C 
ATOM     23  N   UNL     1       7.782   5.305  14.508  0.00  0.00    +0.000 NA
ENDBRANCH  17  18
ENDBRANCH   4  17
TORSDOF 4
ENDMDL
MODEL 5
REMARK VINA RESULT:      -7.1      3.130      7.318
REMARK  Name = 
REMARK  6 active torsions:
REMARK  status: ('A' for Active; 'I' for Inactive)
REMARK    1  A    between atoms: C_1  and  C_2
REMARK    2  A    between atoms: C_5  and  S_6
REMARK    3  A    between atoms: S_6  and  N_9
REMARK    4  A    between atoms: N_12  and  C_13
REMARK    5  A    between atoms: C_13  and  C_14
REMARK    6  A    between atoms: C_17  and  C_18
REMARK                            x       y       z     vdW  Elec       q    Type
REMARK                         _______ _______ _______ _____ _____    ______ ____
ROOT
ATOM      1  N   UNL     1       5.641   6.106  17.640  0.00  0.00    +0.000 NA
ATOM      2  C   UNL     1       4.985   5.042  18.431  0.00  0.00    +0.000 C 
ATOM      3  C   UNL     1       3.955   5.701  19.379  0.00  0.00    +0.000 C 
ATOM      4  N   UNL     1       2.916   6.510  18.693  0.00  0.00    +0.000 NA
ATOM      5  C   UNL     1       3.597   7.489  17.804  0.00  0.00    +0.000 C 
ATOM      6  C   UNL     1       4.667   6.903  16.850  0.00  0.00    +0.000 C 
ENDROOT
BRANCH   1   7
ATOM      7  S   UNL     1       7.168   5.811  16.999  0.00  0.00    +0.000 S 
ATOM      8  O   UNL     1       7.864   4.904  17.888  0.00  0.00    +0.000 OA
ATOM      9  O   UNL     1       7.752   7.083  16.631  0.00  0.00    +0.000 OA
BRANCH   7  14
ATOM     10  C   UNL     1       5.730   3.014  11.802  0.00  0.00    +0.000 C 
ATOM     11  C   UNL     1       6.130   3.662  13.097  0.00  0.00    +0.000 A 
ATOM     12  C   UNL     1       5.528   3.278  14.301  0.00  0.00    +0.000 A 
ATOM     13  C   UNL     1       5.873   3.910  15.497  0.00  0.00    +0.000 A 
ATOM     14  C   UNL     1       6.835   4.924  15.492  0.00  0.00    +0.000 A 
ATOM     15  C   UNL     1       7.437   5.323  14.296  0.00  0.00    +0.000 A 
ATOM     16  C   UNL     1       7.091   4.685  13.103  0.00  0.00    +0.000 A 
ENDBRANCH   7  14
ENDBRANCH   1   7
BRANCH   4  17
ATOM     17  C   UNL     1       1.979   5.620  17.982  0.00  0.00    +0.000 C 
BRANCH  17  18
ATOM     18  C   UNL     1       1.867   4.281  18.644  0.00  0.00    +0.000 A 
ATOM     19  C   UNL     1       1.978   3.042  18.041  0.00  0.00    +0.000 A 
ATOM     20  S   UNL     1       1.752   1.802  19.201  0.00  0.00    +0.000 S 
ATOM     21  C   UNL     1       1.533   2.994  20.418  0.00  0.00    +0.000 A 
ATOM     22  C   UNL     1       1.302   2.607  21.835  0.00  0.00    +0.000 C 
ATOM     23  N   UNL     1       1.592   4.241  20.007  0.00  0.00    +0.000 NA
ENDBRANCH  17  18
ENDBRANCH   4  17
TORSDOF 4
ENDMDL
MODEL 6
REMARK VINA RESULT:      -6.9      1.030      1.635
REMARK  Name = 
REMARK  6 active torsions:
REMARK  status: ('A' for Active; 'I' for Inactive)
REMARK    1  A    between atoms: C_1  and  C_2
REMARK    2  A    between atoms: C_5  and  S_6
REMARK    3  A    between atoms: S_6  and  N_9
REMARK    4  A    between atoms: N_12  and  C_13
REMARK    5  A    between atoms: C_13  and  C_14
REMARK    6  A    between atoms: C_17  and  C_18
REMARK                            x       y       z     vdW  Elec       q    Type
REMARK                         _______ _______ _______ _____ _____    ______ ____
ROOT
ATOM      1  N   UNL     1       4.228   5.714  18.283  0.00  0.00    +0.000 NA
ATOM      2  C   UNL     1       4.194   5.501  16.820  0.00  0.00    +0.000 C 
ATOM      3  C   UNL     1       5.361   6.292  16.183  0.00  0.00    +0.000 C 
ATOM      4  N   UNL     1       6.705   5.930  16.697  0.00  0.00    +0.000 NA
ATOM      5  C   UNL     1       6.679   6.026  18.181  0.00  0.00    +0.000 C 
ATOM      6  C   UNL     1       5.517   5.284  18.886  0.00  0.00    +0.000 C 
ENDROOT
BRANCH   1   7
ATOM      7  S   UNL     1       2.807   5.515  19.161  0.00  0.00    +0.000 S 
ATOM      8  O   UNL     1       3.161   5.157  20.519  0.00  0.00    +0.000 OA
ATOM      9  O   UNL     1       1.913   4.683  18.384  0.00  0.00    +0.000 OA
BRANCH   7  14
ATOM     10  C   UNL     1       0.747  11.222  19.446  0.00  0.00    +0.000 C 
ATOM     11  C   UNL     1       1.197   9.792  19.363  0.00  0.00    +0.000 A 
ATOM     12  C   UNL     1       1.199   8.978  20.503  0.00  0.00    +0.000 A 
ATOM     13  C   UNL     1       1.656   7.662  20.432  0.00  0.00    +0.000 A 
ATOM     14  C   UNL     1       2.104   7.149  19.211  0.00  0.00    +0.000 A 
ATOM     15  C   UNL     1       2.115   7.952  18.068  0.00  0.00    +0.000 A 
ATOM     16  C   UNL     1       1.653   9.268  18.144  0.00  0.00    +0.000 A 
ENDBRANCH   7  14
ENDBRANCH   1   7
BRANCH   4  17
ATOM     17  C   UNL     1       7.086   4.594  16.200  0.00  0.00    +0.000 C 
BRANCH  17  18
ATOM     18  C   UNL     1       7.022   4.512  14.706  0.00  0.00    +0.000 A 
ATOM     19  C   UNL     1       7.760   5.248  13.798  0.00  0.00    +0.000 A 
ATOM     20  S   UNL     1       7.321   4.819  12.199  0.00  0.00    +0.000 S 
ATOM     21  C   UNL     1       6.192   3.686  12.824  0.00  0.00    +0.000 A 
ATOM     22  C   UNL     1       5.384   2.832  11.914  0.00  0.00    +0.000 C 
ATOM     23  N   UNL     1       6.111   3.631  14.134  0.00  0.00    +0.000 NA
ENDBRANCH  17  18
ENDBRANCH   4  17
TORSDOF 4
ENDMDL
MODEL 7
REMARK VINA RESULT:      -6.8      2.729      8.064
REMARK  Name = 
REMARK  6 active torsions:
REMARK  status: ('A' for Active; 'I' for Inactive)
REMARK    1  A    between atoms: C_1  and  C_2
REMARK    2  A    between atoms: C_5  and  S_6
REMARK    3  A    between atoms: S_6  and  N_9
REMARK    4  A    between atoms: N_12  and  C_13
REMARK    5  A    between atoms: C_13  and  C_14
REMARK    6  A    between atoms: C_17  and  C_18
REMARK                            x       y       z     vdW  Elec       q    Type
REMARK                         _______ _______ _______ _____ _____    ______ ____
ROOT
ATOM      1  N   UNL     1       3.981   5.254  19.268  0.00  0.00    +0.000 NA
ATOM      2  C   UNL     1       4.030   6.698  18.949  0.00  0.00    +0.000 C 
ATOM      3  C   UNL     1       2.598   7.174  18.613  0.00  0.00    +0.000 C 
ATOM      4  N   UNL     1       1.603   6.947  19.691  0.00  0.00    +0.000 NA
ATOM      5  C   UNL     1       1.661   5.513  20.085  0.00  0.00    +0.000 C 
ATOM      6  C   UNL     1       3.071   4.959  20.405  0.00  0.00    +0.000 C 
ENDROOT
BRANCH   1   7
ATOM      7  S   UNL     1       5.378   4.337  19.078  0.00  0.00    +0.000 S 
ATOM      8  O   UNL     1       5.063   2.961  19.402  0.00  0.00    +0.000 OA
ATOM      9  O   UNL     1       6.461   5.027  19.745  0.00  0.00    +0.000 OA
BRANCH   7  14
ATOM     10  C   UNL     1       6.619   4.225  13.133  0.00  0.00    +0.000 C 
ATOM     11  C   UNL     1       6.296   4.314  14.596  0.00  0.00    +0.000 A 
ATOM     12  C   UNL     1       7.278   4.689  15.521  0.00  0.00    +0.000 A 
ATOM     13  C   UNL     1       6.986   4.731  16.885  0.00  0.00    +0.000 A 
ATOM     14  C   UNL     1       5.700   4.408  17.329  0.00  0.00    +0.000 A 
ATOM     15  C   UNL     1       4.713   4.023  16.418  0.00  0.00    +0.000 A 
ATOM     16  C   UNL     1       5.010   3.986  15.053  0.00  0.00    +0.000 A 
ENDBRANCH   7  14
ENDBRANCH   1   7
BRANCH   4  17
ATOM     17  C   UNL     1       1.856   7.876  20.808  0.00  0.00    +0.000 C 
BRANCH  17  18
ATOM     18  C   UNL     1       0.884   9.016  20.820  0.00  0.00    +0.000 A 
ATOM     19  C   UNL     1       0.446   9.750  19.734  0.00  0.00    +0.000 A 
ATOM     20  S   UNL     1      -0.645  10.966  20.248  0.00  0.00    +0.000 S 
ATOM     21  C   UNL     1      -0.466  10.428  21.869  0.00  0.00    +0.000 A 
ATOM     22  C   UNL     1      -1.225  11.068  22.976  0.00  0.00    +0.000 C 
ATOM     23  N   UNL     1       0.367   9.427  22.044  0.00  0.00    +0.000 NA
ENDBRANCH  17  18
ENDBRANCH   4  17
TORSDOF 4
ENDMDL
MODEL 8
REMARK VINA RESULT:      -6.5      2.683      7.983
REMARK  Name = 
REMARK  6 active torsions:
REMARK  status: ('A' for Active; 'I' for Inactive)
REMARK    1  A    between atoms: C_1  and  C_2
REMARK    2  A    between atoms: C_5  and  S_6
REMARK    3  A    between atoms: S_6  and  N_9
REMARK    4  A    between atoms: N_12  and  C_13
REMARK    5  A    between atoms: C_13  and  C_14
REMARK    6  A    between atoms: C_17  and  C_18
REMARK                            x       y       z     vdW  Elec       q    Type
REMARK                         _______ _______ _______ _____ _____    ______ ____
ROOT
ATOM      1  N   UNL     1       4.080   5.244  19.249  0.00  0.00    +0.000 NA
ATOM      2  C   UNL     1       4.168   6.694  18.972  0.00  0.00    +0.000 C 
ATOM      3  C   UNL     1       2.773   7.193  18.525  0.00  0.00    +0.000 C 
ATOM      4  N   UNL     1       1.687   6.950  19.508  0.00  0.00    +0.000 NA
ATOM      5  C   UNL     1       1.700   5.507  19.871  0.00  0.00    +0.000 C 
ATOM      6  C   UNL     1       3.073   4.931  20.297  0.00  0.00    +0.000 C 
ENDROOT
BRANCH   1   7
ATOM      7  S   UNL     1       5.480   4.317  19.157  0.00  0.00    +0.000 S 
ATOM      8  O   UNL     1       5.161   2.971  19.584  0.00  0.00    +0.000 OA
ATOM      9  O   UNL     1       6.551   5.061  19.785  0.00  0.00    +0.000 OA
BRANCH   7  14
ATOM     10  C   UNL     1       6.551   4.443  13.179  0.00  0.00    +0.000 C 
ATOM     11  C   UNL     1       6.302   4.351  14.657  0.00  0.00    +0.000 A 
ATOM     12  C   UNL     1       5.038   3.998  15.146  0.00  0.00    +0.000 A 
ATOM     13  C   UNL     1       4.799   3.952  16.520  0.00  0.00    +0.000 A 
ATOM     14  C   UNL     1       5.833   4.249  17.414  0.00  0.00    +0.000 A 
ATOM     15  C   UNL     1       7.096   4.612  16.939  0.00  0.00    +0.000 A 
ATOM     16  C   UNL     1       7.330   4.653  15.562  0.00  0.00    +0.000 A 
ENDBRANCH   7  14
ENDBRANCH   1   7
BRANCH   4  17
ATOM     17  C   UNL     1       1.851   7.850  20.665  0.00  0.00    +0.000 C 
BRANCH  17  18
ATOM     18  C   UNL     1       0.904   9.009  20.612  0.00  0.00    +0.000 A 
ATOM     19  C   UNL     1       0.470   9.680  19.485  0.00  0.00    +0.000 A 
ATOM     20  S   UNL     1      -0.589  10.951  19.928  0.00  0.00    +0.000 S 
ATOM     21  C   UNL     1      -0.403  10.516  21.579  0.00  0.00    +0.000 A 
ATOM     22  C   UNL     1      -1.136  11.244  22.649  0.00  0.00    +0.000 C 
ATOM     23  N   UNL     1       0.410   9.511  21.812  0.00  0.00    +0.000 NA
ENDBRANCH  17  18
ENDBRANCH   4  17
TORSDOF 4
ENDMDL
MODEL 9
REMARK VINA RESULT:      -6.5      1.466      1.915
REMARK  Name = 
REMARK  6 active torsions:
REMARK  status: ('A' for Active; 'I' for Inactive)
REMARK    1  A    between atoms: C_1  and  C_2
REMARK    2  A    between atoms: C_5  and  S_6
REMARK    3  A    between atoms: S_6  and  N_9
REMARK    4  A    between atoms: N_12  and  C_13
REMARK    5  A    between atoms: C_13  and  C_14
REMARK    6  A    between atoms: C_17  and  C_18
REMARK                            x       y       z     vdW  Elec       q    Type
REMARK                         _______ _______ _______ _____ _____    ______ ____
ROOT
ATOM      1  N   UNL     1       3.697   4.661  18.659  0.00  0.00    +0.000 NA
ATOM      2  C   UNL     1       4.883   5.541  18.729  0.00  0.00    +0.000 C 
ATOM      3  C   UNL     1       6.114   4.745  18.233  0.00  0.00    +0.000 C 
ATOM      4  N   UNL     1       5.986   4.207  16.855  0.00  0.00    +0.000 NA
ATOM      5  C   UNL     1       4.720   3.431  16.772  0.00  0.00    +0.000 C 
ATOM      6  C   UNL     1       3.450   4.155  17.283  0.00  0.00    +0.000 C 
ENDROOT
BRANCH   1   7
ATOM      7  S   UNL     1       2.384   4.993  19.657  0.00  0.00    +0.000 S 
ATOM      8  O   UNL     1       2.802   4.805  21.030  0.00  0.00    +0.000 OA
ATOM      9  O   UNL     1       1.233   4.293  19.129  0.00  0.00    +0.000 OA
BRANCH   7  14
ATOM     10  C   UNL     1       1.060  10.851  18.747  0.00  0.00    +0.000 C 
ATOM     11  C   UNL     1       1.447   9.420  18.983  0.00  0.00    +0.000 A 
ATOM     12  C   UNL     1       1.893   8.618  17.925  0.00  0.00    +0.000 A 
ATOM     13  C   UNL     1       2.214   7.277  18.139  0.00  0.00    +0.000 A 
ATOM     14  C   UNL     1       2.101   6.734  19.423  0.00  0.00    +0.000 A 
ATOM     15  C   UNL     1       1.648   7.520  20.486  0.00  0.00    +0.000 A 
ATOM     16  C   UNL     1       1.332   8.863  20.266  0.00  0.00    +0.000 A 
ENDBRANCH   7  14
ENDBRANCH   1   7
BRANCH   4  17
ATOM     17  C   UNL     1       6.067   5.310  15.880  0.00  0.00    +0.000 C 
BRANCH  17  18
ATOM     18  C   UNL     1       6.377   4.817  14.500  0.00  0.00    +0.000 A 
ATOM     19  C   UNL     1       7.502   5.097  13.747  0.00  0.00    +0.000 A 
ATOM     20  S   UNL     1       7.396   4.325  12.223  0.00  0.00    +0.000 S 
ATOM     21  C   UNL     1       5.875   3.667  12.672  0.00  0.00    +0.000 A 
ATOM     22  C   UNL     1       5.129   2.768  11.752  0.00  0.00    +0.000 C 
ATOM     23  N   UNL     1       5.440   4.009  13.864  0.00  0.00    +0.000 NA
ENDBRANCH  17  18
ENDBRANCH   4  17
TORSDOF 4
ENDMDL
