MODEL 1
REMARK VINA RESULT:      -6.6      0.000      0.000
REMARK  Name = 
REMARK  8 active torsions:
REMARK  status: ('A' for Active; 'I' for Inactive)
REMARK    1  A    between atoms: C_1  and  C_2
REMARK    2  A    between atoms: C_2  and  S_3
REMARK    3  A    between atoms: S_3  and  C_4
REMARK    4  A    between atoms: C_7  and  C_8
REMARK    5  A    between atoms: C_8  and  N_9
REMARK    6  A    between atoms: N_12  and  C_13
REMARK    7  A    between atoms: C_15  and  C_16
REMARK    8  A    between atoms: C_19  and  C_20
REMARK                            x       y       z     vdW  Elec       q    Type
REMARK                         _______ _______ _______ _____ _____    ______ ____
ROOT
ATOM      1  N   UNL     1       1.174   8.926  19.304  0.00  0.00    +0.000 NA
ATOM      2  C   UNL     1       1.691   8.242  20.503  0.00  0.00    +0.000 C 
ATOM      3  C   UNL     1       1.686   6.719  20.262  0.00  0.00    +0.000 C 
ATOM      4  N   UNL     1       2.433   6.354  19.040  0.00  0.00    +0.000 N 
ATOM      5  C   UNL     1       2.156   7.169  17.853  0.00  0.00    +0.000 C 
ATOM      6  C   UNL     1       2.080   8.682  18.181  0.00  0.00    +0.000 C 
ENDROOT
BRANCH   4   7
ATOM      7  C   UNL     1       3.450   5.433  19.138  0.00  0.00    +0.000 A 
ATOM      8  N   UNL     1       4.706   5.924  19.063  0.00  0.00    +0.000 NA
ATOM      9  C   UNL     1       5.755   5.092  19.171  0.00  0.00    +0.000 A 
ATOM     10  C   UNL     1       7.129   5.680  19.096  0.00  0.00    +0.000 C 
ATOM     11  N   UNL     1       5.662   3.772  19.353  0.00  0.00    +0.000 NA
ATOM     12  C   UNL     1       4.410   3.295  19.434  0.00  0.00    +0.000 A 
ATOM     13  C   UNL     1       3.259   4.065  19.341  0.00  0.00    +0.000 A 
ATOM     14  C   UNL     1       1.941   3.378  19.521  0.00  0.00    +0.000 C 
ENDBRANCH   4   7
BRANCH   1  15
ATOM     15  C   UNL     1       0.681  10.281  19.472  0.00  0.00    +0.000 C 
BRANCH  15  19
ATOM     16  C   UNL     1      -3.057  11.280  17.813  0.00  0.00    +0.000 A 
ATOM     17  N   UNL     1      -2.738  11.840  18.996  0.00  0.00    +0.000 NA
ATOM     18  C   UNL     1      -1.542  11.498  19.517  0.00  0.00    +0.000 A 
ATOM     19  C   UNL     1      -0.661  10.627  18.912  0.00  0.00    +0.000 A 
ATOM     20  C   UNL     1      -1.084  10.139  17.693  0.00  0.00    +0.000 A 
ATOM     21  N   UNL     1      -2.266  10.440  17.130  0.00  0.00    +0.000 NA
BRANCH  16  22
ATOM     22  S   UNL     1      -4.668  11.581  17.141  0.00  0.00    +0.000 S 
BRANCH  22  24
ATOM     23  C   UNL     1      -6.576  10.551  18.784  0.00  0.00    +0.000 C 
ATOM     24  C   UNL     1      -5.611  11.721  18.684  0.00  0.00    +0.000 C 
ENDBRANCH  22  24
ENDBRANCH  16  22
ENDBRANCH  15  19
ENDBRANCH   1  15
TORSDOF 5
ENDMDL
MODEL 2
REMARK VINA RESULT:      -6.5      3.750      9.058
REMARK  Name = 
REMARK  8 active torsions:
REMARK  status: ('A' for Active; 'I' for Inactive)
REMARK    1  A    between atoms: C_1  and  C_2
REMARK    2  A    between atoms: C_2  and  S_3
REMARK    3  A    between atoms: S_3  and  C_4
REMARK    4  A    between atoms: C_7  and  C_8
REMARK    5  A    between atoms: C_8  and  N_9
REMARK    6  A    between atoms: N_12  and  C_13
REMARK    7  A    between atoms: C_15  and  C_16
REMARK    8  A    between atoms: C_19  and  C_20
REMARK                            x       y       z     vdW  Elec       q    Type
REMARK                         _______ _______ _______ _____ _____    ______ ____
ROOT
ATOM      1  N   UNL     1       2.596   7.437  19.067  0.00  0.00    +0.000 NA
ATOM      2  C   UNL     1       1.582   7.693  20.106  0.00  0.00    +0.000 C 
ATOM      3  C   UNL     1       1.385   9.215  20.260  0.00  0.00    +0.000 C 
ATOM      4  N   UNL     1       1.046   9.857  18.973  0.00  0.00    +0.000 N 
ATOM      5  C   UNL     1       1.859   9.453  17.821  0.00  0.00    +0.000 C 
ATOM      6  C   UNL     1       2.100   7.922  17.779  0.00  0.00    +0.000 C 
ENDROOT
BRANCH   4   7
ATOM      7  C   UNL     1      -0.097  10.621  18.896  0.00  0.00    +0.000 A 
ATOM      8  N   UNL     1      -1.165  10.033  18.315  0.00  0.00    +0.000 NA
ATOM      9  C   UNL     1      -2.325  10.704  18.220  0.00  0.00    +0.000 A 
ATOM     10  C   UNL     1      -3.487  10.011  17.581  0.00  0.00    +0.000 C 
ATOM     11  N   UNL     1      -2.521  11.948  18.667  0.00  0.00    +0.000 NA
ATOM     12  C   UNL     1      -1.456  12.518  19.250  0.00  0.00    +0.000 A 
ATOM     13  C   UNL     1      -0.217  11.915  19.404  0.00  0.00    +0.000 A 
ATOM     14  C   UNL     1       0.844  12.673  20.140  0.00  0.00    +0.000 C 
ENDBRANCH   4   7
BRANCH   1  15
ATOM     15  C   UNL     1       3.245   6.139  19.077  0.00  0.00    +0.000 C 
BRANCH  15  19
ATOM     16  C   UNL     1       5.719   5.196  15.804  0.00  0.00    +0.000 A 
ATOM     17  N   UNL     1       4.897   4.229  16.254  0.00  0.00    +0.000 NA
ATOM     18  C   UNL     1       4.122   4.546  17.310  0.00  0.00    +0.000 A 
ATOM     19  C   UNL     1       4.135   5.777  17.932  0.00  0.00    +0.000 A 
ATOM     20  C   UNL     1       4.996   6.695  17.367  0.00  0.00    +0.000 A 
ATOM     21  N   UNL     1       5.795   6.433  16.318  0.00  0.00    +0.000 NA
BRANCH  16  22
ATOM     22  S   UNL     1       6.859   4.803  14.507  0.00  0.00    +0.000 S 
BRANCH  22  24
ATOM     23  C   UNL     1       6.515   3.465  12.164  0.00  0.00    +0.000 C 
ATOM     24  C   UNL     1       5.762   3.841  13.429  0.00  0.00    +0.000 C 
ENDBRANCH  22  24
ENDBRANCH  16  22
ENDBRANCH  15  19
ENDBRANCH   1  15
TORSDOF 5
ENDMDL
MODEL 3
REMARK VINA RESULT:      -6.5      2.821      4.147
REMARK  Name = 
REMARK  8 active torsions:
REMARK  status: ('A' for Active; 'I' for Inactive)
REMARK    1  A    between atoms: C_1  and  C_2
REMARK    2  A    between atoms: C_2  and  S_3
REMARK    3  A    between atoms: S_3  and  C_4
REMARK    4  A    between atoms: C_7  and  C_8
REMARK    5  A    between atoms: C_8  and  N_9
REMARK    6  A    between atoms: N_12  and  C_13
REMARK    7  A    between atoms: C_15  and  C_16
REMARK    8  A    between atoms: C_19  and  C_20
REMARK                            x       y       z     vdW  Elec       q    Type
REMARK                         _______ _______ _______ _____ _____    ______ ____
ROOT
ATOM      1  N   UNL     1       2.143   6.353  19.788  0.00  0.00    +0.000 NA
ATOM      2  C   UNL     1       2.856   5.076  19.968  0.00  0.00    +0.000 C 
ATOM      3  C   UNL     1       3.193   4.484  18.585  0.00  0.00    +0.000 C 
ATOM      4  N   UNL     1       3.950   5.438  17.748  0.00  0.00    +0.000 N 
ATOM      5  C   UNL     1       3.440   6.812  17.723  0.00  0.00    +0.000 C 
ATOM      6  C   UNL     1       3.029   7.314  19.132  0.00  0.00    +0.000 C 
ENDROOT
BRANCH   4   7
ATOM      7  C   UNL     1       5.157   5.040  17.219  0.00  0.00    +0.000 A 
ATOM      8  N   UNL     1       5.145   4.685  15.916  0.00  0.00    +0.000 NA
ATOM      9  C   UNL     1       6.287   4.305  15.319  0.00  0.00    +0.000 A 
ATOM     10  C   UNL     1       6.231   3.932  13.870  0.00  0.00    +0.000 C 
ATOM     11  N   UNL     1       7.477   4.246  15.923  0.00  0.00    +0.000 NA
ATOM     12  C   UNL     1       7.478   4.609  17.214  0.00  0.00    +0.000 A 
ATOM     13  C   UNL     1       6.361   5.022  17.925  0.00  0.00    +0.000 A 
ATOM     14  C   UNL     1       6.555   5.457  19.345  0.00  0.00    +0.000 C 
ENDBRANCH   4   7
BRANCH   1  15
ATOM     15  C   UNL     1       1.357   6.839  20.909  0.00  0.00    +0.000 C 
BRANCH  15  19
ATOM     16  C   UNL     1       0.571  10.972  21.060  0.00  0.00    +0.000 A 
ATOM     17  N   UNL     1       1.036  10.391  22.183  0.00  0.00    +0.000 NA
ATOM     18  C   UNL     1       1.269   9.065  22.118  0.00  0.00    +0.000 A 
ATOM     19  C   UNL     1       1.058   8.301  20.990  0.00  0.00    +0.000 A 
ATOM     20  C   UNL     1       0.608   9.009  19.895  0.00  0.00    +0.000 A 
ATOM     21  N   UNL     1       0.352  10.329  19.904  0.00  0.00    +0.000 NA
BRANCH  16  22
ATOM     22  S   UNL     1       0.115  12.682  21.118  0.00  0.00    +0.000 S 
BRANCH  22  24
ATOM     23  C   UNL     1      -0.195  13.876  18.693  0.00  0.00    +0.000 C 
ATOM     24  C   UNL     1      -0.814  12.795  19.564  0.00  0.00    +0.000 C 
ENDBRANCH  22  24
ENDBRANCH  16  22
ENDBRANCH  15  19
ENDBRANCH   1  15
TORSDOF 5
ENDMDL
MODEL 4
REMARK VINA RESULT:      -6.4      2.635      4.093
REMARK  Name = 
REMARK  8 active torsions:
REMARK  status: ('A' for Active; 'I' for Inactive)
REMARK    1  A    between atoms: C_1  and  C_2
REMARK    2  A    between atoms: C_2  and  S_3
REMARK    3  A    between atoms: S_3  and  C_4
REMARK    4  A    between atoms: C_7  and  C_8
REMARK    5  A    between atoms: C_8  and  N_9
REMARK    6  A    between atoms: N_12  and  C_13
REMARK    7  A    between atoms: C_15  and  C_16
REMARK    8  A    between atoms: C_19  and  C_20
REMARK                            x       y       z     vdW  Elec       q    Type
REMARK                         _______ _______ _______ _____ _____    ______ ____
ROOT
ATOM      1  N   UNL     1       2.116   6.284  19.837  0.00  0.00    +0.000 NA
ATOM      2  C   UNL     1       2.874   5.034  20.029  0.00  0.00    +0.000 C 
ATOM      3  C   UNL     1       3.215   4.431  18.652  0.00  0.00    +0.000 C 
ATOM      4  N   UNL     1       3.930   5.396  17.791  0.00  0.00    +0.000 N 
ATOM      5  C   UNL     1       3.374   6.752  17.750  0.00  0.00    +0.000 C 
ATOM      6  C   UNL     1       2.962   7.263  19.155  0.00  0.00    +0.000 C 
ENDROOT
BRANCH   4   7
ATOM      7  C   UNL     1       5.144   5.031  17.254  0.00  0.00    +0.000 A 
ATOM      8  N   UNL     1       5.131   4.667  15.954  0.00  0.00    +0.000 NA
ATOM      9  C   UNL     1       6.279   4.316  15.349  0.00  0.00    +0.000 A 
ATOM     10  C   UNL     1       6.222   3.932  13.904  0.00  0.00    +0.000 C 
ATOM     11  N   UNL     1       7.475   4.296  15.943  0.00  0.00    +0.000 NA
ATOM     12  C   UNL     1       7.476   4.668  17.232  0.00  0.00    +0.000 A 
ATOM     13  C   UNL     1       6.353   5.052  17.950  0.00  0.00    +0.000 A 
ATOM     14  C   UNL     1       6.546   5.502  19.365  0.00  0.00    +0.000 C 
ENDBRANCH   4   7
BRANCH   1  15
ATOM     15  C   UNL     1       1.327   6.761  20.959  0.00  0.00    +0.000 C 
BRANCH  15  19
ATOM     16  C   UNL     1       0.352  10.847  21.241  0.00  0.00    +0.000 A 
ATOM     17  N   UNL     1      -0.105  10.177  20.166  0.00  0.00    +0.000 NA
ATOM     18  C   UNL     1       0.228   8.873  20.087  0.00  0.00    +0.000 A 
ATOM     19  C   UNL     1       0.993   8.216  21.028  0.00  0.00    +0.000 A 
ATOM     20  C   UNL     1       1.380   8.997  22.097  0.00  0.00    +0.000 A 
ATOM     21  N   UNL     1       1.083  10.302  22.225  0.00  0.00    +0.000 NA
BRANCH  16  22
ATOM     22  S   UNL     1       0.065  12.592  21.336  0.00  0.00    +0.000 S 
BRANCH  22  24
ATOM     23  C   UNL     1      -2.402  13.009  20.267  0.00  0.00    +0.000 C 
ATOM     24  C   UNL     1      -0.954  12.806  19.851  0.00  0.00    +0.000 C 
ENDBRANCH  22  24
ENDBRANCH  16  22
ENDBRANCH  15  19
ENDBRANCH   1  15
TORSDOF 5
ENDMDL
MODEL 5
REMARK VINA RESULT:      -6.3      3.786      8.745
REMARK  Name = 
REMARK  8 active torsions:
REMARK  status: ('A' for Active; 'I' for Inactive)
REMARK    1  A    between atoms: C_1  and  C_2
REMARK    2  A    between atoms: C_2  and  S_3
REMARK    3  A    between atoms: S_3  and  C_4
REMARK    4  A    between atoms: C_7  and  C_8
REMARK    5  A    between atoms: C_8  and  N_9
REMARK    6  A    between atoms: N_12  and  C_13
REMARK    7  A    between atoms: C_15  and  C_16
REMARK    8  A    between atoms: C_19  and  C_20
REMARK                            x       y       z     vdW  Elec       q    Type
REMARK                         _______ _______ _______ _____ _____    ______ ____
ROOT
ATOM      1  N   UNL     1       1.890   7.423  19.500  0.00  0.00    +0.000 NA
ATOM      2  C   UNL     1       2.406   8.226  18.378  0.00  0.00    +0.000 C 
ATOM      3  C   UNL     1       1.295   9.170  17.875  0.00  0.00    +0.000 C 
ATOM      4  N   UNL     1       0.753  10.009  18.964  0.00  0.00    +0.000 N 
ATOM      5  C   UNL     1       0.451   9.313  20.219  0.00  0.00    +0.000 C 
ATOM      6  C   UNL     1       1.563   8.309  20.618  0.00  0.00    +0.000 C 
ENDROOT
BRANCH   4   7
ATOM      7  C   UNL     1       0.749  11.376  18.805  0.00  0.00    +0.000 A 
ATOM      8  N   UNL     1       1.960  11.969  18.735  0.00  0.00    +0.000 NA
ATOM      9  C   UNL     1       2.041  13.299  18.559  0.00  0.00    +0.000 A 
ATOM     10  C   UNL     1       3.403  13.913  18.474  0.00  0.00    +0.000 C 
ATOM     11  N   UNL     1       0.991  14.116  18.445  0.00  0.00    +0.000 NA
ATOM     12  C   UNL     1      -0.208  13.514  18.508  0.00  0.00    +0.000 A 
ATOM     13  C   UNL     1      -0.405  12.152  18.681  0.00  0.00    +0.000 A 
ATOM     14  C   UNL     1      -1.812  11.641  18.661  0.00  0.00    +0.000 C 
ENDBRANCH   4   7
BRANCH   1  15
ATOM     15  C   UNL     1       2.594   6.193  19.817  0.00  0.00    +0.000 C 
BRANCH  15  19
ATOM     16  C   UNL     1       5.436   4.682  17.103  0.00  0.00    +0.000 A 
ATOM     17  N   UNL     1       5.901   5.364  18.168  0.00  0.00    +0.000 NA
ATOM     18  C   UNL     1       4.976   5.851  19.019  0.00  0.00    +0.000 A 
ATOM     19  C   UNL     1       3.616   5.688  18.851  0.00  0.00    +0.000 A 
ATOM     20  C   UNL     1       3.261   4.950  17.741  0.00  0.00    +0.000 A 
ATOM     21  N   UNL     1       4.139   4.446  16.857  0.00  0.00    +0.000 NA
BRANCH  16  22
ATOM     22  S   UNL     1       6.591   4.135  15.878  0.00  0.00    +0.000 S 
BRANCH  22  24
ATOM     23  C   UNL     1       6.056   3.729  13.242  0.00  0.00    +0.000 C 
ATOM     24  C   UNL     1       5.716   4.673  14.384  0.00  0.00    +0.000 C 
ENDBRANCH  22  24
ENDBRANCH  16  22
ENDBRANCH  15  19
ENDBRANCH   1  15
TORSDOF 5
ENDMDL
MODEL 6
REMARK VINA RESULT:      -6.3      6.402      8.779
REMARK  Name = 
REMARK  8 active torsions:
REMARK  status: ('A' for Active; 'I' for Inactive)
REMARK    1  A    between atoms: C_1  and  C_2
REMARK    2  A    between atoms: C_2  and  S_3
REMARK    3  A    between atoms: S_3  and  C_4
REMARK    4  A    between atoms: C_7  and  C_8
REMARK    5  A    between atoms: C_8  and  N_9
REMARK    6  A    between atoms: N_12  and  C_13
REMARK    7  A    between atoms: C_15  and  C_16
REMARK    8  A    between atoms: C_19  and  C_20
REMARK                            x       y       z     vdW  Elec       q    Type
REMARK                         _______ _______ _______ _____ _____    ______ ____
ROOT
ATOM      1  N   UNL     1       6.768   7.152  17.854  0.00  0.00    +0.000 NA
ATOM      2  C   UNL     1       7.130   5.828  18.390  0.00  0.00    +0.000 C 
ATOM      3  C   UNL     1       6.057   5.378  19.402  0.00  0.00    +0.000 C 
ATOM      4  N   UNL     1       4.703   5.394  18.810  0.00  0.00    +0.000 N 
ATOM      5  C   UNL     1       4.357   6.589  18.033  0.00  0.00    +0.000 C 
ATOM      6  C   UNL     1       5.514   7.045  17.107  0.00  0.00    +0.000 C 
ENDROOT
BRANCH   4   7
ATOM      7  C   UNL     1       3.947   4.245  18.857  0.00  0.00    +0.000 A 
ATOM      8  N   UNL     1       3.209   4.065  19.973  0.00  0.00    +0.000 NA
ATOM      9  C   UNL     1       2.427   2.978  20.086  0.00  0.00    +0.000 A 
ATOM     10  C   UNL     1       1.616   2.825  21.335  0.00  0.00    +0.000 C 
ATOM     11  N   UNL     1       2.313   2.025  19.158  0.00  0.00    +0.000 NA
ATOM     12  C   UNL     1       3.044   2.218  18.050  0.00  0.00    +0.000 A 
ATOM     13  C   UNL     1       3.878   3.304  17.828  0.00  0.00    +0.000 A 
ATOM     14  C   UNL     1       4.571   3.395  16.503  0.00  0.00    +0.000 C 
ENDBRANCH   4   7
BRANCH   1  15
ATOM     15  C   UNL     1       7.829   7.938  17.252  0.00  0.00    +0.000 C 
BRANCH  15  19
ATOM     16  C   UNL     1       9.197  11.424  19.177  0.00  0.00    +0.000 A 
ATOM     17  N   UNL     1       9.438  10.247  19.787  0.00  0.00    +0.000 NA
ATOM     18  C   UNL     1       8.982   9.144  19.161  0.00  0.00    +0.000 A 
ATOM     19  C   UNL     1       8.298   9.167  17.963  0.00  0.00    +0.000 A 
ATOM     20  C   UNL     1       8.135  10.424  17.421  0.00  0.00    +0.000 A 
ATOM     21  N   UNL     1       8.563  11.558  18.002  0.00  0.00    +0.000 NA
BRANCH  16  22
ATOM     22  S   UNL     1       9.650  12.919  20.011  0.00  0.00    +0.000 S 
BRANCH  22  24
ATOM     23  C   UNL     1      12.102  13.969  19.482  0.00  0.00    +0.000 C 
ATOM     24  C   UNL     1      10.800  13.604  18.788  0.00  0.00    +0.000 C 
ENDBRANCH  22  24
ENDBRANCH  16  22
ENDBRANCH  15  19
ENDBRANCH   1  15
TORSDOF 5
ENDMDL
MODEL 7
REMARK VINA RESULT:      -6.2      6.416      8.456
REMARK  Name = 
REMARK  8 active torsions:
REMARK  status: ('A' for Active; 'I' for Inactive)
REMARK    1  A    between atoms: C_1  and  C_2
REMARK    2  A    between atoms: C_2  and  S_3
REMARK    3  A    between atoms: S_3  and  C_4
REMARK    4  A    between atoms: C_7  and  C_8
REMARK    5  A    between atoms: C_8  and  N_9
REMARK    6  A    between atoms: N_12  and  C_13
REMARK    7  A    between atoms: C_15  and  C_16
REMARK    8  A    between atoms: C_19  and  C_20
REMARK                            x       y       z     vdW  Elec       q    Type
REMARK                         _______ _______ _______ _____ _____    ______ ____
ROOT
ATOM      1  N   UNL     1       6.785   7.165  17.860  0.00  0.00    +0.000 NA
ATOM      2  C   UNL     1       7.153   5.832  18.369  0.00  0.00    +0.000 C 
ATOM      3  C   UNL     1       6.091   5.366  19.386  0.00  0.00    +0.000 C 
ATOM      4  N   UNL     1       4.731   5.391  18.809  0.00  0.00    +0.000 N 
ATOM      5  C   UNL     1       4.377   6.599  18.056  0.00  0.00    +0.000 C 
ATOM      6  C   UNL     1       5.524   7.070  17.125  0.00  0.00    +0.000 C 
ENDROOT
BRANCH   4   7
ATOM      7  C   UNL     1       3.976   4.241  18.845  0.00  0.00    +0.000 A 
ATOM      8  N   UNL     1       3.237   4.051  19.959  0.00  0.00    +0.000 NA
ATOM      9  C   UNL     1       2.456   2.963  20.063  0.00  0.00    +0.000 A 
ATOM     10  C   UNL     1       1.644   2.798  21.309  0.00  0.00    +0.000 C 
ATOM     11  N   UNL     1       2.342   2.017  19.126  0.00  0.00    +0.000 NA
ATOM     12  C   UNL     1       3.075   2.221  18.020  0.00  0.00    +0.000 A 
ATOM     13  C   UNL     1       3.908   3.309  17.808  0.00  0.00    +0.000 A 
ATOM     14  C   UNL     1       4.602   3.413  16.485  0.00  0.00    +0.000 C 
ENDBRANCH   4   7
BRANCH   1  15
ATOM     15  C   UNL     1       7.840   7.961  17.259  0.00  0.00    +0.000 C 
BRANCH  15  19
ATOM     16  C   UNL     1       9.225  11.418  19.223  0.00  0.00    +0.000 A 
ATOM     17  N   UNL     1       9.438  10.236  19.832  0.00  0.00    +0.000 NA
ATOM     18  C   UNL     1       8.977   9.142  19.193  0.00  0.00    +0.000 A 
ATOM     19  C   UNL     1       8.315   9.180  17.984  0.00  0.00    +0.000 A 
ATOM     20  C   UNL     1       8.180  10.442  17.445  0.00  0.00    +0.000 A 
ATOM     21  N   UNL     1       8.614  11.566  18.038  0.00  0.00    +0.000 NA
BRANCH  16  22
ATOM     22  S   UNL     1       9.685  12.903  20.072  0.00  0.00    +0.000 S 
BRANCH  22  24
ATOM     23  C   UNL     1       8.922  13.674  22.567  0.00  0.00    +0.000 C 
ATOM     24  C   UNL     1       9.248  12.423  21.766  0.00  0.00    +0.000 C 
ENDBRANCH  22  24
ENDBRANCH  16  22
ENDBRANCH  15  19
ENDBRANCH   1  15
TORSDOF 5
ENDMDL
MODEL 8
REMARK VINA RESULT:      -6.2      2.559      3.731
REMARK  Name = 
REMARK  8 active torsions:
REMARK  status: ('A' for Active; 'I' for Inactive)
REMARK    1  A    between atoms: C_1  and  C_2
REMARK    2  A    between atoms: C_2  and  S_3
REMARK    3  A    between atoms: S_3  and  C_4
REMARK    4  A    between atoms: C_7  and  C_8
REMARK    5  A    between atoms: C_8  and  N_9
REMARK    6  A    between atoms: N_12  and  C_13
REMARK    7  A    between atoms: C_15  and  C_16
REMARK    8  A    between atoms: C_19  and  C_20
REMARK                            x       y       z     vdW  Elec       q    Type
REMARK                         _______ _______ _______ _____ _____    ______ ____
ROOT
ATOM      1  N   UNL     1       1.637   9.195  18.820  0.00  0.00    +0.000 NA
ATOM      2  C   UNL     1       2.037   8.366  17.670  0.00  0.00    +0.000 C 
ATOM      3  C   UNL     1       3.210   7.455  18.083  0.00  0.00    +0.000 C 
ATOM      4  N   UNL     1       2.883   6.644  19.274  0.00  0.00    +0.000 N 
ATOM      5  C   UNL     1       2.238   7.360  20.379  0.00  0.00    +0.000 C 
ATOM      6  C   UNL     1       1.133   8.331  19.887  0.00  0.00    +0.000 C 
ENDROOT
BRANCH   4   7
ATOM      7  C   UNL     1       3.019   5.276  19.200  0.00  0.00    +0.000 A 
ATOM      8  N   UNL     1       1.873   4.572  19.085  0.00  0.00    +0.000 NA
ATOM      9  C   UNL     1       1.921   3.232  18.987  0.00  0.00    +0.000 A 
ATOM     10  C   UNL     1       0.628   2.492  18.848  0.00  0.00    +0.000 C 
ATOM     11  N   UNL     1       3.044   2.510  18.993  0.00  0.00    +0.000 NA
ATOM     12  C   UNL     1       4.178   3.222  19.099  0.00  0.00    +0.000 A 
ATOM     13  C   UNL     1       4.242   4.603  19.202  0.00  0.00    +0.000 A 
ATOM     14  C   UNL     1       5.596   5.240  19.245  0.00  0.00    +0.000 C 
ENDBRANCH   4   7
BRANCH   1  15
ATOM     15  C   UNL     1       0.883  10.404  18.539  0.00  0.00    +0.000 C 
BRANCH  15  19
ATOM     16  C   UNL     1      -0.922  12.352  21.805  0.00  0.00    +0.000 A 
ATOM     17  N   UNL     1      -1.739  11.850  20.858  0.00  0.00    +0.000 NA
ATOM     18  C   UNL     1      -1.141  11.241  19.815  0.00  0.00    +0.000 A 
ATOM     19  C   UNL     1       0.225  11.115  19.677  0.00  0.00    +0.000 A 
ATOM     20  C   UNL     1       0.957  11.643  20.720  0.00  0.00    +0.000 A 
ATOM     21  N   UNL     1       0.416  12.266  21.782  0.00  0.00    +0.000 NA
BRANCH  16  22
ATOM     22  S   UNL     1      -1.636  13.282  23.132  0.00  0.00    +0.000 S 
BRANCH  22  24
ATOM     23  C   UNL     1      -3.964  12.948  24.500  0.00  0.00    +0.000 C 
ATOM     24  C   UNL     1      -3.097  12.258  23.460  0.00  0.00    +0.000 C 
ENDBRANCH  22  24
ENDBRANCH  16  22
ENDBRANCH  15  19
ENDBRANCH   1  15
TORSDOF 5
ENDMDL
MODEL 9
REMARK VINA RESULT:      -6.2      3.879      8.828
REMARK  Name = 
REMARK  8 active torsions:
REMARK  status: ('A' for Active; 'I' for Inactive)
REMARK    1  A    between atoms: C_1  and  C_2
REMARK    2  A    between atoms: C_2  and  S_3
REMARK    3  A    between atoms: S_3  and  C_4
REMARK    4  A    between atoms: C_7  and  C_8
REMARK    5  A    between atoms: C_8  and  N_9
REMARK    6  A    between atoms: N_12  and  C_13
REMARK    7  A    between atoms: C_15  and  C_16
REMARK    8  A    between atoms: C_19  and  C_20
REMARK                            x       y       z     vdW  Elec       q    Type
REMARK                         _______ _______ _______ _____ _____    ______ ____
ROOT
ATOM      1  N   UNL     1       2.206   7.211  19.278  0.00  0.00    +0.000 NA
ATOM      2  C   UNL     1       2.539   8.076  18.132  0.00  0.00    +0.000 C 
ATOM      3  C   UNL     1       1.309   8.930  17.766  0.00  0.00    +0.000 C 
ATOM      4  N   UNL     1       0.810   9.700  18.924  0.00  0.00    +0.000 N 
ATOM      5  C   UNL     1       0.693   8.957  20.184  0.00  0.00    +0.000 C 
ATOM      6  C   UNL     1       1.919   8.044  20.445  0.00  0.00    +0.000 C 
ENDROOT
BRANCH   4   7
ATOM      7  C   UNL     1       0.676  11.064  18.804  0.00  0.00    +0.000 A 
ATOM      8  N   UNL     1       1.824  11.774  18.799  0.00  0.00    +0.000 NA
ATOM      9  C   UNL     1       1.779  13.111  18.664  0.00  0.00    +0.000 A 
ATOM     10  C   UNL     1       3.076  13.858  18.650  0.00  0.00    +0.000 C 
ATOM     11  N   UNL     1       0.658  13.824  18.531  0.00  0.00    +0.000 NA
ATOM     12  C   UNL     1      -0.476  13.106  18.529  0.00  0.00    +0.000 A 
ATOM     13  C   UNL     1      -0.544  11.727  18.656  0.00  0.00    +0.000 A 
ATOM     14  C   UNL     1      -1.892  11.081  18.566  0.00  0.00    +0.000 C 
ENDBRANCH   4   7
BRANCH   1  15
ATOM     15  C   UNL     1       3.038   6.040  19.491  0.00  0.00    +0.000 C 
BRANCH  15  19
ATOM     16  C   UNL     1       5.582   4.877  16.345  0.00  0.00    +0.000 A 
ATOM     17  N   UNL     1       4.416   4.216  16.471  0.00  0.00    +0.000 NA
ATOM     18  C   UNL     1       3.621   4.594  17.492  0.00  0.00    +0.000 A 
ATOM     19  C   UNL     1       3.940   5.595  18.385  0.00  0.00    +0.000 A 
ATOM     20  C   UNL     1       5.145   6.218  18.139  0.00  0.00    +0.000 A 
ATOM     21  N   UNL     1       5.980   5.879  17.142  0.00  0.00    +0.000 NA
BRANCH  16  22
ATOM     22  S   UNL     1       6.731   4.339  15.110  0.00  0.00    +0.000 S 
BRANCH  22  24
ATOM     23  C   UNL     1       6.354   3.565  12.529  0.00  0.00    +0.000 C 
ATOM     24  C   UNL     1       5.569   3.959  13.769  0.00  0.00    +0.000 C 
ENDBRANCH  22  24
ENDBRANCH  16  22
ENDBRANCH  15  19
ENDBRANCH   1  15
TORSDOF 5
ENDMDL
