MODEL 1
REMARK VINA RESULT:      -9.1      0.000      0.000
REMARK  Name = 
REMARK  6 active torsions:
REMARK  status: ('A' for Active; 'I' for Inactive)
REMARK    1  A    between atoms: C_1  and  C_2
REMARK    2  A    between atoms: C_4  and  N_5
REMARK    3  A    between atoms: N_18  and  C_19
REMARK    4  A    between atoms: C_25  and  O_26
REMARK    5  A    between atoms: O_26  and  C_27
REMARK    6  A    between atoms: C_27  and  C_28
REMARK                            x       y       z     vdW  Elec       q    Type
REMARK                         _______ _______ _______ _____ _____    ______ ____
ROOT
ATOM      1  C   UNL     1       2.348   9.754  17.711  0.00  0.00    +0.000 C 
ATOM      2  C   UNL     1       1.363  10.289  18.712  0.00  0.00    +0.000 A 
ATOM      3  C   UNL     1       0.845  11.558  18.415  0.00  0.00    +0.000 A 
ATOM      4  C   UNL     1       0.008  12.243  19.289  0.00  0.00    +0.000 A 
ATOM      5  C   UNL     1      -0.418  11.593  20.430  0.00  0.00    +0.000 A 
ATOM      6  C   UNL     1       0.023  10.313  20.739  0.00  0.00    +0.000 A 
ATOM      7  N   UNL     1      -0.472   9.828  21.873  0.00  0.00    +0.000 NA
ATOM      8  C   UNL     1      -0.068   8.618  22.221  0.00  0.00    +0.000 A 
ATOM      9  N   UNL     1       0.783   7.863  21.535  0.00  0.00    +0.000 NA
ATOM     10  C   UNL     1       1.285   8.313  20.367  0.00  0.00    +0.000 A 
ATOM     11  N   UNL     1       2.186   7.442  19.664  0.00  0.00    +0.000 N 
ATOM     12  C   UNL     1       0.941   9.617  19.900  0.00  0.00    +0.000 A 
ATOM     13  H   UNL     1       2.234   7.663  18.679  0.00  0.00    +0.000 HD
ENDROOT
BRANCH   4  14
ATOM     14  N   UNL     1      -0.348  13.624  19.086  0.00  0.00    +0.000 NA
ATOM     15  S   UNL     1       0.759  14.702  19.158  0.00  0.00    +0.000 S 
ATOM     16  O   UNL     1       1.997  14.680  18.397  0.00  0.00    +0.000 OA
ATOM     17  C   UNL     1       0.131  16.345  19.020  0.00  0.00    +0.000 C 
ATOM     18  C   UNL     1       1.146  17.148  19.832  0.00  0.00    +0.000 C 
ATOM     19  C   UNL     1       1.419  16.369  21.124  0.00  0.00    +0.000 C 
ATOM     20  C   UNL     1       1.199  14.879  20.877  0.00  0.00    +0.000 C 
ENDBRANCH   4  14
BRANCH  11  21
ATOM     21  C   UNL     1       2.204   6.008  19.749  0.00  0.00    +0.000 A 
ATOM     22  C   UNL     1       1.924   5.345  20.960  0.00  0.00    +0.000 A 
ATOM     23  C   UNL     1       1.708   3.973  21.025  0.00  0.00    +0.000 A 
ATOM     24  C   UNL     1       1.821   3.228  19.873  0.00  0.00    +0.000 A 
ATOM     25  F   UNL     1       1.579   1.912  19.906  0.00  0.00    +0.000 F 
ATOM     26  C   UNL     1       2.229   3.816  18.687  0.00  0.00    +0.000 A 
ATOM     27  C   UNL     1       2.516   5.193  18.623  0.00  0.00    +0.000 A 
BRANCH  27  28
ATOM     28  O   UNL     1       3.103   5.763  17.500  0.00  0.00    +0.000 OA
BRANCH  28  29
ATOM     29  C   UNL     1       4.388   5.160  17.192  0.00  0.00    +0.000 C 
BRANCH  29  30
ATOM     30  C   UNL     1       5.622   5.804  17.787  0.00  0.00    +0.000 A 
ATOM     31  C   UNL     1       6.345   5.222  18.827  0.00  0.00    +0.000 A 
ATOM     32  C   UNL     1       7.576   5.759  19.215  0.00  0.00    +0.000 A 
ATOM     33  C   UNL     1       8.100   6.879  18.567  0.00  0.00    +0.000 A 
ATOM     34  C   UNL     1       7.385   7.480  17.540  0.00  0.00    +0.000 A 
ATOM     35  C   UNL     1       6.153   6.948  17.149  0.00  0.00    +0.000 A 
ENDBRANCH  29  30
ENDBRANCH  28  29
ENDBRANCH  27  28
ENDBRANCH  11  21
TORSDOF 5
ENDMDL
MODEL 2
REMARK VINA RESULT:      -9.0      2.658      4.735
REMARK  Name = 
REMARK  6 active torsions:
REMARK  status: ('A' for Active; 'I' for Inactive)
REMARK    1  A    between atoms: C_1  and  C_2
REMARK    2  A    between atoms: C_4  and  N_5
REMARK    3  A    between atoms: N_18  and  C_19
REMARK    4  A    between atoms: C_25  and  O_26
REMARK    5  A    between atoms: O_26  and  C_27
REMARK    6  A    between atoms: C_27  and  C_28
REMARK                            x       y       z     vdW  Elec       q    Type
REMARK                         _______ _______ _______ _____ _____    ______ ____
ROOT
ATOM      1  C   UNL     1       1.421   6.401  21.180  0.00  0.00    +0.000 C 
ATOM      2  C   UNL     1       1.175   7.845  20.842  0.00  0.00    +0.000 A 
ATOM      3  C   UNL     1       0.495   8.577  21.825  0.00  0.00    +0.000 A 
ATOM      4  C   UNL     1       0.092   9.894  21.626  0.00  0.00    +0.000 A 
ATOM      5  C   UNL     1       0.486  10.530  20.466  0.00  0.00    +0.000 A 
ATOM      6  C   UNL     1       1.210   9.863  19.487  0.00  0.00    +0.000 A 
ATOM      7  N   UNL     1       1.507  10.609  18.428  0.00  0.00    +0.000 NA
ATOM      8  C   UNL     1       2.182  10.013  17.460  0.00  0.00    +0.000 A 
ATOM      9  N   UNL     1       2.577   8.745  17.463  0.00  0.00    +0.000 NA
ATOM     10  C   UNL     1       2.316   7.966  18.532  0.00  0.00    +0.000 A 
ATOM     11  N   UNL     1       2.786   6.609  18.482  0.00  0.00    +0.000 N 
ATOM     12  C   UNL     1       1.571   8.491  19.630  0.00  0.00    +0.000 A 
ATOM     13  H   UNL     1       2.881   6.207  19.405  0.00  0.00    +0.000 HD
ENDROOT
BRANCH   4  14
ATOM     14  N   UNL     1      -0.789  10.572  22.542  0.00  0.00    +0.000 NA
ATOM     15  S   UNL     1      -1.454  11.898  22.100  0.00  0.00    +0.000 S 
ATOM     16  O   UNL     1      -2.222  12.081  20.880  0.00  0.00    +0.000 OA
ATOM     17  C   UNL     1      -2.392  12.660  23.386  0.00  0.00    +0.000 C 
ATOM     18  C   UNL     1      -2.282  14.142  23.030  0.00  0.00    +0.000 C 
ATOM     19  C   UNL     1      -0.818  14.419  22.666  0.00  0.00    +0.000 C 
ATOM     20  C   UNL     1      -0.180  13.145  22.116  0.00  0.00    +0.000 C 
ENDBRANCH   4  14
BRANCH  11  21
ATOM     21  C   UNL     1       3.915   6.139  17.728  0.00  0.00    +0.000 A 
ATOM     22  C   UNL     1       5.065   6.935  17.564  0.00  0.00    +0.000 A 
ATOM     23  C   UNL     1       6.251   6.431  17.044  0.00  0.00    +0.000 A 
ATOM     24  C   UNL     1       6.288   5.119  16.627  0.00  0.00    +0.000 A 
ATOM     25  F   UNL     1       7.432   4.603  16.159  0.00  0.00    +0.000 F 
ATOM     26  C   UNL     1       5.145   4.340  16.641  0.00  0.00    +0.000 A 
ATOM     27  C   UNL     1       3.920   4.859  17.103  0.00  0.00    +0.000 A 
BRANCH  27  28
ATOM     28  O   UNL     1       2.729   4.160  16.951  0.00  0.00    +0.000 OA
BRANCH  28  29
ATOM     29  C   UNL     1       2.801   2.829  17.524  0.00  0.00    +0.000 C 
BRANCH  29  30
ATOM     30  C   UNL     1       2.448   2.679  18.989  0.00  0.00    +0.000 A 
ATOM     31  C   UNL     1       3.414   2.525  19.982  0.00  0.00    +0.000 A 
ATOM     32  C   UNL     1       3.051   2.578  21.331  0.00  0.00    +0.000 A 
ATOM     33  C   UNL     1       1.721   2.788  21.703  0.00  0.00    +0.000 A 
ATOM     34  C   UNL     1       0.745   2.927  20.726  0.00  0.00    +0.000 A 
ATOM     35  C   UNL     1       1.102   2.874  19.375  0.00  0.00    +0.000 A 
ENDBRANCH  29  30
ENDBRANCH  28  29
ENDBRANCH  27  28
ENDBRANCH  11  21
TORSDOF 5
ENDMDL
MODEL 3
REMARK VINA RESULT:      -9.0      2.983      3.557
REMARK  Name = 
REMARK  6 active torsions:
REMARK  status: ('A' for Active; 'I' for Inactive)
REMARK    1  A    between atoms: C_1  and  C_2
REMARK    2  A    between atoms: C_4  and  N_5
REMARK    3  A    between atoms: N_18  and  C_19
REMARK    4  A    between atoms: C_25  and  O_26
REMARK    5  A    between atoms: O_26  and  C_27
REMARK    6  A    between atoms: C_27  and  C_28
REMARK                            x       y       z     vdW  Elec       q    Type
REMARK                         _______ _______ _______ _____ _____    ______ ____
ROOT
ATOM      1  C   UNL     1      -0.234   9.983  17.891  0.00  0.00    +0.000 C 
ATOM      2  C   UNL     1      -0.551  10.469  19.277  0.00  0.00    +0.000 A 
ATOM      3  C   UNL     1      -1.529  11.472  19.346  0.00  0.00    +0.000 A 
ATOM      4  C   UNL     1      -1.861  12.107  20.537  0.00  0.00    +0.000 A 
ATOM      5  C   UNL     1      -1.290  11.645  21.705  0.00  0.00    +0.000 A 
ATOM      6  C   UNL     1      -0.358  10.616  21.696  0.00  0.00    +0.000 A 
ATOM      7  N   UNL     1       0.105  10.291  22.898  0.00  0.00    +0.000 NA
ATOM      8  C   UNL     1       1.009   9.326  22.940  0.00  0.00    +0.000 A 
ATOM      9  N   UNL     1       1.484   8.670  21.887  0.00  0.00    +0.000 NA
ATOM     10  C   UNL     1       1.019   8.956  20.654  0.00  0.00    +0.000 A 
ATOM     11  N   UNL     1       1.561   8.199  19.560  0.00  0.00    +0.000 N 
ATOM     12  C   UNL     1       0.058   9.997  20.480  0.00  0.00    +0.000 A 
ATOM     13  H   UNL     1       0.944   8.200  18.758  0.00  0.00    +0.000 HD
ENDROOT
BRANCH   4  14
ATOM     14  N   UNL     1      -2.701  13.277  20.574  0.00  0.00    +0.000 NA
ATOM     15  S   UNL     1      -4.202  13.112  20.910  0.00  0.00    +0.000 S 
ATOM     16  O   UNL     1      -4.726  12.429  22.081  0.00  0.00    +0.000 OA
ATOM     17  C   UNL     1      -5.107  14.622  20.781  0.00  0.00    +0.000 C 
ATOM     18  C   UNL     1      -6.503  14.129  20.400  0.00  0.00    +0.000 C 
ATOM     19  C   UNL     1      -6.332  13.059  19.315  0.00  0.00    +0.000 C 
ATOM     20  C   UNL     1      -4.975  12.379  19.481  0.00  0.00    +0.000 C 
ENDBRANCH   4  14
BRANCH  11  21
ATOM     21  C   UNL     1       2.100   6.871  19.644  0.00  0.00    +0.000 A 
ATOM     22  C   UNL     1       1.795   6.027  20.729  0.00  0.00    +0.000 A 
ATOM     23  C   UNL     1       2.106   4.672  20.730  0.00  0.00    +0.000 A 
ATOM     24  C   UNL     1       2.783   4.147  19.652  0.00  0.00    +0.000 A 
ATOM     25  F   UNL     1       3.059   2.837  19.616  0.00  0.00    +0.000 F 
ATOM     26  C   UNL     1       3.225   4.965  18.627  0.00  0.00    +0.000 A 
ATOM     27  C   UNL     1       2.973   6.350  18.646  0.00  0.00    +0.000 A 
BRANCH  27  28
ATOM     28  O   UNL     1       3.565   7.211  17.730  0.00  0.00    +0.000 OA
BRANCH  28  29
ATOM     29  C   UNL     1       5.014   7.173  17.804  0.00  0.00    +0.000 C 
BRANCH  29  30
ATOM     30  C   UNL     1       5.737   6.234  16.862  0.00  0.00    +0.000 A 
ATOM     31  C   UNL     1       6.808   5.439  17.270  0.00  0.00    +0.000 A 
ATOM     32  C   UNL     1       7.320   4.458  16.416  0.00  0.00    +0.000 A 
ATOM     33  C   UNL     1       6.768   4.256  15.150  0.00  0.00    +0.000 A 
ATOM     34  C   UNL     1       5.712   5.050  14.723  0.00  0.00    +0.000 A 
ATOM     35  C   UNL     1       5.197   6.034  15.571  0.00  0.00    +0.000 A 
ENDBRANCH  29  30
ENDBRANCH  28  29
ENDBRANCH  27  28
ENDBRANCH  11  21
TORSDOF 5
ENDMDL
MODEL 4
REMARK VINA RESULT:      -9.0      2.810      3.378
REMARK  Name = 
REMARK  6 active torsions:
REMARK  status: ('A' for Active; 'I' for Inactive)
REMARK    1  A    between atoms: C_1  and  C_2
REMARK    2  A    between atoms: C_4  and  N_5
REMARK    3  A    between atoms: N_18  and  C_19
REMARK    4  A    between atoms: C_25  and  O_26
REMARK    5  A    between atoms: O_26  and  C_27
REMARK    6  A    between atoms: C_27  and  C_28
REMARK                            x       y       z     vdW  Elec       q    Type
REMARK                         _______ _______ _______ _____ _____    ______ ____
ROOT
ATOM      1  C   UNL     1      -0.271   9.964  17.944  0.00  0.00    +0.000 C 
ATOM      2  C   UNL     1      -0.564  10.465  19.330  0.00  0.00    +0.000 A 
ATOM      3  C   UNL     1      -1.519  11.489  19.402  0.00  0.00    +0.000 A 
ATOM      4  C   UNL     1      -1.827  12.138  20.593  0.00  0.00    +0.000 A 
ATOM      5  C   UNL     1      -1.256  11.669  21.758  0.00  0.00    +0.000 A 
ATOM      6  C   UNL     1      -0.347  10.620  21.746  0.00  0.00    +0.000 A 
ATOM      7  N   UNL     1       0.119  10.291  22.946  0.00  0.00    +0.000 NA
ATOM      8  C   UNL     1       1.001   9.307  22.986  0.00  0.00    +0.000 A 
ATOM      9  N   UNL     1       1.453   8.635  21.933  0.00  0.00    +0.000 NA
ATOM     10  C   UNL     1       0.984   8.925  20.702  0.00  0.00    +0.000 A 
ATOM     11  N   UNL     1       1.499   8.151  19.607  0.00  0.00    +0.000 N 
ATOM     12  C   UNL     1       0.045   9.986  20.531  0.00  0.00    +0.000 A 
ATOM     13  H   UNL     1       0.876   8.160  18.811  0.00  0.00    +0.000 HD
ENDROOT
BRANCH   4  14
ATOM     14  N   UNL     1      -2.641  13.326  20.631  0.00  0.00    +0.000 NA
ATOM     15  S   UNL     1      -4.149  13.192  20.950  0.00  0.00    +0.000 S 
ATOM     16  O   UNL     1      -4.700  12.512  22.110  0.00  0.00    +0.000 OA
ATOM     17  C   UNL     1      -5.018  14.723  20.823  0.00  0.00    +0.000 C 
ATOM     18  C   UNL     1      -6.420  14.265  20.424  0.00  0.00    +0.000 C 
ATOM     19  C   UNL     1      -6.263  13.200  19.333  0.00  0.00    +0.000 C 
ATOM     20  C   UNL     1      -4.923  12.488  19.506  0.00  0.00    +0.000 C 
ENDBRANCH   4  14
BRANCH  11  21
ATOM     21  C   UNL     1       2.009   6.811  19.694  0.00  0.00    +0.000 A 
ATOM     22  C   UNL     1       1.713   5.987  20.797  0.00  0.00    +0.000 A 
ATOM     23  C   UNL     1       1.993   4.625  20.806  0.00  0.00    +0.000 A 
ATOM     24  C   UNL     1       2.630   4.072  19.719  0.00  0.00    +0.000 A 
ATOM     25  F   UNL     1       2.875   2.756  19.691  0.00  0.00    +0.000 F 
ATOM     26  C   UNL     1       3.064   4.867  18.672  0.00  0.00    +0.000 A 
ATOM     27  C   UNL     1       2.845   6.258  18.681  0.00  0.00    +0.000 A 
BRANCH  27  28
ATOM     28  O   UNL     1       3.433   7.094  17.739  0.00  0.00    +0.000 OA
BRANCH  28  29
ATOM     29  C   UNL     1       4.488   6.425  17.000  0.00  0.00    +0.000 C 
BRANCH  29  30
ATOM     30  C   UNL     1       5.908   6.605  17.491  0.00  0.00    +0.000 A 
ATOM     31  C   UNL     1       6.665   7.739  17.201  0.00  0.00    +0.000 A 
ATOM     32  C   UNL     1       7.897   7.942  17.828  0.00  0.00    +0.000 A 
ATOM     33  C   UNL     1       8.386   7.019  18.755  0.00  0.00    +0.000 A 
ATOM     34  C   UNL     1       7.652   5.877  19.044  0.00  0.00    +0.000 A 
ATOM     35  C   UNL     1       6.419   5.668  18.418  0.00  0.00    +0.000 A 
ENDBRANCH  29  30
ENDBRANCH  28  29
ENDBRANCH  27  28
ENDBRANCH  11  21
TORSDOF 5
ENDMDL
MODEL 5
REMARK VINA RESULT:      -8.9      1.142      1.487
REMARK  Name = 
REMARK  6 active torsions:
REMARK  status: ('A' for Active; 'I' for Inactive)
REMARK    1  A    between atoms: C_1  and  C_2
REMARK    2  A    between atoms: C_4  and  N_5
REMARK    3  A    between atoms: N_18  and  C_19
REMARK    4  A    between atoms: C_25  and  O_26
REMARK    5  A    between atoms: O_26  and  C_27
REMARK    6  A    between atoms: C_27  and  C_28
REMARK                            x       y       z     vdW  Elec       q    Type
REMARK                         _______ _______ _______ _____ _____    ______ ____
ROOT
ATOM      1  C   UNL     1       2.091   9.548  17.713  0.00  0.00    +0.000 C 
ATOM      2  C   UNL     1       1.192  10.148  18.758  0.00  0.00    +0.000 A 
ATOM      3  C   UNL     1       0.611  11.375  18.407  0.00  0.00    +0.000 A 
ATOM      4  C   UNL     1      -0.158  12.116  19.298  0.00  0.00    +0.000 A 
ATOM      5  C   UNL     1      -0.453  11.560  20.526  0.00  0.00    +0.000 A 
ATOM      6  C   UNL     1       0.053  10.321  20.898  0.00  0.00    +0.000 A 
ATOM      7  N   UNL     1      -0.316   9.927  22.112  0.00  0.00    +0.000 NA
ATOM      8  C   UNL     1       0.154   8.760  22.519  0.00  0.00    +0.000 A 
ATOM      9  N   UNL     1       0.957   7.966  21.819  0.00  0.00    +0.000 NA
ATOM     10  C   UNL     1       1.330   8.322  20.574  0.00  0.00    +0.000 A 
ATOM     11  N   UNL     1       2.185   7.412  19.862  0.00  0.00    +0.000 N 
ATOM     12  C   UNL     1       0.906   9.573  20.034  0.00  0.00    +0.000 A 
ATOM     13  H   UNL     1       2.132   7.547  18.862  0.00  0.00    +0.000 HD
ENDROOT
BRANCH   4  14
ATOM     14  N   UNL     1      -0.572  13.467  19.015  0.00  0.00    +0.000 NA
ATOM     15  S   UNL     1       0.469  14.607  19.116  0.00  0.00    +0.000 S 
ATOM     16  O   UNL     1       1.756  14.626  18.440  0.00  0.00    +0.000 OA
ATOM     17  C   UNL     1      -0.235  16.206  18.868  0.00  0.00    +0.000 C 
ATOM     18  C   UNL     1       0.678  17.094  19.712  0.00  0.00    +0.000 C 
ATOM     19  C   UNL     1       0.902  16.381  21.051  0.00  0.00    +0.000 C 
ATOM     20  C   UNL     1       0.779  14.872  20.851  0.00  0.00    +0.000 C 
ENDBRANCH   4  14
BRANCH  11  21
ATOM     21  C   UNL     1       2.252   5.992  20.065  0.00  0.00    +0.000 A 
ATOM     22  C   UNL     1       1.151   5.274  20.570  0.00  0.00    +0.000 A 
ATOM     23  C   UNL     1       1.101   3.884  20.562  0.00  0.00    +0.000 A 
ATOM     24  C   UNL     1       2.189   3.184  20.092  0.00  0.00    +0.000 A 
ATOM     25  F   UNL     1       2.147   1.847  20.041  0.00  0.00    +0.000 F 
ATOM     26  C   UNL     1       3.346   3.844  19.716  0.00  0.00    +0.000 A 
ATOM     27  C   UNL     1       3.433   5.248  19.782  0.00  0.00    +0.000 A 
BRANCH  27  28
ATOM     28  O   UNL     1       4.638   5.913  19.590  0.00  0.00    +0.000 OA
BRANCH  28  29
ATOM     29  C   UNL     1       5.663   5.038  19.047  0.00  0.00    +0.000 C 
BRANCH  29  30
ATOM     30  C   UNL     1       5.981   5.166  17.573  0.00  0.00    +0.000 A 
ATOM     31  C   UNL     1       6.996   4.435  16.958  0.00  0.00    +0.000 A 
ATOM     32  C   UNL     1       7.130   4.449  15.567  0.00  0.00    +0.000 A 
ATOM     33  C   UNL     1       6.250   5.189  14.774  0.00  0.00    +0.000 A 
ATOM     34  C   UNL     1       5.244   5.935  15.372  0.00  0.00    +0.000 A 
ATOM     35  C   UNL     1       5.106   5.926  16.763  0.00  0.00    +0.000 A 
ENDBRANCH  29  30
ENDBRANCH  28  29
ENDBRANCH  27  28
ENDBRANCH  11  21
TORSDOF 5
ENDMDL
MODEL 6
REMARK VINA RESULT:      -8.8      4.108      9.435
REMARK  Name = 
REMARK  6 active torsions:
REMARK  status: ('A' for Active; 'I' for Inactive)
REMARK    1  A    between atoms: C_1  and  C_2
REMARK    2  A    between atoms: C_4  and  N_5
REMARK    3  A    between atoms: N_18  and  C_19
REMARK    4  A    between atoms: C_25  and  O_26
REMARK    5  A    between atoms: O_26  and  C_27
REMARK    6  A    between atoms: C_27  and  C_28
REMARK                            x       y       z     vdW  Elec       q    Type
REMARK                         _______ _______ _______ _____ _____    ______ ____
ROOT
ATOM      1  C   UNL     1       1.185  10.036  17.756  0.00  0.00    +0.000 C 
ATOM      2  C   UNL     1       1.345   9.187  18.985  0.00  0.00    +0.000 A 
ATOM      3  C   UNL     1       2.175   8.068  18.830  0.00  0.00    +0.000 A 
ATOM      4  C   UNL     1       2.344   7.121  19.835  0.00  0.00    +0.000 A 
ATOM      5  C   UNL     1       1.766   7.364  21.065  0.00  0.00    +0.000 A 
ATOM      6  C   UNL     1       0.981   8.488  21.285  0.00  0.00    +0.000 A 
ATOM      7  N   UNL     1       0.490   8.575  22.516  0.00  0.00    +0.000 NA
ATOM      8  C   UNL     1      -0.279   9.620  22.771  0.00  0.00    +0.000 A 
ATOM      9  N   UNL     1      -0.595  10.573  21.902  0.00  0.00    +0.000 NA
ATOM     10  C   UNL     1      -0.095  10.531  20.650  0.00  0.00    +0.000 A 
ATOM     11  N   UNL     1      -0.460  11.601  19.764  0.00  0.00    +0.000 N 
ATOM     12  C   UNL     1       0.729   9.436  20.250  0.00  0.00    +0.000 A 
ATOM     13  H   UNL     1       0.200  11.706  19.006  0.00  0.00    +0.000 HD
ENDROOT
BRANCH   4  14
ATOM     14  N   UNL     1       3.018   5.869  19.604  0.00  0.00    +0.000 NA
ATOM     15  S   UNL     1       2.248   4.720  18.910  0.00  0.00    +0.000 S 
ATOM     16  O   UNL     1       1.549   4.830  17.640  0.00  0.00    +0.000 OA
ATOM     17  C   UNL     1       3.176   3.221  18.827  0.00  0.00    +0.000 C 
ATOM     18  C   UNL     1       2.077   2.160  18.851  0.00  0.00    +0.000 C 
ATOM     19  C   UNL     1       1.072   2.565  19.935  0.00  0.00    +0.000 C 
ATOM     20  C   UNL     1       1.085   4.083  20.101  0.00  0.00    +0.000 C 
ENDBRANCH   4  14
BRANCH  11  21
ATOM     21  C   UNL     1      -0.822  12.933  20.160  0.00  0.00    +0.000 A 
ATOM     22  C   UNL     1       0.158  13.915  20.398  0.00  0.00    +0.000 A 
ATOM     23  C   UNL     1      -0.158  15.260  20.556  0.00  0.00    +0.000 A 
ATOM     24  C   UNL     1      -1.482  15.637  20.531  0.00  0.00    +0.000 A 
ATOM     25  F   UNL     1      -1.805  16.932  20.643  0.00  0.00    +0.000 F 
ATOM     26  C   UNL     1      -2.486  14.690  20.439  0.00  0.00    +0.000 A 
ATOM     27  C   UNL     1      -2.181  13.318  20.345  0.00  0.00    +0.000 A 
BRANCH  27  28
ATOM     28  O   UNL     1      -3.168  12.344  20.441  0.00  0.00    +0.000 OA
BRANCH  28  29
ATOM     29  C   UNL     1      -4.101  12.403  19.331  0.00  0.00    +0.000 C 
BRANCH  29  30
ATOM     30  C   UNL     1      -3.845  11.487  18.154  0.00  0.00    +0.000 A 
ATOM     31  C   UNL     1      -4.415  11.699  16.899  0.00  0.00    +0.000 A 
ATOM     32  C   UNL     1      -4.004  10.937  15.802  0.00  0.00    +0.000 A 
ATOM     33  C   UNL     1      -3.017   9.959  15.943  0.00  0.00    +0.000 A 
ATOM     34  C   UNL     1      -2.452   9.724  17.189  0.00  0.00    +0.000 A 
ATOM     35  C   UNL     1      -2.860  10.482  18.290  0.00  0.00    +0.000 A 
ENDBRANCH  29  30
ENDBRANCH  28  29
ENDBRANCH  27  28
ENDBRANCH  11  21
TORSDOF 5
ENDMDL
MODEL 7
REMARK VINA RESULT:      -8.7      3.288      4.919
REMARK  Name = 
REMARK  6 active torsions:
REMARK  status: ('A' for Active; 'I' for Inactive)
REMARK    1  A    between atoms: C_1  and  C_2
REMARK    2  A    between atoms: C_4  and  N_5
REMARK    3  A    between atoms: N_18  and  C_19
REMARK    4  A    between atoms: C_25  and  O_26
REMARK    5  A    between atoms: O_26  and  C_27
REMARK    6  A    between atoms: C_27  and  C_28
REMARK                            x       y       z     vdW  Elec       q    Type
REMARK                         _______ _______ _______ _____ _____    ______ ____
ROOT
ATOM      1  C   UNL     1      -0.460   8.654  22.332  0.00  0.00    +0.000 C 
ATOM      2  C   UNL     1      -0.283  10.100  21.964  0.00  0.00    +0.000 A 
ATOM      3  C   UNL     1      -0.820  11.016  22.879  0.00  0.00    +0.000 A 
ATOM      4  C   UNL     1      -0.838  12.386  22.638  0.00  0.00    +0.000 A 
ATOM      5  C   UNL     1      -0.195  12.859  21.512  0.00  0.00    +0.000 A 
ATOM      6  C   UNL     1       0.401  11.995  20.604  0.00  0.00    +0.000 A 
ATOM      7  N   UNL     1       0.972  12.604  19.570  0.00  0.00    +0.000 NA
ATOM      8  C   UNL     1       1.540  11.822  18.667  0.00  0.00    +0.000 A 
ATOM      9  N   UNL     1       1.580  10.495  18.713  0.00  0.00    +0.000 NA
ATOM     10  C   UNL     1       1.033   9.845  19.761  0.00  0.00    +0.000 A 
ATOM     11  N   UNL     1       1.125   8.411  19.760  0.00  0.00    +0.000 N 
ATOM     12  C   UNL     1       0.369  10.581  20.787  0.00  0.00    +0.000 A 
ATOM     13  H   UNL     1       1.034   8.026  20.690  0.00  0.00    +0.000 HD
ENDROOT
BRANCH   4  14
ATOM     14  N   UNL     1      -1.577  13.301  23.469  0.00  0.00    +0.000 NA
ATOM     15  S   UNL     1      -3.124  13.271  23.427  0.00  0.00    +0.000 S 
ATOM     16  O   UNL     1      -3.942  12.087  23.625  0.00  0.00    +0.000 OA
ATOM     17  C   UNL     1      -3.864  14.543  24.401  0.00  0.00    +0.000 C 
ATOM     18  C   UNL     1      -5.173  14.799  23.656  0.00  0.00    +0.000 C 
ATOM     19  C   UNL     1      -4.846  14.854  22.159  0.00  0.00    +0.000 C 
ATOM     20  C   UNL     1      -3.613  14.000  21.875  0.00  0.00    +0.000 C 
ENDBRANCH   4  14
BRANCH  11  21
ATOM     21  C   UNL     1       2.145   7.636  19.110  0.00  0.00    +0.000 A 
ATOM     22  C   UNL     1       2.641   7.999  17.843  0.00  0.00    +0.000 A 
ATOM     23  C   UNL     1       3.775   7.415  17.292  0.00  0.00    +0.000 A 
ATOM     24  C   UNL     1       4.406   6.408  17.986  0.00  0.00    +0.000 A 
ATOM     25  F   UNL     1       5.522   5.857  17.491  0.00  0.00    +0.000 F 
ATOM     26  C   UNL     1       3.875   5.923  19.169  0.00  0.00    +0.000 A 
ATOM     27  C   UNL     1       2.690   6.462  19.705  0.00  0.00    +0.000 A 
BRANCH  27  28
ATOM     28  O   UNL     1       2.042   5.870  20.782  0.00  0.00    +0.000 OA
BRANCH  28  29
ATOM     29  C   UNL     1       1.191   4.769  20.368  0.00  0.00    +0.000 C 
BRANCH  29  30
ATOM     30  C   UNL     1       1.834   3.646  19.584  0.00  0.00    +0.000 A 
ATOM     31  C   UNL     1       1.607   3.455  18.221  0.00  0.00    +0.000 A 
ATOM     32  C   UNL     1       2.364   2.523  17.505  0.00  0.00    +0.000 A 
ATOM     33  C   UNL     1       3.358   1.775  18.139  0.00  0.00    +0.000 A 
ATOM     34  C   UNL     1       3.586   1.941  19.499  0.00  0.00    +0.000 A 
ATOM     35  C   UNL     1       2.831   2.871  20.220  0.00  0.00    +0.000 A 
ENDBRANCH  29  30
ENDBRANCH  28  29
ENDBRANCH  27  28
ENDBRANCH  11  21
TORSDOF 5
ENDMDL
MODEL 8
REMARK VINA RESULT:      -8.6      3.525      5.173
REMARK  Name = 
REMARK  6 active torsions:
REMARK  status: ('A' for Active; 'I' for Inactive)
REMARK    1  A    between atoms: C_1  and  C_2
REMARK    2  A    between atoms: C_4  and  N_5
REMARK    3  A    between atoms: N_18  and  C_19
REMARK    4  A    between atoms: C_25  and  O_26
REMARK    5  A    between atoms: O_26  and  C_27
REMARK    6  A    between atoms: C_27  and  C_28
REMARK                            x       y       z     vdW  Elec       q    Type
REMARK                         _______ _______ _______ _____ _____    ______ ____
ROOT
ATOM      1  C   UNL     1       0.262   9.453  22.886  0.00  0.00    +0.000 C 
ATOM      2  C   UNL     1      -0.390  10.491  22.016  0.00  0.00    +0.000 A 
ATOM      3  C   UNL     1      -0.998  11.548  22.708  0.00  0.00    +0.000 A 
ATOM      4  C   UNL     1      -1.737  12.533  22.061  0.00  0.00    +0.000 A 
ATOM      5  C   UNL     1      -1.767  12.527  20.681  0.00  0.00    +0.000 A 
ATOM      6  C   UNL     1      -1.133  11.532  19.949  0.00  0.00    +0.000 A 
ATOM      7  N   UNL     1      -1.260  11.661  18.633  0.00  0.00    +0.000 NA
ATOM      8  C   UNL     1      -0.687  10.728  17.892  0.00  0.00    +0.000 A 
ATOM      9  N   UNL     1      -0.008   9.685  18.356  0.00  0.00    +0.000 NA
ATOM     10  C   UNL     1       0.162   9.535  19.685  0.00  0.00    +0.000 A 
ATOM     11  N   UNL     1       0.921   8.396  20.123  0.00  0.00    +0.000 N 
ATOM     12  C   UNL     1      -0.431  10.468  20.588  0.00  0.00    +0.000 A 
ATOM     13  H   UNL     1       1.307   8.531  21.047  0.00  0.00    +0.000 HD
ENDROOT
BRANCH   4  14
ATOM     14  N   UNL     1      -2.536  13.490  22.783  0.00  0.00    +0.000 NA
ATOM     15  S   UNL     1      -3.922  13.057  23.319  0.00  0.00    +0.000 S 
ATOM     16  O   UNL     1      -4.168  11.893  24.153  0.00  0.00    +0.000 OA
ATOM     17  C   UNL     1      -4.819  14.385  24.058  0.00  0.00    +0.000 C 
ATOM     18  C   UNL     1      -6.269  13.976  23.803  0.00  0.00    +0.000 C 
ATOM     19  C   UNL     1      -6.361  13.495  22.349  0.00  0.00    +0.000 C 
ATOM     20  C   UNL     1      -5.008  12.940  21.910  0.00  0.00    +0.000 C 
ENDBRANCH   4  14
BRANCH  11  21
ATOM     21  C   UNL     1       1.940   7.725  19.364  0.00  0.00    +0.000 A 
ATOM     22  C   UNL     1       2.376   8.229  18.124  0.00  0.00    +0.000 A 
ATOM     23  C   UNL     1       3.507   7.741  17.478  0.00  0.00    +0.000 A 
ATOM     24  C   UNL     1       4.196   6.693  18.048  0.00  0.00    +0.000 A 
ATOM     25  F   UNL     1       5.309   6.234  17.462  0.00  0.00    +0.000 F 
ATOM     26  C   UNL     1       3.725   6.076  19.194  0.00  0.00    +0.000 A 
ATOM     27  C   UNL     1       2.543   6.518  19.820  0.00  0.00    +0.000 A 
BRANCH  27  28
ATOM     28  O   UNL     1       1.956   5.801  20.855  0.00  0.00    +0.000 OA
BRANCH  28  29
ATOM     29  C   UNL     1       1.117   4.723  20.362  0.00  0.00    +0.000 C 
BRANCH  29  30
ATOM     30  C   UNL     1       1.784   3.637  19.545  0.00  0.00    +0.000 A 
ATOM     31  C   UNL     1       1.624   3.531  18.165  0.00  0.00    +0.000 A 
ATOM     32  C   UNL     1       2.403   2.631  17.433  0.00  0.00    +0.000 A 
ATOM     33  C   UNL     1       3.353   1.830  18.069  0.00  0.00    +0.000 A 
ATOM     34  C   UNL     1       3.515   1.912  19.445  0.00  0.00    +0.000 A 
ATOM     35  C   UNL     1       2.737   2.810  20.183  0.00  0.00    +0.000 A 
ENDBRANCH  29  30
ENDBRANCH  28  29
ENDBRANCH  27  28
ENDBRANCH  11  21
TORSDOF 5
ENDMDL
MODEL 9
REMARK VINA RESULT:      -8.6      4.279      9.419
REMARK  Name = 
REMARK  6 active torsions:
REMARK  status: ('A' for Active; 'I' for Inactive)
REMARK    1  A    between atoms: C_1  and  C_2
REMARK    2  A    between atoms: C_4  and  N_5
REMARK    3  A    between atoms: N_18  and  C_19
REMARK    4  A    between atoms: C_25  and  O_26
REMARK    5  A    between atoms: O_26  and  C_27
REMARK    6  A    between atoms: C_27  and  C_28
REMARK                            x       y       z     vdW  Elec       q    Type
REMARK                         _______ _______ _______ _____ _____    ______ ____
ROOT
ATOM      1  C   UNL     1       0.253   9.111  22.887  0.00  0.00    +0.000 C 
ATOM      2  C   UNL     1       0.821   9.014  21.499  0.00  0.00    +0.000 A 
ATOM      3  C   UNL     1       1.348   7.760  21.159  0.00  0.00    +0.000 A 
ATOM      4  C   UNL     1       2.007   7.532  19.956  0.00  0.00    +0.000 A 
ATOM      5  C   UNL     1       2.032   8.548  19.021  0.00  0.00    +0.000 A 
ATOM      6  C   UNL     1       1.474   9.790  19.290  0.00  0.00    +0.000 A 
ATOM      7  N   UNL     1       1.586  10.663  18.294  0.00  0.00    +0.000 NA
ATOM      8  C   UNL     1       1.083  11.867  18.508  0.00  0.00    +0.000 A 
ATOM      9  N   UNL     1       0.488  12.266  19.626  0.00  0.00    +0.000 NA
ATOM     10  C   UNL     1       0.335  11.400  20.648  0.00  0.00    +0.000 A 
ATOM     11  N   UNL     1      -0.333  11.887  21.823  0.00  0.00    +0.000 N 
ATOM     12  C   UNL     1       0.858  10.076  20.544  0.00  0.00    +0.000 A 
ATOM     13  H   UNL     1      -0.724  11.136  22.375  0.00  0.00    +0.000 HD
ENDROOT
BRANCH   4  14
ATOM     14  N   UNL     1       2.734   6.315  19.698  0.00  0.00    +0.000 NA
ATOM     15  S   UNL     1       2.001   5.134  19.019  0.00  0.00    +0.000 S 
ATOM     16  O   UNL     1       1.263   5.216  17.770  0.00  0.00    +0.000 OA
ATOM     17  C   UNL     1       2.997   3.681  18.901  0.00  0.00    +0.000 C 
ATOM     18  C   UNL     1       1.952   2.569  18.949  0.00  0.00    +0.000 C 
ATOM     19  C   UNL     1       0.958   2.919  20.063  0.00  0.00    +0.000 C 
ATOM     20  C   UNL     1       0.903   4.435  20.238  0.00  0.00    +0.000 C 
ENDBRANCH   4  14
BRANCH  11  21
ATOM     21  C   UNL     1      -1.300  12.949  21.860  0.00  0.00    +0.000 A 
ATOM     22  C   UNL     1      -1.160  14.033  22.748  0.00  0.00    +0.000 A 
ATOM     23  C   UNL     1      -1.940  15.180  22.652  0.00  0.00    +0.000 A 
ATOM     24  C   UNL     1      -2.919  15.237  21.686  0.00  0.00    +0.000 A 
ATOM     25  F   UNL     1      -3.656  16.347  21.553  0.00  0.00    +0.000 F 
ATOM     26  C   UNL     1      -3.185  14.142  20.882  0.00  0.00    +0.000 A 
ATOM     27  C   UNL     1      -2.446  12.950  21.014  0.00  0.00    +0.000 A 
BRANCH  27  28
ATOM     28  O   UNL     1      -2.817  11.786  20.353  0.00  0.00    +0.000 OA
BRANCH  28  29
ATOM     29  C   UNL     1      -3.667  12.058  19.207  0.00  0.00    +0.000 C 
BRANCH  29  30
ATOM     30  C   UNL     1      -3.435  11.237  17.956  0.00  0.00    +0.000 A 
ATOM     31  C   UNL     1      -4.207  11.390  16.805  0.00  0.00    +0.000 A 
ATOM     32  C   UNL     1      -3.838  10.746  15.621  0.00  0.00    +0.000 A 
ATOM     33  C   UNL     1      -2.695   9.947  15.571  0.00  0.00    +0.000 A 
ATOM     34  C   UNL     1      -1.925   9.771  16.712  0.00  0.00    +0.000 A 
ATOM     35  C   UNL     1      -2.289  10.412  17.900  0.00  0.00    +0.000 A 
ENDBRANCH  29  30
ENDBRANCH  28  29
ENDBRANCH  27  28
ENDBRANCH  11  21
TORSDOF 5
ENDMDL
