MODEL 1
REMARK VINA RESULT:      -6.7      0.000      0.000
REMARK  Name = 
REMARK  7 active torsions:
REMARK  status: ('A' for Active; 'I' for Inactive)
REMARK    1  A    between atoms: C_1  and  C_2
REMARK    2  A    between atoms: C_2  and  C_3
REMARK    3  A    between atoms: C_3  and  C_4
REMARK    4  A    between atoms: C_4  and  C_5
REMARK    5  A    between atoms: C_14  and  C_15
REMARK    6  A    between atoms: C_21  and  C_22
REMARK    7  A    between atoms: C_21  and  C_23
REMARK                            x       y       z     vdW  Elec       q    Type
REMARK                         _______ _______ _______ _____ _____    ______ ____
ROOT
ATOM      1  C   UNL     1       2.469   5.623  20.132  0.00  0.00    +0.000 A 
ATOM      2  N   UNL     1       1.868   6.732  20.654  0.00  0.00    +0.000 NA
ATOM      3  C   UNL     1       1.845   7.900  19.965  0.00  0.00    +0.000 A 
ATOM      4  N   UNL     1       1.154   8.951  20.531  0.00  0.00    +0.000 N 
ATOM      5  C   UNL     1       1.044   9.078  21.990  0.00  0.00    +0.000 C 
ATOM      6  C   UNL     1      -0.424   9.228  22.420  0.00  0.00    +0.000 C 
ATOM      7  O   UNL     1      -1.085  10.291  21.710  0.00  0.00    +0.000 OA
ATOM      8  C   UNL     1      -1.066  10.020  20.304  0.00  0.00    +0.000 C 
ATOM      9  C   UNL     1       0.369   9.929  19.766  0.00  0.00    +0.000 C 
ATOM     10  C   UNL     1       2.516   7.987  18.736  0.00  0.00    +0.000 A 
ATOM     11  C   UNL     1       3.147   6.848  18.195  0.00  0.00    +0.000 A 
ATOM     12  C   UNL     1       3.089   5.627  18.879  0.00  0.00    +0.000 A 
ATOM     13  C   UNL     1       3.739   4.392  18.301  0.00  0.00    +0.000 C 
ATOM     14  O   UNL     1       4.210   4.530  16.956  0.00  0.00    +0.000 OA
ATOM     15  C   UNL     1       4.873   5.770  16.684  0.00  0.00    +0.000 C 
ATOM     16  C   UNL     1       5.306   5.726  15.212  0.00  0.00    +0.000 C 
ATOM     17  C   UNL     1       6.127   5.956  17.555  0.00  0.00    +0.000 C 
ATOM     18  C   UNL     1       3.862   6.911  16.862  0.00  0.00    +0.000 C 
ENDROOT
BRANCH  10  19
ATOM     19  C   UNL     1       2.647   9.235  18.041  0.00  0.00    +0.000 C 
ATOM     20  N   UNL     1       2.708  10.254  17.485  0.00  0.00    +0.000 NA
ENDBRANCH  10  19
BRANCH   1  21
ATOM     21  C   UNL     1       2.495   4.407  21.034  0.00  0.00    +0.000 C 
BRANCH  21  22
ATOM     22  C   UNL     1       1.204   3.591  20.900  0.00  0.00    +0.000 C 
BRANCH  22  24
ATOM     23  C   UNL     1       0.740   2.388  18.739  0.00  0.00    +0.000 C 
ATOM     24  C   UNL     1       1.419   2.306  20.098  0.00  0.00    +0.000 C 
ENDBRANCH  22  24
ENDBRANCH  21  22
ENDBRANCH   1  21
TORSDOF 4
ENDMDL
MODEL 2
REMARK VINA RESULT:      -6.0      1.788      4.490
REMARK  Name = 
REMARK  7 active torsions:
REMARK  status: ('A' for Active; 'I' for Inactive)
REMARK    1  A    between atoms: C_1  and  C_2
REMARK    2  A    between atoms: C_2  and  C_3
REMARK    3  A    between atoms: C_3  and  C_4
REMARK    4  A    between atoms: C_4  and  C_5
REMARK    5  A    between atoms: C_14  and  C_15
REMARK    6  A    between atoms: C_21  and  C_22
REMARK    7  A    between atoms: C_21  and  C_23
REMARK                            x       y       z     vdW  Elec       q    Type
REMARK                         _______ _______ _______ _____ _____    ______ ____
ROOT
ATOM      1  C   UNL     1       3.183   7.230  18.156  0.00  0.00    +0.000 A 
ATOM      2  N   UNL     1       2.594   8.456  18.260  0.00  0.00    +0.000 NA
ATOM      3  C   UNL     1       1.735   8.732  19.273  0.00  0.00    +0.000 A 
ATOM      4  N   UNL     1       1.241  10.018  19.347  0.00  0.00    +0.000 N 
ATOM      5  C   UNL     1       1.060  10.824  18.132  0.00  0.00    +0.000 C 
ATOM      6  C   UNL     1       1.759  12.186  18.267  0.00  0.00    +0.000 C 
ATOM      7  O   UNL     1       1.362  12.876  19.466  0.00  0.00    +0.000 OA
ATOM      8  C   UNL     1       1.705  12.091  20.614  0.00  0.00    +0.000 C 
ATOM      9  C   UNL     1       0.989  10.734  20.605  0.00  0.00    +0.000 C 
ATOM     10  C   UNL     1       1.391   7.717  20.178  0.00  0.00    +0.000 A 
ATOM     11  C   UNL     1       1.990   6.445  20.072  0.00  0.00    +0.000 A 
ATOM     12  C   UNL     1       2.939   6.202  19.070  0.00  0.00    +0.000 A 
ATOM     13  C   UNL     1       3.607   4.852  18.958  0.00  0.00    +0.000 C 
ATOM     14  O   UNL     1       3.350   3.958  20.047  0.00  0.00    +0.000 OA
ATOM     15  C   UNL     1       1.991   3.947  20.498  0.00  0.00    +0.000 C 
ATOM     16  C   UNL     1       1.916   2.934  21.649  0.00  0.00    +0.000 C 
ATOM     17  C   UNL     1       1.021   3.497  19.391  0.00  0.00    +0.000 C 
ATOM     18  C   UNL     1       1.650   5.338  21.047  0.00  0.00    +0.000 C 
ENDROOT
BRANCH  10  19
ATOM     19  C   UNL     1       0.379   7.914  21.175  0.00  0.00    +0.000 C 
ATOM     20  N   UNL     1      -0.464   8.100  21.954  0.00  0.00    +0.000 NA
ENDBRANCH  10  19
BRANCH   1  21
ATOM     21  C   UNL     1       4.058   7.025  16.936  0.00  0.00    +0.000 C 
BRANCH  21  22
ATOM     22  C   UNL     1       5.545   7.109  17.302  0.00  0.00    +0.000 C 
BRANCH  22  24
ATOM     23  C   UNL     1       5.653   5.457  15.407  0.00  0.00    +0.000 C 
ATOM     24  C   UNL     1       6.360   5.996  16.643  0.00  0.00    +0.000 C 
ENDBRANCH  22  24
ENDBRANCH  21  22
ENDBRANCH   1  21
TORSDOF 4
ENDMDL
MODEL 3
REMARK VINA RESULT:      -6.0      4.746      7.708
REMARK  Name = 
REMARK  7 active torsions:
REMARK  status: ('A' for Active; 'I' for Inactive)
REMARK    1  A    between atoms: C_1  and  C_2
REMARK    2  A    between atoms: C_2  and  C_3
REMARK    3  A    between atoms: C_3  and  C_4
REMARK    4  A    between atoms: C_4  and  C_5
REMARK    5  A    between atoms: C_14  and  C_15
REMARK    6  A    between atoms: C_21  and  C_22
REMARK    7  A    between atoms: C_21  and  C_23
REMARK                            x       y       z     vdW  Elec       q    Type
REMARK                         _______ _______ _______ _____ _____    ______ ____
ROOT
ATOM      1  C   UNL     1      -1.919  11.927  20.991  0.00  0.00    +0.000 A 
ATOM      2  N   UNL     1      -3.129  12.285  20.472  0.00  0.00    +0.000 NA
ATOM      3  C   UNL     1      -3.469  11.946  19.203  0.00  0.00    +0.000 A 
ATOM      4  N   UNL     1      -4.737  12.282  18.780  0.00  0.00    +0.000 N 
ATOM      5  C   UNL     1      -5.421  13.465  19.320  0.00  0.00    +0.000 C 
ATOM      6  C   UNL     1      -6.813  13.099  19.859  0.00  0.00    +0.000 C 
ATOM      7  O   UNL     1      -7.597  12.392  18.882  0.00  0.00    +0.000 OA
ATOM      8  C   UNL     1      -6.935  11.176  18.514  0.00  0.00    +0.000 C 
ATOM      9  C   UNL     1      -5.558  11.449  17.891  0.00  0.00    +0.000 C 
ATOM     10  C   UNL     1      -2.531  11.289  18.392  0.00  0.00    +0.000 A 
ATOM     11  C   UNL     1      -1.275  10.925  18.919  0.00  0.00    +0.000 A 
ATOM     12  C   UNL     1      -0.973  11.206  20.259  0.00  0.00    +0.000 A 
ATOM     13  C   UNL     1       0.359  10.800  20.845  0.00  0.00    +0.000 C 
ATOM     14  O   UNL     1       1.156   9.954  20.008  0.00  0.00    +0.000 OA
ATOM     15  C   UNL     1       1.171  10.330  18.627  0.00  0.00    +0.000 C 
ATOM     16  C   UNL     1       2.074   9.321  17.904  0.00  0.00    +0.000 C 
ATOM     17  C   UNL     1       1.754  11.739  18.421  0.00  0.00    +0.000 C 
ATOM     18  C   UNL     1      -0.253  10.198  18.071  0.00  0.00    +0.000 C 
ENDROOT
BRANCH  10  19
ATOM     19  C   UNL     1      -2.785  11.042  17.002  0.00  0.00    +0.000 C 
ATOM     20  N   UNL     1      -2.968  10.803  15.879  0.00  0.00    +0.000 NA
ENDBRANCH  10  19
BRANCH   1  21
ATOM     21  C   UNL     1      -1.631  12.433  22.390  0.00  0.00    +0.000 C 
BRANCH  21  22
ATOM     22  C   UNL     1      -2.706  11.968  23.379  0.00  0.00    +0.000 C 
BRANCH  22  24
ATOM     23  C   UNL     1      -4.961  13.078  23.512  0.00  0.00    +0.000 C 
ATOM     24  C   UNL     1      -3.504  13.140  23.951  0.00  0.00    +0.000 C 
ENDBRANCH  22  24
ENDBRANCH  21  22
ENDBRANCH   1  21
TORSDOF 4
ENDMDL
MODEL 4
REMARK VINA RESULT:      -5.8      2.987      7.977
REMARK  Name = 
REMARK  7 active torsions:
REMARK  status: ('A' for Active; 'I' for Inactive)
REMARK    1  A    between atoms: C_1  and  C_2
REMARK    2  A    between atoms: C_2  and  C_3
REMARK    3  A    between atoms: C_3  and  C_4
REMARK    4  A    between atoms: C_4  and  C_5
REMARK    5  A    between atoms: C_14  and  C_15
REMARK    6  A    between atoms: C_21  and  C_22
REMARK    7  A    between atoms: C_21  and  C_23
REMARK                            x       y       z     vdW  Elec       q    Type
REMARK                         _______ _______ _______ _____ _____    ______ ____
ROOT
ATOM      1  C   UNL     1      -1.179  10.962  18.727  0.00  0.00    +0.000 A 
ATOM      2  N   UNL     1      -0.113  10.115  18.646  0.00  0.00    +0.000 NA
ATOM      3  C   UNL     1       0.515   9.678  19.767  0.00  0.00    +0.000 A 
ATOM      4  N   UNL     1       1.536   8.767  19.601  0.00  0.00    +0.000 N 
ATOM      5  C   UNL     1       2.355   8.768  18.382  0.00  0.00    +0.000 C 
ATOM      6  C   UNL     1       2.390   7.372  17.741  0.00  0.00    +0.000 C 
ATOM      7  O   UNL     1       2.785   6.359  18.683  0.00  0.00    +0.000 OA
ATOM      8  C   UNL     1       1.855   6.319  19.771  0.00  0.00    +0.000 C 
ATOM      9  C   UNL     1       1.807   7.656  20.524  0.00  0.00    +0.000 C 
ATOM     10  C   UNL     1       0.110  10.169  21.018  0.00  0.00    +0.000 A 
ATOM     11  C   UNL     1      -0.986  11.053  21.107  0.00  0.00    +0.000 A 
ATOM     12  C   UNL     1      -1.678  11.426  19.947  0.00  0.00    +0.000 A 
ATOM     13  C   UNL     1      -2.868  12.352  20.030  0.00  0.00    +0.000 C 
ATOM     14  O   UNL     1      -3.330  12.626  21.357  0.00  0.00    +0.000 OA
ATOM     15  C   UNL     1      -2.289  12.862  22.311  0.00  0.00    +0.000 C 
ATOM     16  C   UNL     1      -2.977  13.141  23.654  0.00  0.00    +0.000 C 
ATOM     17  C   UNL     1      -1.433  14.085  21.939  0.00  0.00    +0.000 C 
ATOM     18  C   UNL     1      -1.455  11.581  22.446  0.00  0.00    +0.000 C 
ENDROOT
BRANCH  10  19
ATOM     19  C   UNL     1       0.833   9.855  22.215  0.00  0.00    +0.000 C 
ATOM     20  N   UNL     1       1.452   9.580  23.161  0.00  0.00    +0.000 NA
ENDBRANCH  10  19
BRANCH   1  21
ATOM     21  C   UNL     1      -1.740  11.436  17.402  0.00  0.00    +0.000 C 
BRANCH  21  22
ATOM     22  C   UNL     1      -2.277  10.262  16.576  0.00  0.00    +0.000 C 
BRANCH  22  24
ATOM     23  C   UNL     1      -3.097  10.108  14.202  0.00  0.00    +0.000 C 
ATOM     24  C   UNL     1      -3.349  10.705  15.579  0.00  0.00    +0.000 C 
ENDBRANCH  22  24
ENDBRANCH  21  22
ENDBRANCH   1  21
TORSDOF 4
ENDMDL
MODEL 5
REMARK VINA RESULT:      -5.7      4.804      7.831
REMARK  Name = 
REMARK  7 active torsions:
REMARK  status: ('A' for Active; 'I' for Inactive)
REMARK    1  A    between atoms: C_1  and  C_2
REMARK    2  A    between atoms: C_2  and  C_3
REMARK    3  A    between atoms: C_3  and  C_4
REMARK    4  A    between atoms: C_4  and  C_5
REMARK    5  A    between atoms: C_14  and  C_15
REMARK    6  A    between atoms: C_21  and  C_22
REMARK    7  A    between atoms: C_21  and  C_23
REMARK                            x       y       z     vdW  Elec       q    Type
REMARK                         _______ _______ _______ _____ _____    ______ ____
ROOT
ATOM      1  C   UNL     1      -1.680  12.077  21.513  0.00  0.00    +0.000 A 
ATOM      2  N   UNL     1      -2.904  12.557  21.148  0.00  0.00    +0.000 NA
ATOM      3  C   UNL     1      -3.410  12.304  19.915  0.00  0.00    +0.000 A 
ATOM      4  N   UNL     1      -4.684  12.763  19.652  0.00  0.00    +0.000 N 
ATOM      5  C   UNL     1      -5.197  13.973  20.307  0.00  0.00    +0.000 C 
ATOM      6  C   UNL     1      -6.547  13.701  20.988  0.00  0.00    +0.000 C 
ATOM      7  O   UNL     1      -7.494  13.105  20.083  0.00  0.00    +0.000 OA
ATOM      8  C   UNL     1      -6.986  11.856  19.601  0.00  0.00    +0.000 C 
ATOM      9  C   UNL     1      -5.668  12.040  18.835  0.00  0.00    +0.000 C 
ATOM     10  C   UNL     1      -2.629  11.607  18.980  0.00  0.00    +0.000 A 
ATOM     11  C   UNL     1      -1.359  11.116  19.348  0.00  0.00    +0.000 A 
ATOM     12  C   UNL     1      -0.887  11.312  20.653  0.00  0.00    +0.000 A 
ATOM     13  C   UNL     1       0.460  10.771  21.069  0.00  0.00    +0.000 C 
ATOM     14  O   UNL     1       1.082   9.900  20.119  0.00  0.00    +0.000 OA
ATOM     15  C   UNL     1       0.977  10.334  18.758  0.00  0.00    +0.000 C 
ATOM     16  C   UNL     1       1.703   9.286  17.903  0.00  0.00    +0.000 C 
ATOM     17  C   UNL     1       1.655  11.697  18.535  0.00  0.00    +0.000 C 
ATOM     18  C   UNL     1      -0.506  10.345  18.365  0.00  0.00    +0.000 C 
ENDROOT
BRANCH  10  19
ATOM     19  C   UNL     1      -3.057  11.443  17.621  0.00  0.00    +0.000 C 
ATOM     20  N   UNL     1      -3.401  11.265  16.525  0.00  0.00    +0.000 NA
ENDBRANCH  10  19
BRANCH   1  21
ATOM     21  C   UNL     1      -1.196  12.496  22.886  0.00  0.00    +0.000 C 
BRANCH  21  22
ATOM     22  C   UNL     1      -0.944  14.007  22.947  0.00  0.00    +0.000 C 
BRANCH  22  24
ATOM     23  C   UNL     1      -0.114  15.307  20.959  0.00  0.00    +0.000 C 
ATOM     24  C   UNL     1       0.281  14.417  22.129  0.00  0.00    +0.000 C 
ENDBRANCH  22  24
ENDBRANCH  21  22
ENDBRANCH   1  21
TORSDOF 4
ENDMDL
MODEL 6
REMARK VINA RESULT:      -5.6      6.268      9.018
REMARK  Name = 
REMARK  7 active torsions:
REMARK  status: ('A' for Active; 'I' for Inactive)
REMARK    1  A    between atoms: C_1  and  C_2
REMARK    2  A    between atoms: C_2  and  C_3
REMARK    3  A    between atoms: C_3  and  C_4
REMARK    4  A    between atoms: C_4  and  C_5
REMARK    5  A    between atoms: C_14  and  C_15
REMARK    6  A    between atoms: C_21  and  C_22
REMARK    7  A    between atoms: C_21  and  C_23
REMARK                            x       y       z     vdW  Elec       q    Type
REMARK                         _______ _______ _______ _____ _____    ______ ____
ROOT
ATOM      1  C   UNL     1      -4.941  11.909  19.332  0.00  0.00    +0.000 A 
ATOM      2  N   UNL     1      -5.555  12.264  20.497  0.00  0.00    +0.000 NA
ATOM      3  C   UNL     1      -4.834  12.719  21.553  0.00  0.00    +0.000 A 
ATOM      4  N   UNL     1      -5.538  13.125  22.667  0.00  0.00    +0.000 N 
ATOM      5  C   UNL     1      -6.829  12.512  23.005  0.00  0.00    +0.000 C 
ATOM      6  C   UNL     1      -7.913  13.584  23.200  0.00  0.00    +0.000 C 
ATOM      7  O   UNL     1      -7.505  14.594  24.141  0.00  0.00    +0.000 OA
ATOM      8  C   UNL     1      -6.322  15.248  23.668  0.00  0.00    +0.000 C 
ATOM      9  C   UNL     1      -5.155  14.262  23.515  0.00  0.00    +0.000 C 
ATOM     10  C   UNL     1      -3.434  12.750  21.467  0.00  0.00    +0.000 A 
ATOM     11  C   UNL     1      -2.793  12.376  20.268  0.00  0.00    +0.000 A 
ATOM     12  C   UNL     1      -3.557  11.990  19.159  0.00  0.00    +0.000 A 
ATOM     13  C   UNL     1      -2.885  11.610  17.860  0.00  0.00    +0.000 C 
ATOM     14  O   UNL     1      -1.480  11.876  17.806  0.00  0.00    +0.000 OA
ATOM     15  C   UNL     1      -0.765  11.537  19.000  0.00  0.00    +0.000 C 
ATOM     16  C   UNL     1       0.708  11.883  18.746  0.00  0.00    +0.000 C 
ATOM     17  C   UNL     1      -0.864  10.036  19.324  0.00  0.00    +0.000 C 
ATOM     18  C   UNL     1      -1.285  12.419  20.143  0.00  0.00    +0.000 C 
ENDROOT
BRANCH  10  19
ATOM     19  C   UNL     1      -2.622  13.081  22.602  0.00  0.00    +0.000 C 
ATOM     20  N   UNL     1      -1.938  13.313  23.513  0.00  0.00    +0.000 NA
ENDBRANCH  10  19
BRANCH   1  21
ATOM     21  C   UNL     1      -5.849  11.342  18.260  0.00  0.00    +0.000 C 
BRANCH  21  22
ATOM     22  C   UNL     1      -7.068  10.647  18.878  0.00  0.00    +0.000 C 
BRANCH  22  24
ATOM     23  C   UNL     1      -7.554   8.769  20.481  0.00  0.00    +0.000 C 
ATOM     24  C   UNL     1      -6.773   9.193  19.245  0.00  0.00    +0.000 C 
ENDBRANCH  22  24
ENDBRANCH  21  22
ENDBRANCH   1  21
TORSDOF 4
ENDMDL
MODEL 7
REMARK VINA RESULT:      -5.6      5.647      9.837
REMARK  Name = 
REMARK  7 active torsions:
REMARK  status: ('A' for Active; 'I' for Inactive)
REMARK    1  A    between atoms: C_1  and  C_2
REMARK    2  A    between atoms: C_2  and  C_3
REMARK    3  A    between atoms: C_3  and  C_4
REMARK    4  A    between atoms: C_4  and  C_5
REMARK    5  A    between atoms: C_14  and  C_15
REMARK    6  A    between atoms: C_21  and  C_22
REMARK    7  A    between atoms: C_21  and  C_23
REMARK                            x       y       z     vdW  Elec       q    Type
REMARK                         _______ _______ _______ _____ _____    ______ ____
ROOT
ATOM      1  C   UNL     1      -3.745  11.895  18.830  0.00  0.00    +0.000 A 
ATOM      2  N   UNL     1      -2.557  11.682  19.466  0.00  0.00    +0.000 NA
ATOM      3  C   UNL     1      -2.353  12.133  20.729  0.00  0.00    +0.000 A 
ATOM      4  N   UNL     1      -1.151  11.813  21.325  0.00  0.00    +0.000 N 
ATOM      5  C   UNL     1       0.063  11.629  20.519  0.00  0.00    +0.000 C 
ATOM      6  C   UNL     1       0.728  10.278  20.825  0.00  0.00    +0.000 C 
ATOM      7  O   UNL     1       0.955  10.100  22.235  0.00  0.00    +0.000 OA
ATOM      8  C   UNL     1      -0.292  10.143  22.937  0.00  0.00    +0.000 C 
ATOM      9  C   UNL     1      -0.998  11.494  22.751  0.00  0.00    +0.000 C 
ATOM     10  C   UNL     1      -3.350  12.895  21.356  0.00  0.00    +0.000 A 
ATOM     11  C   UNL     1      -4.577  13.127  20.701  0.00  0.00    +0.000 A 
ATOM     12  C   UNL     1      -4.804  12.581  19.431  0.00  0.00    +0.000 A 
ATOM     13  C   UNL     1      -6.122  12.799  18.727  0.00  0.00    +0.000 C 
ATOM     14  O   UNL     1      -7.143  13.403  19.529  0.00  0.00    +0.000 OA
ATOM     15  C   UNL     1      -6.690  14.482  20.353  0.00  0.00    +0.000 C 
ATOM     16  C   UNL     1      -7.915  14.997  21.121  0.00  0.00    +0.000 C 
ATOM     17  C   UNL     1      -6.116  15.641  19.520  0.00  0.00    +0.000 C 
ATOM     18  C   UNL     1      -5.676  13.929  21.364  0.00  0.00    +0.000 C 
ENDROOT
BRANCH  10  19
ATOM     19  C   UNL     1      -3.127  13.518  22.629  0.00  0.00    +0.000 C 
ATOM     20  N   UNL     1      -2.978  13.997  23.678  0.00  0.00    +0.000 NA
ENDBRANCH  10  19
BRANCH   1  21
ATOM     21  C   UNL     1      -3.816  11.411  17.397  0.00  0.00    +0.000 C 
BRANCH  21  22
ATOM     22  C   UNL     1      -3.333   9.961  17.277  0.00  0.00    +0.000 C 
BRANCH  22  24
ATOM     23  C   UNL     1      -3.132  10.448  14.817  0.00  0.00    +0.000 C 
ATOM     24  C   UNL     1      -2.510   9.734  16.009  0.00  0.00    +0.000 C 
ENDBRANCH  22  24
ENDBRANCH  21  22
ENDBRANCH   1  21
TORSDOF 4
ENDMDL
MODEL 8
REMARK VINA RESULT:      -5.6      6.776      8.685
REMARK  Name = 
REMARK  7 active torsions:
REMARK  status: ('A' for Active; 'I' for Inactive)
REMARK    1  A    between atoms: C_1  and  C_2
REMARK    2  A    between atoms: C_2  and  C_3
REMARK    3  A    between atoms: C_3  and  C_4
REMARK    4  A    between atoms: C_4  and  C_5
REMARK    5  A    between atoms: C_14  and  C_15
REMARK    6  A    between atoms: C_21  and  C_22
REMARK    7  A    between atoms: C_21  and  C_23
REMARK                            x       y       z     vdW  Elec       q    Type
REMARK                         _______ _______ _______ _____ _____    ______ ____
ROOT
ATOM      1  C   UNL     1      -4.548  12.862  20.195  0.00  0.00    +0.000 A 
ATOM      2  N   UNL     1      -3.729  13.156  21.246  0.00  0.00    +0.000 NA
ATOM      3  C   UNL     1      -2.396  12.909  21.180  0.00  0.00    +0.000 A 
ATOM      4  N   UNL     1      -1.630  13.303  22.256  0.00  0.00    +0.000 N 
ATOM      5  C   UNL     1      -2.197  13.339  23.611  0.00  0.00    +0.000 C 
ATOM      6  C   UNL     1      -1.975  14.712  24.265  0.00  0.00    +0.000 C 
ATOM      7  O   UNL     1      -0.593  15.109  24.222  0.00  0.00    +0.000 OA
ATOM      8  C   UNL     1      -0.154  15.195  22.861  0.00  0.00    +0.000 C 
ATOM      9  C   UNL     1      -0.267  13.842  22.145  0.00  0.00    +0.000 C 
ATOM     10  C   UNL     1      -1.870  12.270  20.047  0.00  0.00    +0.000 A 
ATOM     11  C   UNL     1      -2.713  11.955  18.961  0.00  0.00    +0.000 A 
ATOM     12  C   UNL     1      -4.071  12.295  19.009  0.00  0.00    +0.000 A 
ATOM     13  C   UNL     1      -4.980  11.986  17.844  0.00  0.00    +0.000 C 
ATOM     14  O   UNL     1      -4.314  11.531  16.661  0.00  0.00    +0.000 OA
ATOM     15  C   UNL     1      -3.261  10.591  16.897  0.00  0.00    +0.000 C 
ATOM     16  C   UNL     1      -2.683  10.222  15.524  0.00  0.00    +0.000 C 
ATOM     17  C   UNL     1      -3.777   9.306  17.568  0.00  0.00    +0.000 C 
ATOM     18  C   UNL     1      -2.166  11.283  17.719  0.00  0.00    +0.000 C 
ENDROOT
BRANCH  10  19
ATOM     19  C   UNL     1      -0.499  11.854  19.991  0.00  0.00    +0.000 C 
ATOM     20  N   UNL     1       0.615  11.522  19.991  0.00  0.00    +0.000 NA
ENDBRANCH  10  19
BRANCH   1  21
ATOM     21  C   UNL     1      -6.023  13.113  20.424  0.00  0.00    +0.000 C 
BRANCH  21  22
ATOM     22  C   UNL     1      -6.532  12.343  21.649  0.00  0.00    +0.000 C 
BRANCH  22  24
ATOM     23  C   UNL     1      -7.326  10.396  20.268  0.00  0.00    +0.000 C 
ATOM     24  C   UNL     1      -7.715  11.438  21.306  0.00  0.00    +0.000 C 
ENDBRANCH  22  24
ENDBRANCH  21  22
ENDBRANCH   1  21
TORSDOF 4
ENDMDL
MODEL 9
REMARK VINA RESULT:      -5.6      6.418     10.208
REMARK  Name = 
REMARK  7 active torsions:
REMARK  status: ('A' for Active; 'I' for Inactive)
REMARK    1  A    between atoms: C_1  and  C_2
REMARK    2  A    between atoms: C_2  and  C_3
REMARK    3  A    between atoms: C_3  and  C_4
REMARK    4  A    between atoms: C_4  and  C_5
REMARK    5  A    between atoms: C_14  and  C_15
REMARK    6  A    between atoms: C_21  and  C_22
REMARK    7  A    between atoms: C_21  and  C_23
REMARK                            x       y       z     vdW  Elec       q    Type
REMARK                         _______ _______ _______ _____ _____    ______ ____
ROOT
ATOM      1  C   UNL     1      -2.392  12.859  20.711  0.00  0.00    +0.000 A 
ATOM      2  N   UNL     1      -2.500  11.995  19.661  0.00  0.00    +0.000 NA
ATOM      3  C   UNL     1      -3.704  11.745  19.087  0.00  0.00    +0.000 A 
ATOM      4  N   UNL     1      -3.715  10.917  17.985  0.00  0.00    +0.000 N 
ATOM      5  C   UNL     1      -2.713   9.853  17.834  0.00  0.00    +0.000 C 
ATOM      6  C   UNL     1      -2.011   9.948  16.471  0.00  0.00    +0.000 C 
ATOM      7  O   UNL     1      -2.952   9.994  15.384  0.00  0.00    +0.000 OA
ATOM      8  C   UNL     1      -3.799  11.141  15.522  0.00  0.00    +0.000 C 
ATOM      9  C   UNL     1      -4.604  11.095  16.828  0.00  0.00    +0.000 C 
ATOM     10  C   UNL     1      -4.860  12.324  19.633  0.00  0.00    +0.000 A 
ATOM     11  C   UNL     1      -4.756  13.212  20.724  0.00  0.00    +0.000 A 
ATOM     12  C   UNL     1      -3.496  13.525  21.251  0.00  0.00    +0.000 A 
ATOM     13  C   UNL     1      -3.367  14.493  22.403  0.00  0.00    +0.000 C 
ATOM     14  O   UNL     1      -4.570  15.188  22.748  0.00  0.00    +0.000 OA
ATOM     15  C   UNL     1      -5.747  14.372  22.747  0.00  0.00    +0.000 C 
ATOM     16  C   UNL     1      -6.916  15.283  23.144  0.00  0.00    +0.000 C 
ATOM     17  C   UNL     1      -5.654  13.226  23.770  0.00  0.00    +0.000 C 
ATOM     18  C   UNL     1      -5.985  13.865  21.319  0.00  0.00    +0.000 C 
ENDROOT
BRANCH  10  19
ATOM     19  C   UNL     1      -6.167  11.977  19.157  0.00  0.00    +0.000 C 
ATOM     20  N   UNL     1      -7.211  11.655  18.760  0.00  0.00    +0.000 NA
ENDBRANCH  10  19
BRANCH   1  21
ATOM     21  C   UNL     1      -1.007  12.990  21.312  0.00  0.00    +0.000 C 
BRANCH  21  22
ATOM     22  C   UNL     1      -0.413  11.615  21.637  0.00  0.00    +0.000 C 
BRANCH  22  24
ATOM     23  C   UNL     1      -0.445   9.632  23.186  0.00  0.00    +0.000 C 
ATOM     24  C   UNL     1      -1.050  10.995  22.881  0.00  0.00    +0.000 C 
ENDBRANCH  22  24
ENDBRANCH  21  22
ENDBRANCH   1  21
TORSDOF 4
ENDMDL
