MODEL 1
REMARK VINA RESULT:      -7.3      0.000      0.000
REMARK  Name = 
REMARK  7 active torsions:
REMARK  status: ('A' for Active; 'I' for Inactive)
REMARK    1  A    between atoms: C_1  and  C_2
REMARK    2  A    between atoms: N_4  and  C_5
REMARK    3  A    between atoms: C_6  and  O_7
REMARK    4  A    between atoms: C_9  and  S_10
REMARK    5  A    between atoms: S_10  and  C_11
REMARK    6  A    between atoms: C_11  and  C_12
REMARK    7  A    between atoms: C_20  and  O_21
REMARK                            x       y       z     vdW  Elec       q    Type
REMARK                         _______ _______ _______ _____ _____    ______ ____
ROOT
ATOM      1  C   UNL     1       6.599   5.331  18.311  0.00  0.00    +0.000 A 
ATOM      2  C   UNL     1       6.129   6.175  17.318  0.00  0.00    +0.000 A 
ATOM      3  N   UNL     1       6.606   7.400  17.074  0.00  0.00    +0.000 NA
ATOM      4  C   UNL     1       7.636   7.807  17.830  0.00  0.00    +0.000 A 
ATOM      5  N   UNL     1       8.193   7.084  18.830  0.00  0.00    +0.000 NA
ATOM      6  C   UNL     1       7.644   5.883  19.033  0.00  0.00    +0.000 A 
ENDROOT
BRANCH   1  10
ATOM      7  C   UNL     1       4.444   2.485  19.466  0.00  0.00    +0.000 C 
ATOM      8  C   UNL     1       4.843   3.916  19.235  0.00  0.00    +0.000 C 
ATOM      9  O   UNL     1       4.139   4.855  19.589  0.00  0.00    +0.000 OA
ATOM     10  N   UNL     1       6.082   4.058  18.642  0.00  0.00    +0.000 N 
ATOM     11  H   UNL     1       6.344   3.310  17.997  0.00  0.00    +0.000 HD
ENDBRANCH   1  10
BRANCH   2  12
ATOM     12  O   UNL     1       4.998   5.884  16.608  0.00  0.00    +0.000 OA
ATOM     13  H   UNL     1       5.208   6.005  15.670  0.00  0.00    +0.000 HD
ENDBRANCH   2  12
BRANCH   6  14
ATOM     14  O   UNL     1       8.230   5.167  20.036  0.00  0.00    +0.000 OA
ATOM     15  H   UNL     1       8.466   4.353  19.554  0.00  0.00    +0.000 HD
ENDBRANCH   6  14
BRANCH   4  16
ATOM     16  S   UNL     1       8.285   9.438  17.554  0.00  0.00    +0.000 S 
BRANCH  16  17
ATOM     17  C   UNL     1       9.147   9.683  19.144  0.00  0.00    +0.000 C 
BRANCH  17  18
ATOM     18  C   UNL     1       9.917  10.986  19.168  0.00  0.00    +0.000 A 
ATOM     19  C   UNL     1      10.457  11.511  17.982  0.00  0.00    +0.000 A 
ATOM     20  C   UNL     1      11.195  12.697  17.999  0.00  0.00    +0.000 A 
ATOM     21  C   UNL     1      11.400  13.367  19.203  0.00  0.00    +0.000 A 
ATOM     22 CL   UNL     1      12.332  14.813  19.230  0.00  0.00    +0.000 Cl
ATOM     23  C   UNL     1      10.862  12.866  20.387  0.00  0.00    +0.000 A 
ATOM     24  C   UNL     1      10.121  11.681  20.370  0.00  0.00    +0.000 A 
ENDBRANCH  17  18
ENDBRANCH  16  17
ENDBRANCH   4  16
TORSDOF 6
ENDMDL
MODEL 2
REMARK VINA RESULT:      -7.2      0.311      1.025
REMARK  Name = 
REMARK  7 active torsions:
REMARK  status: ('A' for Active; 'I' for Inactive)
REMARK    1  A    between atoms: C_1  and  C_2
REMARK    2  A    between atoms: N_4  and  C_5
REMARK    3  A    between atoms: C_6  and  O_7
REMARK    4  A    between atoms: C_9  and  S_10
REMARK    5  A    between atoms: S_10  and  C_11
REMARK    6  A    between atoms: C_11  and  C_12
REMARK    7  A    between atoms: C_20  and  O_21
REMARK                            x       y       z     vdW  Elec       q    Type
REMARK                         _______ _______ _______ _____ _____    ______ ____
ROOT
ATOM      1  C   UNL     1       6.587   5.264  18.311  0.00  0.00    +0.000 A 
ATOM      2  C   UNL     1       6.159   6.054  17.256  0.00  0.00    +0.000 A 
ATOM      3  N   UNL     1       6.628   7.277  16.985  0.00  0.00    +0.000 NA
ATOM      4  C   UNL     1       7.607   7.737  17.779  0.00  0.00    +0.000 A 
ATOM      5  N   UNL     1       8.119   7.070  18.839  0.00  0.00    +0.000 NA
ATOM      6  C   UNL     1       7.579   5.868  19.065  0.00  0.00    +0.000 A 
ENDROOT
BRANCH   1  10
ATOM      7  C   UNL     1       4.449   2.439  19.548  0.00  0.00    +0.000 C 
ATOM      8  C   UNL     1       4.847   3.866  19.289  0.00  0.00    +0.000 C 
ATOM      9  O   UNL     1       4.152   4.811  19.645  0.00  0.00    +0.000 OA
ATOM     10  N   UNL     1       6.074   3.997  18.670  0.00  0.00    +0.000 N 
ATOM     11  H   UNL     1       6.322   3.240  18.030  0.00  0.00    +0.000 HD
ENDBRANCH   1  10
BRANCH   2  12
ATOM     12  O   UNL     1       5.076   5.710  16.499  0.00  0.00    +0.000 OA
ATOM     13  H   UNL     1       4.358   5.485  17.109  0.00  0.00    +0.000 HD
ENDBRANCH   2  12
BRANCH   6  14
ATOM     14  O   UNL     1       8.120   5.209  20.130  0.00  0.00    +0.000 OA
ATOM     15  H   UNL     1       8.999   4.987  19.770  0.00  0.00    +0.000 HD
ENDBRANCH   6  14
BRANCH   4  16
ATOM     16  S   UNL     1       8.242   9.366  17.466  0.00  0.00    +0.000 S 
BRANCH  16  17
ATOM     17  C   UNL     1       8.964   9.718  19.104  0.00  0.00    +0.000 C 
BRANCH  17  18
ATOM     18  C   UNL     1       9.830  10.959  19.080  0.00  0.00    +0.000 A 
ATOM     19  C   UNL     1      10.615  11.297  20.196  0.00  0.00    +0.000 A 
ATOM     20  C   UNL     1      11.394  12.456  20.194  0.00  0.00    +0.000 A 
ATOM     21  C   UNL     1      11.395  13.287  19.077  0.00  0.00    +0.000 A 
ATOM     22 CL   UNL     1      12.333  14.730  19.084  0.00  0.00    +0.000 Cl
ATOM     23  C   UNL     1      10.632  12.962  17.957  0.00  0.00    +0.000 A 
ATOM     24  C   UNL     1       9.854  11.801  17.957  0.00  0.00    +0.000 A 
ENDBRANCH  17  18
ENDBRANCH  16  17
ENDBRANCH   4  16
TORSDOF 6
ENDMDL
MODEL 3
REMARK VINA RESULT:      -7.2      5.966      7.405
REMARK  Name = 
REMARK  7 active torsions:
REMARK  status: ('A' for Active; 'I' for Inactive)
REMARK    1  A    between atoms: C_1  and  C_2
REMARK    2  A    between atoms: N_4  and  C_5
REMARK    3  A    between atoms: C_6  and  O_7
REMARK    4  A    between atoms: C_9  and  S_10
REMARK    5  A    between atoms: S_10  and  C_11
REMARK    6  A    between atoms: C_11  and  C_12
REMARK    7  A    between atoms: C_20  and  O_21
REMARK                            x       y       z     vdW  Elec       q    Type
REMARK                         _______ _______ _______ _____ _____    ______ ____
ROOT
ATOM      1  C   UNL     1       6.726   5.387  16.127  0.00  0.00    +0.000 A 
ATOM      2  C   UNL     1       7.028   4.633  17.249  0.00  0.00    +0.000 A 
ATOM      3  N   UNL     1       6.253   4.544  18.335  0.00  0.00    +0.000 NA
ATOM      4  C   UNL     1       5.088   5.209  18.300  0.00  0.00    +0.000 A 
ATOM      5  N   UNL     1       4.669   5.978  17.268  0.00  0.00    +0.000 NA
ATOM      6  C   UNL     1       5.510   6.043  16.233  0.00  0.00    +0.000 A 
ENDROOT
BRANCH   1  10
ATOM      7  C   UNL     1       8.200   5.302  12.677  0.00  0.00    +0.000 C 
ATOM      8  C   UNL     1       7.238   4.962  13.782  0.00  0.00    +0.000 C 
ATOM      9  O   UNL     1       6.302   4.189  13.617  0.00  0.00    +0.000 OA
ATOM     10  N   UNL     1       7.546   5.560  14.988  0.00  0.00    +0.000 N 
ATOM     11  H   UNL     1       7.992   6.477  14.919  0.00  0.00    +0.000 HD
ENDBRANCH   1  10
BRANCH   2  12
ATOM     12  O   UNL     1       8.253   4.049  17.410  0.00  0.00    +0.000 OA
ATOM     13  H   UNL     1       8.102   3.157  17.759  0.00  0.00    +0.000 HD
ENDBRANCH   2  12
BRANCH   6  14
ATOM     14  O   UNL     1       5.062   6.813  15.200  0.00  0.00    +0.000 OA
ATOM     15  H   UNL     1       4.123   6.547  15.179  0.00  0.00    +0.000 HD
ENDBRANCH   6  14
BRANCH   4  16
ATOM     16  S   UNL     1       4.038   5.134  19.732  0.00  0.00    +0.000 S 
BRANCH  16  17
ATOM     17  C   UNL     1       2.449   5.580  18.953  0.00  0.00    +0.000 C 
BRANCH  17  18
ATOM     18  C   UNL     1       1.998   6.967  19.354  0.00  0.00    +0.000 A 
ATOM     19  C   UNL     1       1.586   7.224  20.673  0.00  0.00    +0.000 A 
ATOM     20  C   UNL     1       1.139   8.493  21.046  0.00  0.00    +0.000 A 
ATOM     21  C   UNL     1       1.100   9.517  20.102  0.00  0.00    +0.000 A 
ATOM     22 CL   UNL     1       0.523  11.075  20.554  0.00  0.00    +0.000 Cl
ATOM     23  C   UNL     1       1.515   9.284  18.793  0.00  0.00    +0.000 A 
ATOM     24  C   UNL     1       1.964   8.014  18.420  0.00  0.00    +0.000 A 
ENDBRANCH  17  18
ENDBRANCH  16  17
ENDBRANCH   4  16
TORSDOF 6
ENDMDL
MODEL 4
REMARK VINA RESULT:      -7.1      5.942      7.303
REMARK  Name = 
REMARK  7 active torsions:
REMARK  status: ('A' for Active; 'I' for Inactive)
REMARK    1  A    between atoms: C_1  and  C_2
REMARK    2  A    between atoms: N_4  and  C_5
REMARK    3  A    between atoms: C_6  and  O_7
REMARK    4  A    between atoms: C_9  and  S_10
REMARK    5  A    between atoms: S_10  and  C_11
REMARK    6  A    between atoms: C_11  and  C_12
REMARK    7  A    between atoms: C_20  and  O_21
REMARK                            x       y       z     vdW  Elec       q    Type
REMARK                         _______ _______ _______ _____ _____    ______ ____
ROOT
ATOM      1  C   UNL     1       6.691   5.430  16.110  0.00  0.00    +0.000 A 
ATOM      2  C   UNL     1       6.995   4.645  17.211  0.00  0.00    +0.000 A 
ATOM      3  N   UNL     1       6.236   4.552  18.308  0.00  0.00    +0.000 NA
ATOM      4  C   UNL     1       5.087   5.243  18.307  0.00  0.00    +0.000 A 
ATOM      5  N   UNL     1       4.669   6.044  17.299  0.00  0.00    +0.000 NA
ATOM      6  C   UNL     1       5.494   6.111  16.250  0.00  0.00    +0.000 A 
ENDROOT
BRANCH   1  10
ATOM      7  C   UNL     1       8.179   5.269  12.668  0.00  0.00    +0.000 C 
ATOM      8  C   UNL     1       7.249   4.909  13.795  0.00  0.00    +0.000 C 
ATOM      9  O   UNL     1       6.390   4.043  13.680  0.00  0.00    +0.000 OA
ATOM     10  N   UNL     1       7.496   5.607  14.960  0.00  0.00    +0.000 N 
ATOM     11  H   UNL     1       7.854   6.556  14.833  0.00  0.00    +0.000 HD
ENDBRANCH   1  10
BRANCH   2  12
ATOM     12  O   UNL     1       8.208   4.029  17.338  0.00  0.00    +0.000 OA
ATOM     13  H   UNL     1       8.114   3.133  16.982  0.00  0.00    +0.000 HD
ENDBRANCH   2  12
BRANCH   6  14
ATOM     14  O   UNL     1       5.045   6.912  15.242  0.00  0.00    +0.000 OA
ATOM     15  H   UNL     1       5.243   7.791  15.615  0.00  0.00    +0.000 HD
ENDBRANCH   6  14
BRANCH   4  16
ATOM     16  S   UNL     1       4.061   5.163  19.755  0.00  0.00    +0.000 S 
BRANCH  16  17
ATOM     17  C   UNL     1       2.449   5.553  18.993  0.00  0.00    +0.000 C 
BRANCH  17  18
ATOM     18  C   UNL     1       1.981   6.947  19.351  0.00  0.00    +0.000 A 
ATOM     19  C   UNL     1       1.948   7.956  18.374  0.00  0.00    +0.000 A 
ATOM     20  C   UNL     1       1.547   9.252  18.702  0.00  0.00    +0.000 A 
ATOM     21  C   UNL     1       1.176   9.551  20.011  0.00  0.00    +0.000 A 
ATOM     22 CL   UNL     1       0.708  11.155  20.423  0.00  0.00    +0.000 Cl
ATOM     23  C   UNL     1       1.191   8.561  20.991  0.00  0.00    +0.000 A 
ATOM     24  C   UNL     1       1.591   7.262  20.662  0.00  0.00    +0.000 A 
ENDBRANCH  17  18
ENDBRANCH  16  17
ENDBRANCH   4  16
TORSDOF 6
ENDMDL
MODEL 5
REMARK VINA RESULT:      -7.1      0.233      2.079
REMARK  Name = 
REMARK  7 active torsions:
REMARK  status: ('A' for Active; 'I' for Inactive)
REMARK    1  A    between atoms: C_1  and  C_2
REMARK    2  A    between atoms: N_4  and  C_5
REMARK    3  A    between atoms: C_6  and  O_7
REMARK    4  A    between atoms: C_9  and  S_10
REMARK    5  A    between atoms: S_10  and  C_11
REMARK    6  A    between atoms: C_11  and  C_12
REMARK    7  A    between atoms: C_20  and  O_21
REMARK                            x       y       z     vdW  Elec       q    Type
REMARK                         _______ _______ _______ _____ _____    ______ ____
ROOT
ATOM      1  C   UNL     1       6.476   5.298  18.367  0.00  0.00    +0.000 A 
ATOM      2  C   UNL     1       7.445   5.875  19.171  0.00  0.00    +0.000 A 
ATOM      3  N   UNL     1       8.036   7.049  18.924  0.00  0.00    +0.000 NA
ATOM      4  C   UNL     1       7.620   7.716  17.838  0.00  0.00    +0.000 A 
ATOM      5  N   UNL     1       6.681   7.271  16.970  0.00  0.00    +0.000 NA
ATOM      6  C   UNL     1       6.159   6.077  17.266  0.00  0.00    +0.000 A 
ENDROOT
BRANCH   1  10
ATOM      7  C   UNL     1       4.152   2.486  19.247  0.00  0.00    +0.000 C 
ATOM      8  C   UNL     1       4.651   3.904  19.183  0.00  0.00    +0.000 C 
ATOM      9  O   UNL     1       4.035   4.835  19.687  0.00  0.00    +0.000 OA
ATOM     10  N   UNL     1       5.875   4.033  18.557  0.00  0.00    +0.000 N 
ATOM     11  H   UNL     1       6.055   3.359  17.810  0.00  0.00    +0.000 HD
ENDBRANCH   1  10
BRANCH   2  12
ATOM     12  O   UNL     1       8.013   5.192  20.209  0.00  0.00    +0.000 OA
ATOM     13  H   UNL     1       7.898   4.246  20.029  0.00  0.00    +0.000 HD
ENDBRANCH   2  12
BRANCH   6  14
ATOM     14  O   UNL     1       5.206   5.655  16.387  0.00  0.00    +0.000 OA
ATOM     15  H   UNL     1       5.571   4.785  16.138  0.00  0.00    +0.000 HD
ENDBRANCH   6  14
BRANCH   4  16
ATOM     16  S   UNL     1       8.395   9.270  17.462  0.00  0.00    +0.000 S 
BRANCH  16  17
ATOM     17  C   UNL     1       9.012   9.700  19.125  0.00  0.00    +0.000 C 
BRANCH  17  18
ATOM     18  C   UNL     1       9.870  10.946  19.100  0.00  0.00    +0.000 A 
ATOM     19  C   UNL     1      10.353  11.497  20.299  0.00  0.00    +0.000 A 
ATOM     20  C   UNL     1      11.120  12.664  20.288  0.00  0.00    +0.000 A 
ATOM     21  C   UNL     1      11.411  13.290  19.078  0.00  0.00    +0.000 A 
ATOM     22 CL   UNL     1      12.333  14.743  19.065  0.00  0.00    +0.000 Cl
ATOM     23  C   UNL     1      10.951  12.751  17.879  0.00  0.00    +0.000 A 
ATOM     24  C   UNL     1      10.184  11.582  17.889  0.00  0.00    +0.000 A 
ENDBRANCH  17  18
ENDBRANCH  16  17
ENDBRANCH   4  16
TORSDOF 6
ENDMDL
MODEL 6
REMARK VINA RESULT:      -7.0      0.209      1.790
REMARK  Name = 
REMARK  7 active torsions:
REMARK  status: ('A' for Active; 'I' for Inactive)
REMARK    1  A    between atoms: C_1  and  C_2
REMARK    2  A    between atoms: N_4  and  C_5
REMARK    3  A    between atoms: C_6  and  O_7
REMARK    4  A    between atoms: C_9  and  S_10
REMARK    5  A    between atoms: S_10  and  C_11
REMARK    6  A    between atoms: C_11  and  C_12
REMARK    7  A    between atoms: C_20  and  O_21
REMARK                            x       y       z     vdW  Elec       q    Type
REMARK                         _______ _______ _______ _____ _____    ______ ____
ROOT
ATOM      1  C   UNL     1       6.541   5.274  18.329  0.00  0.00    +0.000 A 
ATOM      2  C   UNL     1       7.456   5.880  19.175  0.00  0.00    +0.000 A 
ATOM      3  N   UNL     1       8.021   7.071  18.953  0.00  0.00    +0.000 NA
ATOM      4  C   UNL     1       7.634   7.725  17.847  0.00  0.00    +0.000 A 
ATOM      5  N   UNL     1       6.749   7.251  16.940  0.00  0.00    +0.000 NA
ATOM      6  C   UNL     1       6.250   6.042  17.214  0.00  0.00    +0.000 A 
ENDROOT
BRANCH   1  10
ATOM      7  C   UNL     1       4.323   2.382  19.225  0.00  0.00    +0.000 C 
ATOM      8  C   UNL     1       4.799   3.809  19.201  0.00  0.00    +0.000 C 
ATOM      9  O   UNL     1       4.210   4.703  19.797  0.00  0.00    +0.000 OA
ATOM     10  N   UNL     1       5.971   3.990  18.494  0.00  0.00    +0.000 N 
ATOM     11  H   UNL     1       6.104   3.360  17.701  0.00  0.00    +0.000 HD
ENDBRANCH   1  10
BRANCH   2  12
ATOM     12  O   UNL     1       7.997   5.215  20.239  0.00  0.00    +0.000 OA
ATOM     13  H   UNL     1       8.495   4.463  19.884  0.00  0.00    +0.000 HD
ENDBRANCH   2  12
BRANCH   6  14
ATOM     14  O   UNL     1       5.351   5.590  16.293  0.00  0.00    +0.000 OA
ATOM     15  H   UNL     1       4.515   5.766  16.764  0.00  0.00    +0.000 HD
ENDBRANCH   6  14
BRANCH   4  16
ATOM     16  S   UNL     1       8.378   9.302  17.504  0.00  0.00    +0.000 S 
BRANCH  16  17
ATOM     17  C   UNL     1       9.106   9.645  19.141  0.00  0.00    +0.000 C 
BRANCH  17  18
ATOM     18  C   UNL     1       9.882  10.944  19.148  0.00  0.00    +0.000 A 
ATOM     19  C   UNL     1      10.373  11.482  17.946  0.00  0.00    +0.000 A 
ATOM     20  C   UNL     1      11.116  12.665  17.946  0.00  0.00    +0.000 A 
ATOM     21  C   UNL     1      11.375  13.320  19.148  0.00  0.00    +0.000 A 
ATOM     22 CL   UNL     1      12.313  14.762  19.151  0.00  0.00    +0.000 Cl
ATOM     23  C   UNL     1      10.886  12.807  20.347  0.00  0.00    +0.000 A 
ATOM     24  C   UNL     1      10.141  11.624  20.348  0.00  0.00    +0.000 A 
ENDBRANCH  17  18
ENDBRANCH  16  17
ENDBRANCH   4  16
TORSDOF 6
ENDMDL
MODEL 7
REMARK VINA RESULT:      -6.9      5.911      7.225
REMARK  Name = 
REMARK  7 active torsions:
REMARK  status: ('A' for Active; 'I' for Inactive)
REMARK    1  A    between atoms: C_1  and  C_2
REMARK    2  A    between atoms: N_4  and  C_5
REMARK    3  A    between atoms: C_6  and  O_7
REMARK    4  A    between atoms: C_9  and  S_10
REMARK    5  A    between atoms: S_10  and  C_11
REMARK    6  A    between atoms: C_11  and  C_12
REMARK    7  A    between atoms: C_20  and  O_21
REMARK                            x       y       z     vdW  Elec       q    Type
REMARK                         _______ _______ _______ _____ _____    ______ ____
ROOT
ATOM      1  C   UNL     1       6.693   5.568  16.157  0.00  0.00    +0.000 A 
ATOM      2  C   UNL     1       5.490   6.237  16.312  0.00  0.00    +0.000 A 
ATOM      3  N   UNL     1       4.680   6.106  17.368  0.00  0.00    +0.000 NA
ATOM      4  C   UNL     1       5.098   5.295  18.351  0.00  0.00    +0.000 A 
ATOM      5  N   UNL     1       6.251   4.586  18.330  0.00  0.00    +0.000 NA
ATOM      6  C   UNL     1       6.991   4.744  17.229  0.00  0.00    +0.000 A 
ENDROOT
BRANCH   1  10
ATOM      7  C   UNL     1       8.245   5.175  12.762  0.00  0.00    +0.000 C 
ATOM      8  C   UNL     1       7.246   4.950  13.864  0.00  0.00    +0.000 C 
ATOM      9  O   UNL     1       6.290   4.194  13.734  0.00  0.00    +0.000 OA
ATOM     10  N   UNL     1       7.545   5.628  15.029  0.00  0.00    +0.000 N 
ATOM     11  H   UNL     1       8.021   6.523  14.903  0.00  0.00    +0.000 HD
ENDBRANCH   1  10
BRANCH   2  12
ATOM     12  O   UNL     1       4.939   6.964  15.295  0.00  0.00    +0.000 OA
ATOM     13  H   UNL     1       5.571   7.661  15.065  0.00  0.00    +0.000 HD
ENDBRANCH   2  12
BRANCH   6  14
ATOM     14  O   UNL     1       8.154   4.031  17.235  0.00  0.00    +0.000 OA
ATOM     15  H   UNL     1       8.734   4.638  16.739  0.00  0.00    +0.000 HD
ENDBRANCH   6  14
BRANCH   4  16
ATOM     16  S   UNL     1       4.041   5.077  19.763  0.00  0.00    +0.000 S 
BRANCH  16  17
ATOM     17  C   UNL     1       2.444   5.530  19.006  0.00  0.00    +0.000 C 
BRANCH  17  18
ATOM     18  C   UNL     1       1.991   6.909  19.436  0.00  0.00    +0.000 A 
ATOM     19  C   UNL     1       1.582   7.138  20.760  0.00  0.00    +0.000 A 
ATOM     20  C   UNL     1       1.134   8.399  21.159  0.00  0.00    +0.000 A 
ATOM     21  C   UNL     1       1.091   9.442  20.236  0.00  0.00    +0.000 A 
ATOM     22 CL   UNL     1       0.513  10.989  20.720  0.00  0.00    +0.000 Cl
ATOM     23  C   UNL     1       1.504   9.235  18.922  0.00  0.00    +0.000 A 
ATOM     24  C   UNL     1       1.954   7.974  18.522  0.00  0.00    +0.000 A 
ENDBRANCH  17  18
ENDBRANCH  16  17
ENDBRANCH   4  16
TORSDOF 6
ENDMDL
MODEL 8
REMARK VINA RESULT:      -6.8      5.211      6.630
REMARK  Name = 
REMARK  7 active torsions:
REMARK  status: ('A' for Active; 'I' for Inactive)
REMARK    1  A    between atoms: C_1  and  C_2
REMARK    2  A    between atoms: N_4  and  C_5
REMARK    3  A    between atoms: C_6  and  O_7
REMARK    4  A    between atoms: C_9  and  S_10
REMARK    5  A    between atoms: S_10  and  C_11
REMARK    6  A    between atoms: C_11  and  C_12
REMARK    7  A    between atoms: C_20  and  O_21
REMARK                            x       y       z     vdW  Elec       q    Type
REMARK                         _______ _______ _______ _____ _____    ______ ____
ROOT
ATOM      1  C   UNL     1       3.562   4.011  19.541  0.00  0.00    +0.000 A 
ATOM      2  C   UNL     1       3.786   5.374  19.645  0.00  0.00    +0.000 A 
ATOM      3  N   UNL     1       4.989   5.953  19.565  0.00  0.00    +0.000 NA
ATOM      4  C   UNL     1       6.033   5.145  19.330  0.00  0.00    +0.000 A 
ATOM      5  N   UNL     1       5.954   3.799  19.205  0.00  0.00    +0.000 NA
ATOM      6  C   UNL     1       4.725   3.291  19.327  0.00  0.00    +0.000 A 
ENDROOT
BRANCH   1  10
ATOM      7  C   UNL     1       0.241   2.369  18.942  0.00  0.00    +0.000 C 
ATOM      8  C   UNL     1       1.496   3.124  18.599  0.00  0.00    +0.000 C 
ATOM      9  O   UNL     1       1.726   3.527  17.465  0.00  0.00    +0.000 OA
ATOM     10  N   UNL     1       2.318   3.354  19.685  0.00  0.00    +0.000 N 
ATOM     11  H   UNL     1       2.298   2.632  20.407  0.00  0.00    +0.000 HD
ENDBRANCH   1  10
BRANCH   2  12
ATOM     12  O   UNL     1       2.795   6.236  20.022  0.00  0.00    +0.000 OA
ATOM     13  H   UNL     1       2.738   6.203  20.989  0.00  0.00    +0.000 HD
ENDBRANCH   2  12
BRANCH   6  14
ATOM     14  O   UNL     1       4.668   1.936  19.184  0.00  0.00    +0.000 OA
ATOM     15  H   UNL     1       4.582   1.866  18.214  0.00  0.00    +0.000 HD
ENDBRANCH   6  14
BRANCH   4  16
ATOM     16  S   UNL     1       7.651   5.872  19.238  0.00  0.00    +0.000 S 
BRANCH  16  17
ATOM     17  C   UNL     1       7.424   6.906  17.752  0.00  0.00    +0.000 C 
BRANCH  17  18
ATOM     18  C   UNL     1       6.862   6.109  16.595  0.00  0.00    +0.000 A 
ATOM     19  C   UNL     1       5.650   6.491  15.994  0.00  0.00    +0.000 A 
ATOM     20  C   UNL     1       5.109   5.744  14.946  0.00  0.00    +0.000 A 
ATOM     21  C   UNL     1       5.774   4.608  14.490  0.00  0.00    +0.000 A 
ATOM     22 CL   UNL     1       5.094   3.671  13.216  0.00  0.00    +0.000 Cl
ATOM     23  C   UNL     1       6.982   4.221  15.066  0.00  0.00    +0.000 A 
ATOM     24  C   UNL     1       7.526   4.970  16.114  0.00  0.00    +0.000 A 
ENDBRANCH  17  18
ENDBRANCH  16  17
ENDBRANCH   4  16
TORSDOF 6
ENDMDL
MODEL 9
REMARK VINA RESULT:      -6.7      5.207      6.630
REMARK  Name = 
REMARK  7 active torsions:
REMARK  status: ('A' for Active; 'I' for Inactive)
REMARK    1  A    between atoms: C_1  and  C_2
REMARK    2  A    between atoms: N_4  and  C_5
REMARK    3  A    between atoms: C_6  and  O_7
REMARK    4  A    between atoms: C_9  and  S_10
REMARK    5  A    between atoms: S_10  and  C_11
REMARK    6  A    between atoms: C_11  and  C_12
REMARK    7  A    between atoms: C_20  and  O_21
REMARK                            x       y       z     vdW  Elec       q    Type
REMARK                         _______ _______ _______ _____ _____    ______ ____
ROOT
ATOM      1  C   UNL     1       3.547   3.997  19.481  0.00  0.00    +0.000 A 
ATOM      2  C   UNL     1       3.736   5.369  19.453  0.00  0.00    +0.000 A 
ATOM      3  N   UNL     1       4.930   5.968  19.385  0.00  0.00    +0.000 NA
ATOM      4  C   UNL     1       6.003   5.168  19.302  0.00  0.00    +0.000 A 
ATOM      5  N   UNL     1       5.960   3.815  19.316  0.00  0.00    +0.000 NA
ATOM      6  C   UNL     1       4.736   3.289  19.417  0.00  0.00    +0.000 A 
ENDROOT
BRANCH   1  10
ATOM      7  C   UNL     1       0.295   2.229  18.858  0.00  0.00    +0.000 C 
ATOM      8  C   UNL     1       1.552   2.980  18.516  0.00  0.00    +0.000 C 
ATOM      9  O   UNL     1       1.835   3.288  17.364  0.00  0.00    +0.000 OA
ATOM     10  N   UNL     1       2.310   3.325  19.618  0.00  0.00    +0.000 N 
ATOM     11  H   UNL     1       2.265   2.668  20.400  0.00  0.00    +0.000 HD
ENDBRANCH   1  10
BRANCH   2  12
ATOM     12  O   UNL     1       2.706   6.238  19.675  0.00  0.00    +0.000 OA
ATOM     13  H   UNL     1       2.587   6.756  18.864  0.00  0.00    +0.000 HD
ENDBRANCH   2  12
BRANCH   6  14
ATOM     14  O   UNL     1       4.715   1.925  19.416  0.00  0.00    +0.000 OA
ATOM     15  H   UNL     1       4.550   1.754  18.470  0.00  0.00    +0.000 HD
ENDBRANCH   6  14
BRANCH   4  16
ATOM     16  S   UNL     1       7.608   5.925  19.233  0.00  0.00    +0.000 S 
BRANCH  16  17
ATOM     17  C   UNL     1       7.404   6.906  17.708  0.00  0.00    +0.000 C 
BRANCH  17  18
ATOM     18  C   UNL     1       6.813   6.081  16.585  0.00  0.00    +0.000 A 
ATOM     19  C   UNL     1       7.446   4.899  16.166  0.00  0.00    +0.000 A 
ATOM     20  C   UNL     1       6.924   4.147  15.111  0.00  0.00    +0.000 A 
ATOM     21  C   UNL     1       5.765   4.571  14.467  0.00  0.00    +0.000 A 
ATOM     22 CL   UNL     1       5.137   3.660  13.149  0.00  0.00    +0.000 Cl
ATOM     23  C   UNL     1       5.117   5.734  14.877  0.00  0.00    +0.000 A 
ATOM     24  C   UNL     1       5.637   6.487  15.934  0.00  0.00    +0.000 A 
ENDBRANCH  17  18
ENDBRANCH  16  17
ENDBRANCH   4  16
TORSDOF 6
ENDMDL
