MODEL 1
REMARK VINA RESULT:      -8.1      0.000      0.000
REMARK  Name = 
REMARK  12 active torsions:
REMARK  status: ('A' for Active; 'I' for Inactive)
REMARK    1  A    between atoms: C_1  and  O_2
REMARK    2  A    between atoms: O_2  and  C_3
REMARK    3  A    between atoms: C_5  and  O_6
REMARK    4  A    between atoms: O_6  and  C_7
REMARK    5  A    between atoms: C_11  and  C_12
REMARK    6  A    between atoms: C_12  and  C_13
REMARK    7  A    between atoms: C_13  and  C_14
REMARK    8  A    between atoms: C_14  and  C_15
REMARK    9  A    between atoms: C_15  and  C_16
REMARK   10  A    between atoms: C_16  and  C_17
REMARK   11  A    between atoms: C_17  and  C_18
REMARK   12  A    between atoms: C_24  and  C_25
REMARK                            x       y       z     vdW  Elec       q    Type
REMARK                         _______ _______ _______ _____ _____    ______ ____
ROOT
ATOM      1  C   UNL     1       7.091   5.434  17.546  0.00  0.00    +0.000 C 
ENDROOT
BRANCH   1   8
ATOM      2  C   UNL     1       3.010   7.220  17.796  0.00  0.00    +0.000 A 
ATOM      3  C   UNL     1       2.144   6.149  18.052  0.00  0.00    +0.000 A 
ATOM      4  C   UNL     1       2.608   4.907  18.541  0.00  0.00    +0.000 A 
ATOM      5  C   UNL     1       3.974   4.778  18.770  0.00  0.00    +0.000 A 
ATOM      6  C   UNL     1       4.830   5.843  18.504  0.00  0.00    +0.000 A 
ATOM      7  C   UNL     1       4.372   7.058  18.009  0.00  0.00    +0.000 A 
ATOM      8  C   UNL     1       6.230   5.471  18.802  0.00  0.00    +0.000 C 
ATOM      9  O   UNL     1       6.105   4.149  19.337  0.00  0.00    +0.000 OA
ATOM     10  C   UNL     1       4.825   3.679  19.262  0.00  0.00    +0.000 C 
ATOM     11  O   UNL     1       4.518   2.545  19.567  0.00  0.00    +0.000 OA
BRANCH   2  13
ATOM     12  C   UNL     1       1.404   8.955  17.794  0.00  0.00    +0.000 C 
ATOM     13  O   UNL     1       2.640   8.442  17.307  0.00  0.00    +0.000 OA
ENDBRANCH   2  13
BRANCH   4  14
ATOM     14  O   UNL     1       1.580   4.028  18.706  0.00  0.00    +0.000 OA
ATOM     15  C   UNL     1       0.998   3.852  19.984  0.00  0.00    +0.000 C 
ENDBRANCH   4  14
ENDBRANCH   1   8
BRANCH   1  16
ATOM     16  C   UNL     1       7.411   6.835  17.026  0.00  0.00    +0.000 C 
BRANCH  16  17
ATOM     17  C   UNL     1       8.297   7.606  18.006  0.00  0.00    +0.000 C 
BRANCH  17  18
ATOM     18  C   UNL     1       8.079   9.126  17.993  0.00  0.00    +0.000 C 
BRANCH  18  19
ATOM     19  C   UNL     1       8.979   9.907  18.962  0.00  0.00    +0.000 C 
BRANCH  19  20
ATOM     20  C   UNL     1       9.782  10.963  18.217  0.00  0.00    +0.000 C 
BRANCH  20  21
ATOM     21  C   UNL     1      10.992  11.527  18.964  0.00  0.00    +0.000 C 
ATOM     22  C   UNL     1      10.787  11.857  20.427  0.00  0.00    +0.000 C 
ATOM     23  C   UNL     1      10.082  13.193  20.377  0.00  0.00    +0.000 C 
ATOM     24  C   UNL     1      10.590  13.820  19.077  0.00  0.00    +0.000 C 
ATOM     25  C   UNL     1       9.479  14.399  18.194  0.00  0.00    +0.000 C 
ATOM     26  C   UNL     1       9.748  15.884  18.193  0.00  0.00    +0.000 C 
ATOM     27  C   UNL     1      11.236  15.967  18.465  0.00  0.00    +0.000 C 
ATOM     28  C   UNL     1      12.080  15.823  17.202  0.00  0.00    +0.000 C 
ATOM     29  O   UNL     1      11.504  14.886  19.369  0.00  0.00    +0.000 OA
ATOM     30  O   UNL     1      11.286  12.792  18.351  0.00  0.00    +0.000 OA
ENDBRANCH  20  21
ENDBRANCH  19  20
ENDBRANCH  18  19
ENDBRANCH  17  18
ENDBRANCH  16  17
ENDBRANCH   1  16
TORSDOF 9
ENDMDL
MODEL 2
REMARK VINA RESULT:      -8.0      1.426      1.770
REMARK  Name = 
REMARK  12 active torsions:
REMARK  status: ('A' for Active; 'I' for Inactive)
REMARK    1  A    between atoms: C_1  and  O_2
REMARK    2  A    between atoms: O_2  and  C_3
REMARK    3  A    between atoms: C_5  and  O_6
REMARK    4  A    between atoms: O_6  and  C_7
REMARK    5  A    between atoms: C_11  and  C_12
REMARK    6  A    between atoms: C_12  and  C_13
REMARK    7  A    between atoms: C_13  and  C_14
REMARK    8  A    between atoms: C_14  and  C_15
REMARK    9  A    between atoms: C_15  and  C_16
REMARK   10  A    between atoms: C_16  and  C_17
REMARK   11  A    between atoms: C_17  and  C_18
REMARK   12  A    between atoms: C_24  and  C_25
REMARK                            x       y       z     vdW  Elec       q    Type
REMARK                         _______ _______ _______ _____ _____    ______ ____
ROOT
ATOM      1  C   UNL     1       5.931   5.710  17.340  0.00  0.00    +0.000 C 
ENDROOT
BRANCH   1   8
ATOM      2  C   UNL     1       2.297   6.803  19.687  0.00  0.00    +0.000 A 
ATOM      3  C   UNL     1       1.709   5.587  20.060  0.00  0.00    +0.000 A 
ATOM      4  C   UNL     1       2.421   4.367  20.030  0.00  0.00    +0.000 A 
ATOM      5  C   UNL     1       3.748   4.408  19.617  0.00  0.00    +0.000 A 
ATOM      6  C   UNL     1       4.323   5.619  19.239  0.00  0.00    +0.000 A 
ATOM      7  C   UNL     1       3.616   6.815  19.255  0.00  0.00    +0.000 A 
ATOM      8  C   UNL     1       5.728   5.417  18.822  0.00  0.00    +0.000 C 
ATOM      9  O   UNL     1       5.941   4.023  19.068  0.00  0.00    +0.000 OA
ATOM     10  C   UNL     1       4.797   3.385  19.454  0.00  0.00    +0.000 C 
ATOM     11  O   UNL     1       4.733   2.184  19.616  0.00  0.00    +0.000 OA
BRANCH   2  13
ATOM     12  C   UNL     1       1.832   8.783  18.483  0.00  0.00    +0.000 C 
ATOM     13  O   UNL     1       1.671   8.018  19.673  0.00  0.00    +0.000 OA
ENDBRANCH   2  13
BRANCH   4  14
ATOM     14  O   UNL     1       1.634   3.329  20.432  0.00  0.00    +0.000 OA
ATOM     15  C   UNL     1       1.841   2.734  21.700  0.00  0.00    +0.000 C 
ENDBRANCH   4  14
ENDBRANCH   1   8
BRANCH   1  16
ATOM     16  C   UNL     1       7.319   6.281  17.052  0.00  0.00    +0.000 C 
BRANCH  16  17
ATOM     17  C   UNL     1       7.784   7.214  18.172  0.00  0.00    +0.000 C 
BRANCH  17  18
ATOM     18  C   UNL     1       7.897   8.689  17.759  0.00  0.00    +0.000 C 
BRANCH  18  19
ATOM     19  C   UNL     1       8.936   9.495  18.553  0.00  0.00    +0.000 C 
BRANCH  19  20
ATOM     20  C   UNL     1       8.768  10.986  18.299  0.00  0.00    +0.000 C 
BRANCH  20  21
ATOM     21  C   UNL     1      10.053  11.754  17.982  0.00  0.00    +0.000 C 
ATOM     22  C   UNL     1      11.329  11.212  18.588  0.00  0.00    +0.000 C 
ATOM     23  C   UNL     1      11.270  11.720  20.011  0.00  0.00    +0.000 C 
ATOM     24  C   UNL     1      10.465  13.016  19.898  0.00  0.00    +0.000 C 
ATOM     25  C   UNL     1       9.341  13.139  20.933  0.00  0.00    +0.000 C 
ATOM     26  C   UNL     1       9.764  14.301  21.797  0.00  0.00    +0.000 C 
ATOM     27  C   UNL     1      10.643  15.118  20.873  0.00  0.00    +0.000 C 
ATOM     28  C   UNL     1       9.851  16.075  19.989  0.00  0.00    +0.000 C 
ATOM     29  O   UNL     1      11.328  14.148  20.068  0.00  0.00    +0.000 OA
ATOM     30  O   UNL     1       9.899  13.052  18.576  0.00  0.00    +0.000 OA
ENDBRANCH  20  21
ENDBRANCH  19  20
ENDBRANCH  18  19
ENDBRANCH  17  18
ENDBRANCH  16  17
ENDBRANCH   1  16
TORSDOF 9
ENDMDL
MODEL 3
REMARK VINA RESULT:      -7.9      6.399     10.675
REMARK  Name = 
REMARK  12 active torsions:
REMARK  status: ('A' for Active; 'I' for Inactive)
REMARK    1  A    between atoms: C_1  and  O_2
REMARK    2  A    between atoms: O_2  and  C_3
REMARK    3  A    between atoms: C_5  and  O_6
REMARK    4  A    between atoms: O_6  and  C_7
REMARK    5  A    between atoms: C_11  and  C_12
REMARK    6  A    between atoms: C_12  and  C_13
REMARK    7  A    between atoms: C_13  and  C_14
REMARK    8  A    between atoms: C_14  and  C_15
REMARK    9  A    between atoms: C_15  and  C_16
REMARK   10  A    between atoms: C_16  and  C_17
REMARK   11  A    between atoms: C_17  and  C_18
REMARK   12  A    between atoms: C_24  and  C_25
REMARK                            x       y       z     vdW  Elec       q    Type
REMARK                         _______ _______ _______ _____ _____    ______ ____
ROOT
ATOM      1  C   UNL     1      -0.285   9.954  18.752  0.00  0.00    +0.000 C 
ENDROOT
BRANCH   1   8
ATOM      2  C   UNL     1      -3.868  10.876  16.258  0.00  0.00    +0.000 A 
ATOM      3  C   UNL     1      -4.821  11.392  17.144  0.00  0.00    +0.000 A 
ATOM      4  C   UNL     1      -4.473  11.881  18.423  0.00  0.00    +0.000 A 
ATOM      5  C   UNL     1      -3.130  11.837  18.783  0.00  0.00    +0.000 A 
ATOM      6  C   UNL     1      -2.189  11.313  17.900  0.00  0.00    +0.000 A 
ATOM      7  C   UNL     1      -2.537  10.820  16.649  0.00  0.00    +0.000 A 
ATOM      8  C   UNL     1      -0.838  11.351  18.501  0.00  0.00    +0.000 C 
ATOM      9  O   UNL     1      -1.060  12.011  19.752  0.00  0.00    +0.000 OA
ATOM     10  C   UNL     1      -2.385  12.238  19.990  0.00  0.00    +0.000 C 
ATOM     11  O   UNL     1      -2.800  12.695  21.035  0.00  0.00    +0.000 OA
BRANCH   2  13
ATOM     12  C   UNL     1      -2.992   9.958  14.263  0.00  0.00    +0.000 C 
ATOM     13  O   UNL     1      -4.129  10.370  15.015  0.00  0.00    +0.000 OA
ENDBRANCH   2  13
BRANCH   4  14
ATOM     14  O   UNL     1      -5.572  12.325  19.096  0.00  0.00    +0.000 OA
ATOM     15  C   UNL     1      -6.137  11.536  20.127  0.00  0.00    +0.000 C 
ENDBRANCH   4  14
ENDBRANCH   1   8
BRANCH   1  16
ATOM     16  C   UNL     1       1.194   9.981  19.136  0.00  0.00    +0.000 C 
BRANCH  16  17
ATOM     17  C   UNL     1       2.082   9.535  17.972  0.00  0.00    +0.000 C 
BRANCH  17  18
ATOM     18  C   UNL     1       2.351   8.024  17.926  0.00  0.00    +0.000 C 
BRANCH  18  19
ATOM     19  C   UNL     1       3.780   7.643  17.513  0.00  0.00    +0.000 C 
BRANCH  19  20
ATOM     20  C   UNL     1       3.879   6.151  17.230  0.00  0.00    +0.000 C 
BRANCH  20  21
ATOM     21  C   UNL     1       4.543   5.310  18.321  0.00  0.00    +0.000 C 
ATOM     22  C   UNL     1       5.289   4.076  17.861  0.00  0.00    +0.000 C 
ATOM     23  C   UNL     1       4.180   3.074  17.638  0.00  0.00    +0.000 C 
ATOM     24  C   UNL     1       3.098   3.508  18.628  0.00  0.00    +0.000 C 
ATOM     25  C   UNL     1       1.696   3.598  18.014  0.00  0.00    +0.000 C 
ATOM     26  C   UNL     1       0.917   2.513  18.717  0.00  0.00    +0.000 C 
ATOM     27  C   UNL     1       1.645   2.364  20.037  0.00  0.00    +0.000 C 
ATOM     28  C   UNL     1       1.182   3.366  21.089  0.00  0.00    +0.000 C 
ATOM     29  O   UNL     1       3.028   2.579  19.719  0.00  0.00    +0.000 OA
ATOM     30  O   UNL     1       3.477   4.798  19.136  0.00  0.00    +0.000 OA
ENDBRANCH  20  21
ENDBRANCH  19  20
ENDBRANCH  18  19
ENDBRANCH  17  18
ENDBRANCH  16  17
ENDBRANCH   1  16
TORSDOF 9
ENDMDL
MODEL 4
REMARK VINA RESULT:      -7.9      6.156      9.195
REMARK  Name = 
REMARK  12 active torsions:
REMARK  status: ('A' for Active; 'I' for Inactive)
REMARK    1  A    between atoms: C_1  and  O_2
REMARK    2  A    between atoms: O_2  and  C_3
REMARK    3  A    between atoms: C_5  and  O_6
REMARK    4  A    between atoms: O_6  and  C_7
REMARK    5  A    between atoms: C_11  and  C_12
REMARK    6  A    between atoms: C_12  and  C_13
REMARK    7  A    between atoms: C_13  and  C_14
REMARK    8  A    between atoms: C_14  and  C_15
REMARK    9  A    between atoms: C_15  and  C_16
REMARK   10  A    between atoms: C_16  and  C_17
REMARK   11  A    between atoms: C_17  and  C_18
REMARK   12  A    between atoms: C_24  and  C_25
REMARK                            x       y       z     vdW  Elec       q    Type
REMARK                         _______ _______ _______ _____ _____    ______ ____
ROOT
ATOM      1  C   UNL     1       1.439   8.533  18.337  0.00  0.00    +0.000 C 
ENDROOT
BRANCH   1   8
ATOM      2  C   UNL     1      -2.476  10.551  17.623  0.00  0.00    +0.000 A 
ATOM      3  C   UNL     1      -2.750  11.268  18.795  0.00  0.00    +0.000 A 
ATOM      4  C   UNL     1      -1.748  11.571  19.744  0.00  0.00    +0.000 A 
ATOM      5  C   UNL     1      -0.456  11.134  19.473  0.00  0.00    +0.000 A 
ATOM      6  C   UNL     1      -0.192  10.414  18.311  0.00  0.00    +0.000 A 
ATOM      7  C   UNL     1      -1.183  10.105  17.387  0.00  0.00    +0.000 A 
ATOM      8  C   UNL     1       1.238  10.040  18.246  0.00  0.00    +0.000 C 
ATOM      9  O   UNL     1       1.789  10.669  19.408  0.00  0.00    +0.000 OA
ATOM     10  C   UNL     1       0.829  11.246  20.189  0.00  0.00    +0.000 C 
ATOM     11  O   UNL     1       1.067  11.745  21.269  0.00  0.00    +0.000 OA
BRANCH   2  13
ATOM     12  C   UNL     1      -3.128  10.684  15.355  0.00  0.00    +0.000 C 
ATOM     13  O   UNL     1      -3.392  10.205  16.670  0.00  0.00    +0.000 OA
ENDBRANCH   2  13
BRANCH   4  14
ATOM     14  O   UNL     1      -2.261  12.269  20.795  0.00  0.00    +0.000 OA
ATOM     15  C   UNL     1      -2.809  13.558  20.588  0.00  0.00    +0.000 C 
ENDBRANCH   4  14
ENDBRANCH   1   8
BRANCH   1  16
ATOM     16  C   UNL     1       1.866   8.093  19.737  0.00  0.00    +0.000 C 
BRANCH  16  17
ATOM     17  C   UNL     1       2.403   6.660  19.733  0.00  0.00    +0.000 C 
BRANCH  17  18
ATOM     18  C   UNL     1       1.596   5.681  20.599  0.00  0.00    +0.000 C 
BRANCH  18  19
ATOM     19  C   UNL     1       1.494   4.260  20.027  0.00  0.00    +0.000 C 
BRANCH  19  20
ATOM     20  C   UNL     1       2.069   4.204  18.620  0.00  0.00    +0.000 C 
BRANCH  20  21
ATOM     21  C   UNL     1       3.221   3.219  18.411  0.00  0.00    +0.000 C 
ATOM     22  C   UNL     1       4.339   3.265  19.430  0.00  0.00    +0.000 C 
ATOM     23  C   UNL     1       5.156   4.456  18.984  0.00  0.00    +0.000 C 
ATOM     24  C   UNL     1       4.923   4.506  17.473  0.00  0.00    +0.000 C 
ATOM     25  C   UNL     1       4.564   5.900  16.947  0.00  0.00    +0.000 C 
ATOM     26  C   UNL     1       5.735   6.276  16.073  0.00  0.00    +0.000 C 
ATOM     27  C   UNL     1       6.289   4.934  15.641  0.00  0.00    +0.000 C 
ATOM     28  C   UNL     1       5.575   4.358  14.423  0.00  0.00    +0.000 C 
ATOM     29  O   UNL     1       6.103   4.079  16.778  0.00  0.00    +0.000 OA
ATOM     30  O   UNL     1       3.850   3.596  17.176  0.00  0.00    +0.000 OA
ENDBRANCH  20  21
ENDBRANCH  19  20
ENDBRANCH  18  19
ENDBRANCH  17  18
ENDBRANCH  16  17
ENDBRANCH   1  16
TORSDOF 9
ENDMDL
MODEL 5
REMARK VINA RESULT:      -7.8      5.382      7.774
REMARK  Name = 
REMARK  12 active torsions:
REMARK  status: ('A' for Active; 'I' for Inactive)
REMARK    1  A    between atoms: C_1  and  O_2
REMARK    2  A    between atoms: O_2  and  C_3
REMARK    3  A    between atoms: C_5  and  O_6
REMARK    4  A    between atoms: O_6  and  C_7
REMARK    5  A    between atoms: C_11  and  C_12
REMARK    6  A    between atoms: C_12  and  C_13
REMARK    7  A    between atoms: C_13  and  C_14
REMARK    8  A    between atoms: C_14  and  C_15
REMARK    9  A    between atoms: C_15  and  C_16
REMARK   10  A    between atoms: C_16  and  C_17
REMARK   11  A    between atoms: C_17  and  C_18
REMARK   12  A    between atoms: C_24  and  C_25
REMARK                            x       y       z     vdW  Elec       q    Type
REMARK                         _______ _______ _______ _____ _____    ______ ____
ROOT
ATOM      1  C   UNL     1       2.273   4.729  17.431  0.00  0.00    +0.000 C 
ENDROOT
BRANCH   1   8
ATOM      2  C   UNL     1       6.201   4.589  15.320  0.00  0.00    +0.000 A 
ATOM      3  C   UNL     1       7.172   4.711  16.322  0.00  0.00    +0.000 A 
ATOM      4  C   UNL     1       6.881   4.478  17.685  0.00  0.00    +0.000 A 
ATOM      5  C   UNL     1       5.579   4.113  18.009  0.00  0.00    +0.000 A 
ATOM      6  C   UNL     1       4.616   4.002  17.009  0.00  0.00    +0.000 A 
ATOM      7  C   UNL     1       4.902   4.246  15.671  0.00  0.00    +0.000 A 
ATOM      8  C   UNL     1       3.309   3.623  17.588  0.00  0.00    +0.000 C 
ATOM      9  O   UNL     1       3.611   3.442  18.975  0.00  0.00    +0.000 OA
ATOM     10  C   UNL     1       4.896   3.792  19.276  0.00  0.00    +0.000 C 
ATOM     11  O   UNL     1       5.328   3.810  20.409  0.00  0.00    +0.000 OA
BRANCH   2  13
ATOM     12  C   UNL     1       6.009   3.758  13.115  0.00  0.00    +0.000 C 
ATOM     13  O   UNL     1       6.401   4.814  13.987  0.00  0.00    +0.000 OA
ENDBRANCH   2  13
BRANCH   4  14
ATOM     14  O   UNL     1       7.985   4.664  18.462  0.00  0.00    +0.000 OA
ATOM     15  C   UNL     1       8.041   5.757  19.360  0.00  0.00    +0.000 C 
ENDBRANCH   4  14
ENDBRANCH   1   8
BRANCH   1  16
ATOM     16  C   UNL     1       2.173   5.605  18.679  0.00  0.00    +0.000 C 
BRANCH  16  17
ATOM     17  C   UNL     1       2.602   7.045  18.388  0.00  0.00    +0.000 C 
BRANCH  17  18
ATOM     18  C   UNL     1       1.916   8.099  19.269  0.00  0.00    +0.000 C 
BRANCH  18  19
ATOM     19  C   UNL     1       1.653   7.648  20.713  0.00  0.00    +0.000 C 
BRANCH  19  20
ATOM     20  C   UNL     1       0.459   8.388  21.299  0.00  0.00    +0.000 C 
BRANCH  20  21
ATOM     21  C   UNL     1       0.783   9.422  22.379  0.00  0.00    +0.000 C 
ATOM     22  C   UNL     1      -0.385   9.934  23.193  0.00  0.00    +0.000 C 
ATOM     23  C   UNL     1      -1.015  10.958  22.275  0.00  0.00    +0.000 C 
ATOM     24  C   UNL     1       0.162  11.462  21.437  0.00  0.00    +0.000 C 
ATOM     25  C   UNL     1      -0.122  11.501  19.931  0.00  0.00    +0.000 C 
ATOM     26  C   UNL     1      -0.087  12.971  19.590  0.00  0.00    +0.000 C 
ATOM     27  C   UNL     1       0.812  13.554  20.660  0.00  0.00    +0.000 C 
ATOM     28  C   UNL     1       2.294  13.447  20.315  0.00  0.00    +0.000 C 
ATOM     29  O   UNL     1       0.519  12.791  21.840  0.00  0.00    +0.000 OA
ATOM     30  O   UNL     1       1.272  10.582  21.687  0.00  0.00    +0.000 OA
ENDBRANCH  20  21
ENDBRANCH  19  20
ENDBRANCH  18  19
ENDBRANCH  17  18
ENDBRANCH  16  17
ENDBRANCH   1  16
TORSDOF 9
ENDMDL
MODEL 6
REMARK VINA RESULT:      -7.8      1.957     10.946
REMARK  Name = 
REMARK  12 active torsions:
REMARK  status: ('A' for Active; 'I' for Inactive)
REMARK    1  A    between atoms: C_1  and  O_2
REMARK    2  A    between atoms: O_2  and  C_3
REMARK    3  A    between atoms: C_5  and  O_6
REMARK    4  A    between atoms: O_6  and  C_7
REMARK    5  A    between atoms: C_11  and  C_12
REMARK    6  A    between atoms: C_12  and  C_13
REMARK    7  A    between atoms: C_13  and  C_14
REMARK    8  A    between atoms: C_14  and  C_15
REMARK    9  A    between atoms: C_15  and  C_16
REMARK   10  A    between atoms: C_16  and  C_17
REMARK   11  A    between atoms: C_17  and  C_18
REMARK   12  A    between atoms: C_24  and  C_25
REMARK                            x       y       z     vdW  Elec       q    Type
REMARK                         _______ _______ _______ _____ _____    ______ ____
ROOT
ATOM      1  C   UNL     1       8.954  10.275  18.695  0.00  0.00    +0.000 C 
ENDROOT
BRANCH   1   8
ATOM      2  C   UNL     1      11.385  14.015  18.563  0.00  0.00    +0.000 A 
ATOM      3  C   UNL     1      10.899  14.817  19.603  0.00  0.00    +0.000 A 
ATOM      4  C   UNL     1      10.127  14.289  20.662  0.00  0.00    +0.000 A 
ATOM      5  C   UNL     1       9.861  12.925  20.645  0.00  0.00    +0.000 A 
ATOM      6  C   UNL     1      10.339  12.135  19.602  0.00  0.00    +0.000 A 
ATOM      7  C   UNL     1      11.086  12.659  18.554  0.00  0.00    +0.000 A 
ATOM      8  C   UNL     1       9.919  10.728  19.784  0.00  0.00    +0.000 C 
ATOM      9  O   UNL     1       9.241  10.754  21.044  0.00  0.00    +0.000 OA
ATOM     10  C   UNL     1       9.116  12.020  21.539  0.00  0.00    +0.000 C 
ATOM     11  O   UNL     1       8.487  12.277  22.545  0.00  0.00    +0.000 OA
BRANCH   2  13
ATOM     12  C   UNL     1      12.333  13.503  16.459  0.00  0.00    +0.000 C 
ATOM     13  O   UNL     1      12.122  14.453  17.498  0.00  0.00    +0.000 OA
ENDBRANCH   2  13
BRANCH   4  14
ATOM     14  O   UNL     1       9.771  15.265  21.545  0.00  0.00    +0.000 OA
ATOM     15  C   UNL     1      10.028  16.624  21.238  0.00  0.00    +0.000 C 
ENDBRANCH   4  14
ENDBRANCH   1   8
BRANCH   1  16
ATOM     16  C   UNL     1       8.573   8.802  18.840  0.00  0.00    +0.000 C 
BRANCH  16  17
ATOM     17  C   UNL     1       8.010   8.240  17.533  0.00  0.00    +0.000 C 
BRANCH  17  18
ATOM     18  C   UNL     1       7.176   6.961  17.704  0.00  0.00    +0.000 C 
BRANCH  18  19
ATOM     19  C   UNL     1       5.828   6.976  16.968  0.00  0.00    +0.000 C 
BRANCH  19  20
ATOM     20  C   UNL     1       4.794   6.156  17.725  0.00  0.00    +0.000 C 
BRANCH  20  21
ATOM     21  C   UNL     1       5.163   4.694  17.981  0.00  0.00    +0.000 C 
ATOM     22  C   UNL     1       4.835   3.712  16.877  0.00  0.00    +0.000 C 
ATOM     23  C   UNL     1       3.356   3.466  17.072  0.00  0.00    +0.000 C 
ATOM     24  C   UNL     1       3.150   3.679  18.573  0.00  0.00    +0.000 C 
ATOM     25  C   UNL     1       1.962   4.586  18.913  0.00  0.00    +0.000 C 
ATOM     26  C   UNL     1       0.993   3.670  19.622  0.00  0.00    +0.000 C 
ATOM     27  C   UNL     1       1.892   2.597  20.201  0.00  0.00    +0.000 C 
ATOM     28  C   UNL     1       2.495   2.988  21.546  0.00  0.00    +0.000 C 
ATOM     29  O   UNL     1       2.928   2.421  19.223  0.00  0.00    +0.000 OA
ATOM     30  O   UNL     1       4.357   4.266  19.090  0.00  0.00    +0.000 OA
ENDBRANCH  20  21
ENDBRANCH  19  20
ENDBRANCH  18  19
ENDBRANCH  17  18
ENDBRANCH  16  17
ENDBRANCH   1  16
TORSDOF 9
ENDMDL
MODEL 7
REMARK VINA RESULT:      -7.8      6.478     10.331
REMARK  Name = 
REMARK  12 active torsions:
REMARK  status: ('A' for Active; 'I' for Inactive)
REMARK    1  A    between atoms: C_1  and  O_2
REMARK    2  A    between atoms: O_2  and  C_3
REMARK    3  A    between atoms: C_5  and  O_6
REMARK    4  A    between atoms: O_6  and  C_7
REMARK    5  A    between atoms: C_11  and  C_12
REMARK    6  A    between atoms: C_12  and  C_13
REMARK    7  A    between atoms: C_13  and  C_14
REMARK    8  A    between atoms: C_14  and  C_15
REMARK    9  A    between atoms: C_15  and  C_16
REMARK   10  A    between atoms: C_16  and  C_17
REMARK   11  A    between atoms: C_17  and  C_18
REMARK   12  A    between atoms: C_24  and  C_25
REMARK                            x       y       z     vdW  Elec       q    Type
REMARK                         _______ _______ _______ _____ _____    ______ ____
ROOT
ATOM      1  C   UNL     1       0.675   8.839  20.793  0.00  0.00    +0.000 C 
ENDROOT
BRANCH   1   8
ATOM      2  C   UNL     1      -2.204  11.067  18.214  0.00  0.00    +0.000 A 
ATOM      3  C   UNL     1      -2.887  11.936  19.074  0.00  0.00    +0.000 A 
ATOM      4  C   UNL     1      -2.394  12.267  20.356  0.00  0.00    +0.000 A 
ATOM      5  C   UNL     1      -1.186  11.699  20.745  0.00  0.00    +0.000 A 
ATOM      6  C   UNL     1      -0.517  10.829  19.889  0.00  0.00    +0.000 A 
ATOM      7  C   UNL     1      -1.011  10.494  18.634  0.00  0.00    +0.000 A 
ATOM      8  C   UNL     1       0.728  10.337  20.518  0.00  0.00    +0.000 C 
ATOM      9  O   UNL     1       0.766  11.051  21.759  0.00  0.00    +0.000 OA
ATOM     10  C   UNL     1      -0.363  11.791  21.965  0.00  0.00    +0.000 C 
ATOM     11  O   UNL     1      -0.580  12.392  22.997  0.00  0.00    +0.000 OA
BRANCH   2  13
ATOM     12  C   UNL     1      -3.848  11.262  16.527  0.00  0.00    +0.000 C 
ATOM     13  O   UNL     1      -2.623  10.687  16.970  0.00  0.00    +0.000 OA
ENDBRANCH   2  13
BRANCH   4  14
ATOM     14  O   UNL     1      -3.237  13.122  21.001  0.00  0.00    +0.000 OA
ATOM     15  C   UNL     1      -2.883  14.485  21.151  0.00  0.00    +0.000 C 
ENDBRANCH   4  14
ENDBRANCH   1   8
BRANCH   1  16
ATOM     16  C   UNL     1       1.797   8.084  20.082  0.00  0.00    +0.000 C 
BRANCH  16  17
ATOM     17  C   UNL     1       1.689   8.222  18.562  0.00  0.00    +0.000 C 
BRANCH  17  18
ATOM     18  C   UNL     1       3.009   7.996  17.812  0.00  0.00    +0.000 C 
BRANCH  18  19
ATOM     19  C   UNL     1       3.868   6.850  18.365  0.00  0.00    +0.000 C 
BRANCH  19  20
ATOM     20  C   UNL     1       4.084   5.779  17.306  0.00  0.00    +0.000 C 
BRANCH  20  21
ATOM     21  C   UNL     1       4.612   4.437  17.816  0.00  0.00    +0.000 C 
ATOM     22  C   UNL     1       4.339   3.230  16.945  0.00  0.00    +0.000 C 
ATOM     23  C   UNL     1       2.903   2.892  17.275  0.00  0.00    +0.000 C 
ATOM     24  C   UNL     1       2.741   3.379  18.716  0.00  0.00    +0.000 C 
ATOM     25  C   UNL     1       1.481   4.221  18.948  0.00  0.00    +0.000 C 
ATOM     26  C   UNL     1       0.643   3.378  19.879  0.00  0.00    +0.000 C 
ATOM     27  C   UNL     1       1.671   2.529  20.597  0.00  0.00    +0.000 C 
ATOM     28  C   UNL     1       2.288   3.232  21.802  0.00  0.00    +0.000 C 
ATOM     29  O   UNL     1       2.677   2.259  19.609  0.00  0.00    +0.000 OA
ATOM     30  O   UNL     1       3.902   4.165  19.035  0.00  0.00    +0.000 OA
ENDBRANCH  20  21
ENDBRANCH  19  20
ENDBRANCH  18  19
ENDBRANCH  17  18
ENDBRANCH  16  17
ENDBRANCH   1  16
TORSDOF 9
ENDMDL
MODEL 8
REMARK VINA RESULT:      -7.7      4.845      8.025
REMARK  Name = 
REMARK  12 active torsions:
REMARK  status: ('A' for Active; 'I' for Inactive)
REMARK    1  A    between atoms: C_1  and  O_2
REMARK    2  A    between atoms: O_2  and  C_3
REMARK    3  A    between atoms: C_5  and  O_6
REMARK    4  A    between atoms: O_6  and  C_7
REMARK    5  A    between atoms: C_11  and  C_12
REMARK    6  A    between atoms: C_12  and  C_13
REMARK    7  A    between atoms: C_13  and  C_14
REMARK    8  A    between atoms: C_14  and  C_15
REMARK    9  A    between atoms: C_15  and  C_16
REMARK   10  A    between atoms: C_16  and  C_17
REMARK   11  A    between atoms: C_17  and  C_18
REMARK   12  A    between atoms: C_24  and  C_25
REMARK                            x       y       z     vdW  Elec       q    Type
REMARK                         _______ _______ _______ _____ _____    ______ ____
ROOT
ATOM      1  C   UNL     1       2.527   3.856  17.488  0.00  0.00    +0.000 C 
ENDROOT
BRANCH   1   8
ATOM      2  C   UNL     1       5.905   4.641  14.682  0.00  0.00    +0.000 A 
ATOM      3  C   UNL     1       6.843   5.378  15.416  0.00  0.00    +0.000 A 
ATOM      4  C   UNL     1       6.824   5.423  16.829  0.00  0.00    +0.000 A 
ATOM      5  C   UNL     1       5.834   4.697  17.481  0.00  0.00    +0.000 A 
ATOM      6  C   UNL     1       4.899   3.974  16.744  0.00  0.00    +0.000 A 
ATOM      7  C   UNL     1       4.911   3.944  15.355  0.00  0.00    +0.000 A 
ATOM      8  C   UNL     1       3.937   3.302  17.644  0.00  0.00    +0.000 C 
ATOM      9  O   UNL     1       4.437   3.621  18.947  0.00  0.00    +0.000 OA
ATOM     10  C   UNL     1       5.487   4.492  18.899  0.00  0.00    +0.000 C 
ATOM     11  O   UNL     1       5.995   4.971  19.893  0.00  0.00    +0.000 OA
BRANCH   2  13
ATOM     12  C   UNL     1       6.227   3.312  12.754  0.00  0.00    +0.000 C 
ATOM     13  O   UNL     1       5.848   4.562  13.318  0.00  0.00    +0.000 OA
ENDBRANCH   2  13
BRANCH   4  14
ATOM     14  O   UNL     1       7.831   6.207  17.309  0.00  0.00    +0.000 OA
ATOM     15  C   UNL     1       7.599   7.581  17.558  0.00  0.00    +0.000 C 
ENDBRANCH   4  14
ENDBRANCH   1   8
BRANCH   1  16
ATOM     16  C   UNL     1       2.383   5.246  18.106  0.00  0.00    +0.000 C 
BRANCH  16  17
ATOM     17  C   UNL     1       1.636   5.190  19.441  0.00  0.00    +0.000 C 
BRANCH  17  18
ATOM     18  C   UNL     1       2.188   6.141  20.513  0.00  0.00    +0.000 C 
BRANCH  18  19
ATOM     19  C   UNL     1       1.843   7.621  20.290  0.00  0.00    +0.000 C 
BRANCH  19  20
ATOM     20  C   UNL     1       0.753   8.070  21.253  0.00  0.00    +0.000 C 
BRANCH  20  21
ATOM     21  C   UNL     1       1.161   9.140  22.266  0.00  0.00    +0.000 C 
ATOM     22  C   UNL     1       0.159   9.455  23.355  0.00  0.00    +0.000 C 
ATOM     23  C   UNL     1      -0.826  10.365  22.656  0.00  0.00    +0.000 C 
ATOM     24  C   UNL     1       0.019  11.054  21.583  0.00  0.00    +0.000 C 
ATOM     25  C   UNL     1      -0.622  11.050  20.191  0.00  0.00    +0.000 C 
ATOM     26  C   UNL     1      -0.902  12.506  19.912  0.00  0.00    +0.000 C 
ATOM     27  C   UNL     1       0.126  13.225  20.760  0.00  0.00    +0.000 C 
ATOM     28  C   UNL     1       1.479  13.361  20.069  0.00  0.00    +0.000 C 
ATOM     29  O   UNL     1       0.250  12.423  21.943  0.00  0.00    +0.000 OA
ATOM     30  O   UNL     1       1.281  10.366  21.526  0.00  0.00    +0.000 OA
ENDBRANCH  20  21
ENDBRANCH  19  20
ENDBRANCH  18  19
ENDBRANCH  17  18
ENDBRANCH  16  17
ENDBRANCH   1  16
TORSDOF 9
ENDMDL
MODEL 9
REMARK VINA RESULT:      -7.7      1.238      2.021
REMARK  Name = 
REMARK  12 active torsions:
REMARK  status: ('A' for Active; 'I' for Inactive)
REMARK    1  A    between atoms: C_1  and  O_2
REMARK    2  A    between atoms: O_2  and  C_3
REMARK    3  A    between atoms: C_5  and  O_6
REMARK    4  A    between atoms: O_6  and  C_7
REMARK    5  A    between atoms: C_11  and  C_12
REMARK    6  A    between atoms: C_12  and  C_13
REMARK    7  A    between atoms: C_13  and  C_14
REMARK    8  A    between atoms: C_14  and  C_15
REMARK    9  A    between atoms: C_15  and  C_16
REMARK   10  A    between atoms: C_16  and  C_17
REMARK   11  A    between atoms: C_17  and  C_18
REMARK   12  A    between atoms: C_24  and  C_25
REMARK                            x       y       z     vdW  Elec       q    Type
REMARK                         _______ _______ _______ _____ _____    ______ ____
ROOT
ATOM      1  C   UNL     1       6.879   5.362  18.054  0.00  0.00    +0.000 C 
ENDROOT
BRANCH   1   8
ATOM      2  C   UNL     1       2.698   6.914  17.931  0.00  0.00    +0.000 A 
ATOM      3  C   UNL     1       1.877   5.782  17.870  0.00  0.00    +0.000 A 
ATOM      4  C   UNL     1       2.343   4.494  18.221  0.00  0.00    +0.000 A 
ATOM      5  C   UNL     1       3.663   4.383  18.641  0.00  0.00    +0.000 A 
ATOM      6  C   UNL     1       4.477   5.512  18.690  0.00  0.00    +0.000 A 
ATOM      7  C   UNL     1       4.020   6.774  18.330  0.00  0.00    +0.000 A 
ATOM      8  C   UNL     1       5.838   5.151  19.145  0.00  0.00    +0.000 C 
ATOM      9  O   UNL     1       5.721   3.753  19.433  0.00  0.00    +0.000 OA
ATOM     10  C   UNL     1       4.501   3.252  19.080  0.00  0.00    +0.000 C 
ATOM     11  O   UNL     1       4.228   2.071  19.146  0.00  0.00    +0.000 OA
BRANCH   2  13
ATOM     12  C   UNL     1       1.680   8.935  18.616  0.00  0.00    +0.000 C 
ATOM     13  O   UNL     1       2.326   8.185  17.592  0.00  0.00    +0.000 OA
ENDBRANCH   2  13
BRANCH   4  14
ATOM     14  O   UNL     1       1.362   3.560  18.075  0.00  0.00    +0.000 OA
ATOM     15  C   UNL     1       0.847   2.891  19.212  0.00  0.00    +0.000 C 
ENDBRANCH   4  14
ENDBRANCH   1   8
BRANCH   1  16
ATOM     16  C   UNL     1       6.960   6.822  17.609  0.00  0.00    +0.000 C 
BRANCH  16  17
ATOM     17  C   UNL     1       8.113   7.553  18.298  0.00  0.00    +0.000 C 
BRANCH  17  18
ATOM     18  C   UNL     1       8.252   9.030  17.898  0.00  0.00    +0.000 C 
BRANCH  18  19
ATOM     19  C   UNL     1       8.935   9.913  18.953  0.00  0.00    +0.000 C 
BRANCH  19  20
ATOM     20  C   UNL     1       9.972  10.820  18.305  0.00  0.00    +0.000 C 
BRANCH  20  21
ATOM     21  C   UNL     1       9.450  12.162  17.789  0.00  0.00    +0.000 C 
ATOM     22  C   UNL     1      10.493  13.169  17.355  0.00  0.00    +0.000 C 
ATOM     23  C   UNL     1      10.965  13.754  18.667  0.00  0.00    +0.000 C 
ATOM     24  C   UNL     1       9.742  13.627  19.578  0.00  0.00    +0.000 C 
ATOM     25  C   UNL     1      10.055  13.028  20.954  0.00  0.00    +0.000 C 
ATOM     26  C   UNL     1       9.782  14.158  21.916  0.00  0.00    +0.000 C 
ATOM     27  C   UNL     1       8.769  15.006  21.176  0.00  0.00    +0.000 C 
ATOM     28  C   UNL     1       7.336  14.517  21.357  0.00  0.00    +0.000 C 
ATOM     29  O   UNL     1       9.155  14.917  19.797  0.00  0.00    +0.000 OA
ATOM     30  O   UNL     1       8.790  12.789  18.901  0.00  0.00    +0.000 OA
ENDBRANCH  20  21
ENDBRANCH  19  20
ENDBRANCH  18  19
ENDBRANCH  17  18
ENDBRANCH  16  17
ENDBRANCH   1  16
TORSDOF 9
ENDMDL
