MODEL 1
REMARK VINA RESULT:      -8.0      0.000      0.000
REMARK  Name = 
REMARK  9 active torsions:
REMARK  status: ('A' for Active; 'I' for Inactive)
REMARK    1  A    between atoms: C_1  and  N_2
REMARK    2  A    between atoms: C_3  and  C_5
REMARK    3  A    between atoms: C_10  and  N_11
REMARK    4  A    between atoms: N_11  and  C_12
REMARK    5  A    between atoms: C_14  and  N_15
REMARK    6  A    between atoms: C_17  and  C_18
REMARK    7  A    between atoms: C_18  and  O_19
REMARK    8  A    between atoms: C_25  and  O_26
REMARK    9  A    between atoms: O_26  and  C_27
REMARK                            x       y       z     vdW  Elec       q    Type
REMARK                         _______ _______ _______ _____ _____    ______ ____
ROOT
ATOM      1  C   UNL     1       5.143   5.297  16.340  0.00  0.00    +0.000 A 
ATOM      2  C   UNL     1       5.698   6.551  16.037  0.00  0.00    +0.000 A 
ATOM      3  C   UNL     1       5.442   7.636  16.852  0.00  0.00    +0.000 A 
ATOM      4  C   UNL     1       4.599   7.471  17.946  0.00  0.00    +0.000 A 
ATOM      5  C   UNL     1       3.973   6.228  18.242  0.00  0.00    +0.000 A 
ATOM      6  C   UNL     1       3.030   6.049  19.302  0.00  0.00    +0.000 A 
ATOM      7  C   UNL     1       2.408   4.779  19.491  0.00  0.00    +0.000 A 
ATOM      8  C   UNL     1       1.343   4.555  20.398  0.00  0.00    +0.000 A 
ATOM      9  C   UNL     1       0.784   3.305  20.606  0.00  0.00    +0.000 A 
ATOM     10  C   UNL     1       1.258   2.231  19.875  0.00  0.00    +0.000 A 
ATOM     11  C   UNL     1       2.277   2.422  18.929  0.00  0.00    +0.000 A 
ATOM     12  C   UNL     1       2.838   3.701  18.695  0.00  0.00    +0.000 A 
ATOM     13  N   UNL     1       3.758   3.888  17.721  0.00  0.00    +0.000 NA
ATOM     14  C   UNL     1       4.281   5.109  17.440  0.00  0.00    +0.000 A 
ENDROOT
BRANCH   1  17
ATOM     15  C   UNL     1       5.774   3.471  13.081  0.00  0.00    +0.000 C 
ATOM     16  N   UNL     1       5.365   4.433  14.063  0.00  0.00    +0.000 N 
ATOM     17  C   UNL     1       5.530   4.193  15.411  0.00  0.00    +0.000 C 
ATOM     18  O   UNL     1       5.927   3.122  15.855  0.00  0.00    +0.000 OA
ATOM     19  H   UNL     1       5.269   5.410  13.788  0.00  0.00    +0.000 HD
ENDBRANCH   1  17
BRANCH   6  20
ATOM     20  N   UNL     1       2.744   7.143  20.177  0.00  0.00    +0.000 N 
ATOM     21  H   UNL     1       3.186   7.094  21.086  0.00  0.00    +0.000 HD
BRANCH  20  22
ATOM     22  C   UNL     1       1.716   8.113  20.148  0.00  0.00    +0.000 A 
ATOM     23  C   UNL     1       1.333   8.777  18.976  0.00  0.00    +0.000 A 
ATOM     24  C   UNL     1       0.419   9.835  19.002  0.00  0.00    +0.000 A 
ATOM     25  C   UNL     1      -0.221  10.143  20.204  0.00  0.00    +0.000 A 
ATOM     26  C   UNL     1       0.131   9.492  21.393  0.00  0.00    +0.000 A 
ATOM     27  C   UNL     1       1.121   8.499  21.355  0.00  0.00    +0.000 A 
BRANCH  24  28
ATOM     28  N   UNL     1      -0.010  10.424  17.805  0.00  0.00    +0.000 N 
ATOM     29  H   UNL     1       0.251   9.893  16.979  0.00  0.00    +0.000 HD
ATOM     30  H   UNL     1       0.231  11.406  17.718  0.00  0.00    +0.000 HD
ENDBRANCH  24  28
BRANCH  26  31
ATOM     31  C   UNL     1      -0.540   9.850  22.692  0.00  0.00    +0.000 C 
BRANCH  31  32
ATOM     32  O   UNL     1       0.357   9.642  23.775  0.00  0.00    +0.000 OA
ATOM     33  H   UNL     1       0.134  10.303  24.453  0.00  0.00    +0.000 HD
ENDBRANCH  31  32
ENDBRANCH  26  31
ENDBRANCH  20  22
ENDBRANCH   6  20
BRANCH  11  34
ATOM     34  O   UNL     1       2.747   1.386  18.143  0.00  0.00    +0.000 OA
ATOM     35  C   UNL     1       4.059   0.913  18.440  0.00  0.00    +0.000 C 
ENDBRANCH  11  34
TORSDOF 7
ENDMDL
MODEL 2
REMARK VINA RESULT:      -7.8      4.180      9.872
REMARK  Name = 
REMARK  9 active torsions:
REMARK  status: ('A' for Active; 'I' for Inactive)
REMARK    1  A    between atoms: C_1  and  N_2
REMARK    2  A    between atoms: C_3  and  C_5
REMARK    3  A    between atoms: C_10  and  N_11
REMARK    4  A    between atoms: N_11  and  C_12
REMARK    5  A    between atoms: C_14  and  N_15
REMARK    6  A    between atoms: C_17  and  C_18
REMARK    7  A    between atoms: C_18  and  O_19
REMARK    8  A    between atoms: C_25  and  O_26
REMARK    9  A    between atoms: O_26  and  C_27
REMARK                            x       y       z     vdW  Elec       q    Type
REMARK                         _______ _______ _______ _____ _____    ______ ____
ROOT
ATOM      1  C   UNL     1      -4.324  11.326  17.385  0.00  0.00    +0.000 A 
ATOM      2  C   UNL     1      -4.194  10.645  16.162  0.00  0.00    +0.000 A 
ATOM      3  C   UNL     1      -2.971  10.127  15.785  0.00  0.00    +0.000 A 
ATOM      4  C   UNL     1      -1.872  10.327  16.614  0.00  0.00    +0.000 A 
ATOM      5  C   UNL     1      -1.960  11.066  17.827  0.00  0.00    +0.000 A 
ATOM      6  C   UNL     1      -0.833  11.369  18.654  0.00  0.00    +0.000 A 
ATOM      7  C   UNL     1      -1.004  12.165  19.825  0.00  0.00    +0.000 A 
ATOM      8  C   UNL     1       0.072  12.657  20.604  0.00  0.00    +0.000 A 
ATOM      9  C   UNL     1      -0.114  13.387  21.766  0.00  0.00    +0.000 A 
ATOM     10  C   UNL     1      -1.403  13.682  22.171  0.00  0.00    +0.000 A 
ATOM     11  C   UNL     1      -2.495  13.257  21.398  0.00  0.00    +0.000 A 
ATOM     12  C   UNL     1      -2.312  12.529  20.197  0.00  0.00    +0.000 A 
ATOM     13  N   UNL     1      -3.367  12.201  19.416  0.00  0.00    +0.000 NA
ATOM     14  C   UNL     1      -3.222  11.545  18.236  0.00  0.00    +0.000 A 
ENDROOT
BRANCH   1  17
ATOM     15  C   UNL     1      -7.228  13.713  17.853  0.00  0.00    +0.000 C 
ATOM     16  N   UNL     1      -5.923  13.159  17.640  0.00  0.00    +0.000 N 
ATOM     17  C   UNL     1      -5.706  11.799  17.702  0.00  0.00    +0.000 C 
ATOM     18  O   UNL     1      -6.569  10.999  18.042  0.00  0.00    +0.000 OA
ATOM     19  H   UNL     1      -5.233  13.702  17.121  0.00  0.00    +0.000 HD
ENDBRANCH   1  17
BRANCH   6  20
ATOM     20  N   UNL     1       0.452  10.843  18.306  0.00  0.00    +0.000 N 
ATOM     21  H   UNL     1       0.884  11.265  17.495  0.00  0.00    +0.000 HD
BRANCH  20  22
ATOM     22  C   UNL     1       1.092   9.637  18.672  0.00  0.00    +0.000 A 
ATOM     23  C   UNL     1       0.935   9.047  19.933  0.00  0.00    +0.000 A 
ATOM     24  C   UNL     1       1.694   7.938  20.319  0.00  0.00    +0.000 A 
ATOM     25  C   UNL     1       2.529   7.331  19.378  0.00  0.00    +0.000 A 
ATOM     26  C   UNL     1       2.701   7.890  18.105  0.00  0.00    +0.000 A 
ATOM     27  C   UNL     1       2.000   9.059  17.776  0.00  0.00    +0.000 A 
BRANCH  24  28
ATOM     28  N   UNL     1       1.454   7.316  21.552  0.00  0.00    +0.000 N 
ATOM     29  H   UNL     1       1.072   6.379  21.463  0.00  0.00    +0.000 HD
ATOM     30  H   UNL     1       0.921   7.884  22.203  0.00  0.00    +0.000 HD
ENDBRANCH  24  28
BRANCH  26  31
ATOM     31  C   UNL     1       3.626   7.249  17.105  0.00  0.00    +0.000 C 
BRANCH  31  32
ATOM     32  O   UNL     1       4.621   6.491  17.780  0.00  0.00    +0.000 OA
ATOM     33  H   UNL     1       4.152   5.867  18.360  0.00  0.00    +0.000 HD
ENDBRANCH  31  32
ENDBRANCH  26  31
ENDBRANCH  20  22
ENDBRANCH   6  20
BRANCH  11  34
ATOM     34  O   UNL     1      -3.797  13.571  21.740  0.00  0.00    +0.000 OA
ATOM     35  C   UNL     1      -4.320  12.923  22.898  0.00  0.00    +0.000 C 
ENDBRANCH  11  34
TORSDOF 7
ENDMDL
MODEL 3
REMARK VINA RESULT:      -7.6      4.163     10.084
REMARK  Name = 
REMARK  9 active torsions:
REMARK  status: ('A' for Active; 'I' for Inactive)
REMARK    1  A    between atoms: C_1  and  N_2
REMARK    2  A    between atoms: C_3  and  C_5
REMARK    3  A    between atoms: C_10  and  N_11
REMARK    4  A    between atoms: N_11  and  C_12
REMARK    5  A    between atoms: C_14  and  N_15
REMARK    6  A    between atoms: C_17  and  C_18
REMARK    7  A    between atoms: C_18  and  O_19
REMARK    8  A    between atoms: C_25  and  O_26
REMARK    9  A    between atoms: O_26  and  C_27
REMARK                            x       y       z     vdW  Elec       q    Type
REMARK                         _______ _______ _______ _____ _____    ______ ____
ROOT
ATOM      1  C   UNL     1      -2.799  12.942  21.652  0.00  0.00    +0.000 A 
ATOM      2  C   UNL     1      -1.792  13.107  22.618  0.00  0.00    +0.000 A 
ATOM      3  C   UNL     1      -0.493  12.734  22.335  0.00  0.00    +0.000 A 
ATOM      4  C   UNL     1      -0.213  12.159  21.100  0.00  0.00    +0.000 A 
ATOM      5  C   UNL     1      -1.224  11.921  20.126  0.00  0.00    +0.000 A 
ATOM      6  C   UNL     1      -0.986  11.248  18.887  0.00  0.00    +0.000 A 
ATOM      7  C   UNL     1      -2.070  11.002  17.994  0.00  0.00    +0.000 A 
ATOM      8  C   UNL     1      -1.963  10.197  16.833  0.00  0.00    +0.000 A 
ATOM      9  C   UNL     1      -3.013  10.010  15.949  0.00  0.00    +0.000 A 
ATOM     10  C   UNL     1      -4.232  10.603  16.224  0.00  0.00    +0.000 A 
ATOM     11  C   UNL     1      -4.393  11.365  17.390  0.00  0.00    +0.000 A 
ATOM     12  C   UNL     1      -3.330  11.543  18.310  0.00  0.00    +0.000 A 
ATOM     13  N   UNL     1      -3.522  12.208  19.473  0.00  0.00    +0.000 NA
ATOM     14  C   UNL     1      -2.538  12.355  20.397  0.00  0.00    +0.000 A 
ENDROOT
BRANCH   1  17
ATOM     15  C   UNL     1      -6.504  12.846  22.436  0.00  0.00    +0.000 C 
ATOM     16  N   UNL     1      -5.181  12.509  21.998  0.00  0.00    +0.000 N 
ATOM     17  C   UNL     1      -4.153  13.426  22.059  0.00  0.00    +0.000 C 
ATOM     18  O   UNL     1      -4.319  14.596  22.382  0.00  0.00    +0.000 OA
ATOM     19  H   UNL     1      -4.908  11.527  21.960  0.00  0.00    +0.000 HD
ENDBRANCH   1  17
BRANCH   6  20
ATOM     20  N   UNL     1       0.347  10.853  18.549  0.00  0.00    +0.000 N 
ATOM     21  H   UNL     1       0.792  11.411  17.832  0.00  0.00    +0.000 HD
BRANCH  20  22
ATOM     22  C   UNL     1       1.047   9.648  18.782  0.00  0.00    +0.000 A 
ATOM     23  C   UNL     1       0.952   8.936  19.985  0.00  0.00    +0.000 A 
ATOM     24  C   UNL     1       1.767   7.830  20.245  0.00  0.00    +0.000 A 
ATOM     25  C   UNL     1       2.597   7.351  19.228  0.00  0.00    +0.000 A 
ATOM     26  C   UNL     1       2.708   8.032  18.010  0.00  0.00    +0.000 A 
ATOM     27  C   UNL     1       1.950   9.195  17.812  0.00  0.00    +0.000 A 
BRANCH  24  28
ATOM     28  N   UNL     1       1.591   7.086  21.418  0.00  0.00    +0.000 N 
ATOM     29  H   UNL     1       1.065   6.228  21.277  0.00  0.00    +0.000 HD
ATOM     30  H   UNL     1       1.232   7.626  22.199  0.00  0.00    +0.000 HD
ENDBRANCH  24  28
BRANCH  26  31
ATOM     31  C   UNL     1       3.628   7.529  16.930  0.00  0.00    +0.000 C 
BRANCH  31  32
ATOM     32  O   UNL     1       4.570   6.617  17.480  0.00  0.00    +0.000 OA
ATOM     33  H   UNL     1       4.888   7.010  18.311  0.00  0.00    +0.000 HD
ENDBRANCH  31  32
ENDBRANCH  26  31
ENDBRANCH  20  22
ENDBRANCH   6  20
BRANCH  11  34
ATOM     34  O   UNL     1      -5.606  11.936  17.728  0.00  0.00    +0.000 OA
ATOM     35  C   UNL     1      -6.092  12.951  16.853  0.00  0.00    +0.000 C 
ENDBRANCH  11  34
TORSDOF 7
ENDMDL
MODEL 4
REMARK VINA RESULT:      -7.6      3.633      9.752
REMARK  Name = 
REMARK  9 active torsions:
REMARK  status: ('A' for Active; 'I' for Inactive)
REMARK    1  A    between atoms: C_1  and  N_2
REMARK    2  A    between atoms: C_3  and  C_5
REMARK    3  A    between atoms: C_10  and  N_11
REMARK    4  A    between atoms: N_11  and  C_12
REMARK    5  A    between atoms: C_14  and  N_15
REMARK    6  A    between atoms: C_17  and  C_18
REMARK    7  A    between atoms: C_18  and  O_19
REMARK    8  A    between atoms: C_25  and  O_26
REMARK    9  A    between atoms: O_26  and  C_27
REMARK                            x       y       z     vdW  Elec       q    Type
REMARK                         _______ _______ _______ _____ _____    ______ ____
ROOT
ATOM      1  C   UNL     1      -3.560  11.504  18.597  0.00  0.00    +0.000 A 
ATOM      2  C   UNL     1      -3.960  10.608  17.591  0.00  0.00    +0.000 A 
ATOM      3  C   UNL     1      -3.022   9.819  16.955  0.00  0.00    +0.000 A 
ATOM      4  C   UNL     1      -1.681   9.957  17.301  0.00  0.00    +0.000 A 
ATOM      5  C   UNL     1      -1.240  10.901  18.270  0.00  0.00    +0.000 A 
ATOM      6  C   UNL     1       0.136  11.133  18.580  0.00  0.00    +0.000 A 
ATOM      7  C   UNL     1       0.491  12.140  19.527  0.00  0.00    +0.000 A 
ATOM      8  C   UNL     1       1.823  12.556  19.768  0.00  0.00    +0.000 A 
ATOM      9  C   UNL     1       2.154  13.499  20.726  0.00  0.00    +0.000 A 
ATOM     10  C   UNL     1       1.142  14.089  21.460  0.00  0.00    +0.000 A 
ATOM     11  C   UNL     1      -0.195  13.742  21.216  0.00  0.00    +0.000 A 
ATOM     12  C   UNL     1      -0.543  12.794  20.222  0.00  0.00    +0.000 A 
ATOM     13  N   UNL     1      -1.839  12.532  19.936  0.00  0.00    +0.000 NA
ATOM     14  C   UNL     1      -2.207  11.665  18.958  0.00  0.00    +0.000 A 
ENDROOT
BRANCH   1  17
ATOM     15  C   UNL     1      -5.626  13.114  21.334  0.00  0.00    +0.000 C 
ATOM     16  N   UNL     1      -4.650  12.345  20.618  0.00  0.00    +0.000 N 
ATOM     17  C   UNL     1      -4.671  12.268  19.242  0.00  0.00    +0.000 C 
ATOM     18  O   UNL     1      -5.566  12.751  18.559  0.00  0.00    +0.000 OA
ATOM     19  H   UNL     1      -3.760  12.133  21.069  0.00  0.00    +0.000 HD
ENDBRANCH   1  17
BRANCH   6  20
ATOM     20  N   UNL     1       1.140  10.330  17.953  0.00  0.00    +0.000 N 
ATOM     21  H   UNL     1       1.313  10.541  16.978  0.00  0.00    +0.000 HD
BRANCH  20  22
ATOM     22  C   UNL     1       1.708   9.091  18.328  0.00  0.00    +0.000 A 
ATOM     23  C   UNL     1       1.400   8.450  19.535  0.00  0.00    +0.000 A 
ATOM     24  C   UNL     1       2.086   7.304  19.949  0.00  0.00    +0.000 A 
ATOM     25  C   UNL     1       3.005   6.717  19.076  0.00  0.00    +0.000 A 
ATOM     26  C   UNL     1       3.330   7.327  17.857  0.00  0.00    +0.000 A 
ATOM     27  C   UNL     1       2.696   8.529  17.510  0.00  0.00    +0.000 A 
BRANCH  24  28
ATOM     28  N   UNL     1       1.698   6.635  21.116  0.00  0.00    +0.000 N 
ATOM     29  H   UNL     1       1.548   5.639  20.979  0.00  0.00    +0.000 HD
ATOM     30  H   UNL     1       0.923   7.073  21.605  0.00  0.00    +0.000 HD
ENDBRANCH  24  28
BRANCH  26  31
ATOM     31  C   UNL     1       4.344   6.706  16.935  0.00  0.00    +0.000 C 
BRANCH  31  32
ATOM     32  O   UNL     1       4.363   5.296  17.111  0.00  0.00    +0.000 OA
ATOM     33  H   UNL     1       4.444   5.134  18.067  0.00  0.00    +0.000 HD
ENDBRANCH  31  32
ENDBRANCH  26  31
ENDBRANCH  20  22
ENDBRANCH   6  20
BRANCH  11  34
ATOM     34  O   UNL     1      -1.241  14.342  21.892  0.00  0.00    +0.000 OA
ATOM     35  C   UNL     1      -1.389  13.991  23.267  0.00  0.00    +0.000 C 
ENDBRANCH  11  34
TORSDOF 7
ENDMDL
MODEL 5
REMARK VINA RESULT:      -7.3      3.783      9.583
REMARK  Name = 
REMARK  9 active torsions:
REMARK  status: ('A' for Active; 'I' for Inactive)
REMARK    1  A    between atoms: C_1  and  N_2
REMARK    2  A    between atoms: C_3  and  C_5
REMARK    3  A    between atoms: C_10  and  N_11
REMARK    4  A    between atoms: N_11  and  C_12
REMARK    5  A    between atoms: C_14  and  N_15
REMARK    6  A    between atoms: C_17  and  C_18
REMARK    7  A    between atoms: C_18  and  O_19
REMARK    8  A    between atoms: C_25  and  O_26
REMARK    9  A    between atoms: O_26  and  C_27
REMARK                            x       y       z     vdW  Elec       q    Type
REMARK                         _______ _______ _______ _____ _____    ______ ____
ROOT
ATOM      1  C   UNL     1      -3.761  11.434  18.480  0.00  0.00    +0.000 A 
ATOM      2  C   UNL     1      -4.101  10.591  17.408  0.00  0.00    +0.000 A 
ATOM      3  C   UNL     1      -3.118   9.883  16.745  0.00  0.00    +0.000 A 
ATOM      4  C   UNL     1      -1.792  10.052  17.130  0.00  0.00    +0.000 A 
ATOM      5  C   UNL     1      -1.412  10.947  18.170  0.00  0.00    +0.000 A 
ATOM      6  C   UNL     1      -0.053  11.213  18.526  0.00  0.00    +0.000 A 
ATOM      7  C   UNL     1       0.240  12.169  19.544  0.00  0.00    +0.000 A 
ATOM      8  C   UNL     1       1.549  12.621  19.844  0.00  0.00    +0.000 A 
ATOM      9  C   UNL     1       1.819  13.512  20.869  0.00  0.00    +0.000 A 
ATOM     10  C   UNL     1       0.768  14.012  21.615  0.00  0.00    +0.000 A 
ATOM     11  C   UNL     1      -0.548  13.627  21.317  0.00  0.00    +0.000 A 
ATOM     12  C   UNL     1      -0.835  12.734  20.256  0.00  0.00    +0.000 A 
ATOM     13  N   UNL     1      -2.113  12.439  19.923  0.00  0.00    +0.000 NA
ATOM     14  C   UNL     1      -2.423  11.625  18.882  0.00  0.00    +0.000 A 
ENDROOT
BRANCH   1  17
ATOM     15  C   UNL     1      -5.872  14.223  19.935  0.00  0.00    +0.000 C 
ATOM     16  N   UNL     1      -4.794  13.464  19.370  0.00  0.00    +0.000 N 
ATOM     17  C   UNL     1      -4.916  12.109  19.146  0.00  0.00    +0.000 C 
ATOM     18  O   UNL     1      -5.888  11.456  19.505  0.00  0.00    +0.000 OA
ATOM     19  H   UNL     1      -4.079  13.948  18.828  0.00  0.00    +0.000 HD
ENDBRANCH   1  17
BRANCH   6  20
ATOM     20  N   UNL     1       0.997  10.494  17.872  0.00  0.00    +0.000 N 
ATOM     21  H   UNL     1       1.106  10.694  16.886  0.00  0.00    +0.000 HD
BRANCH  20  22
ATOM     22  C   UNL     1       1.699   9.327  18.250  0.00  0.00    +0.000 A 
ATOM     23  C   UNL     1       2.684   8.740  17.446  0.00  0.00    +0.000 A 
ATOM     24  C   UNL     1       3.255   7.506  17.774  0.00  0.00    +0.000 A 
ATOM     25  C   UNL     1       2.928   6.917  18.997  0.00  0.00    +0.000 A 
ATOM     26  C   UNL     1       1.955   7.482  19.830  0.00  0.00    +0.000 A 
ATOM     27  C   UNL     1       1.327   8.671  19.431  0.00  0.00    +0.000 A 
BRANCH  24  28
ATOM     28  N   UNL     1       4.299   6.985  16.998  0.00  0.00    +0.000 N 
ATOM     29  H   UNL     1       4.079   6.937  16.007  0.00  0.00    +0.000 HD
ATOM     30  H   UNL     1       4.674   6.109  17.347  0.00  0.00    +0.000 HD
ENDBRANCH  24  28
BRANCH  26  31
ATOM     31  C   UNL     1       1.584   6.826  21.133  0.00  0.00    +0.000 C 
BRANCH  31  32
ATOM     32  O   UNL     1       2.121   5.511  21.185  0.00  0.00    +0.000 OA
ATOM     33  H   UNL     1       2.161   5.189  20.268  0.00  0.00    +0.000 HD
ENDBRANCH  31  32
ENDBRANCH  26  31
ENDBRANCH  20  22
ENDBRANCH   6  20
BRANCH  11  34
ATOM     34  O   UNL     1      -1.632  14.139  22.006  0.00  0.00    +0.000 OA
ATOM     35  C   UNL     1      -1.700  13.830  23.396  0.00  0.00    +0.000 C 
ENDBRANCH  11  34
TORSDOF 7
ENDMDL
MODEL 6
REMARK VINA RESULT:      -7.2      1.554      1.980
REMARK  Name = 
REMARK  9 active torsions:
REMARK  status: ('A' for Active; 'I' for Inactive)
REMARK    1  A    between atoms: C_1  and  N_2
REMARK    2  A    between atoms: C_3  and  C_5
REMARK    3  A    between atoms: C_10  and  N_11
REMARK    4  A    between atoms: N_11  and  C_12
REMARK    5  A    between atoms: C_14  and  N_15
REMARK    6  A    between atoms: C_17  and  C_18
REMARK    7  A    between atoms: C_18  and  O_19
REMARK    8  A    between atoms: C_25  and  O_26
REMARK    9  A    between atoms: O_26  and  C_27
REMARK                            x       y       z     vdW  Elec       q    Type
REMARK                         _______ _______ _______ _____ _____    ______ ____
ROOT
ATOM      1  C   UNL     1       5.178   5.299  16.303  0.00  0.00    +0.000 A 
ATOM      2  C   UNL     1       5.800   6.527  16.022  0.00  0.00    +0.000 A 
ATOM      3  C   UNL     1       5.607   7.608  16.860  0.00  0.00    +0.000 A 
ATOM      4  C   UNL     1       4.760   7.468  17.954  0.00  0.00    +0.000 A 
ATOM      5  C   UNL     1       4.067   6.255  18.228  0.00  0.00    +0.000 A 
ATOM      6  C   UNL     1       3.120   6.107  19.288  0.00  0.00    +0.000 A 
ATOM      7  C   UNL     1       2.429   4.870  19.455  0.00  0.00    +0.000 A 
ATOM      8  C   UNL     1       1.356   4.687  20.362  0.00  0.00    +0.000 A 
ATOM      9  C   UNL     1       0.729   3.465  20.548  0.00  0.00    +0.000 A 
ATOM     10  C   UNL     1       1.141   2.382  19.794  0.00  0.00    +0.000 A 
ATOM     11  C   UNL     1       2.166   2.535  18.848  0.00  0.00    +0.000 A 
ATOM     12  C   UNL     1       2.796   3.786  18.636  0.00  0.00    +0.000 A 
ATOM     13  N   UNL     1       3.722   3.941  17.662  0.00  0.00    +0.000 NA
ATOM     14  C   UNL     1       4.311   5.137  17.403  0.00  0.00    +0.000 A 
ENDROOT
BRANCH   1  17
ATOM     15  C   UNL     1       5.759   3.524  13.007  0.00  0.00    +0.000 C 
ATOM     16  N   UNL     1       5.401   4.488  14.007  0.00  0.00    +0.000 N 
ATOM     17  C   UNL     1       5.500   4.194  15.350  0.00  0.00    +0.000 C 
ATOM     18  O   UNL     1       5.789   3.080  15.771  0.00  0.00    +0.000 OA
ATOM     19  H   UNL     1       5.398   5.478  13.761  0.00  0.00    +0.000 HD
ENDBRANCH   1  17
BRANCH   6  20
ATOM     20  N   UNL     1       2.897   7.198  20.187  0.00  0.00    +0.000 N 
ATOM     21  H   UNL     1       3.487   7.205  21.009  0.00  0.00    +0.000 HD
BRANCH  20  22
ATOM     22  C   UNL     1       1.805   8.085  20.319  0.00  0.00    +0.000 A 
ATOM     23  C   UNL     1       1.044   8.184  21.491  0.00  0.00    +0.000 A 
ATOM     24  C   UNL     1      -0.119   8.958  21.543  0.00  0.00    +0.000 A 
ATOM     25  C   UNL     1      -0.451   9.751  20.442  0.00  0.00    +0.000 A 
ATOM     26  C   UNL     1       0.294   9.684  19.257  0.00  0.00    +0.000 A 
ATOM     27  C   UNL     1       1.401   8.825  19.200  0.00  0.00    +0.000 A 
BRANCH  24  28
ATOM     28  N   UNL     1      -0.811   9.107  22.752  0.00  0.00    +0.000 N 
ATOM     29  H   UNL     1      -0.291   9.629  23.452  0.00  0.00    +0.000 HD
ATOM     30  H   UNL     1      -1.183   8.239  23.124  0.00  0.00    +0.000 HD
ENDBRANCH  24  28
BRANCH  26  31
ATOM     31  C   UNL     1      -0.088  10.517  18.063  0.00  0.00    +0.000 C 
BRANCH  31  32
ATOM     32  O   UNL     1      -1.046   9.824  17.274  0.00  0.00    +0.000 OA
ATOM     33  H   UNL     1      -0.681   9.771  16.374  0.00  0.00    +0.000 HD
ENDBRANCH  31  32
ENDBRANCH  26  31
ENDBRANCH  20  22
ENDBRANCH   6  20
BRANCH  11  34
ATOM     34  O   UNL     1       2.575   1.491  18.039  0.00  0.00    +0.000 OA
ATOM     35  C   UNL     1       3.873   0.962  18.300  0.00  0.00    +0.000 C 
ENDBRANCH  11  34
TORSDOF 7
ENDMDL
MODEL 7
REMARK VINA RESULT:      -7.2      3.916      9.736
REMARK  Name = 
REMARK  9 active torsions:
REMARK  status: ('A' for Active; 'I' for Inactive)
REMARK    1  A    between atoms: C_1  and  N_2
REMARK    2  A    between atoms: C_3  and  C_5
REMARK    3  A    between atoms: C_10  and  N_11
REMARK    4  A    between atoms: N_11  and  C_12
REMARK    5  A    between atoms: C_14  and  N_15
REMARK    6  A    between atoms: C_17  and  C_18
REMARK    7  A    between atoms: C_18  and  O_19
REMARK    8  A    between atoms: C_25  and  O_26
REMARK    9  A    between atoms: O_26  and  C_27
REMARK                            x       y       z     vdW  Elec       q    Type
REMARK                         _______ _______ _______ _____ _____    ______ ____
ROOT
ATOM      1  C   UNL     1      -1.294  13.705  21.119  0.00  0.00    +0.000 A 
ATOM      2  C   UNL     1      -0.098  13.944  21.816  0.00  0.00    +0.000 A 
ATOM      3  C   UNL     1       1.074  13.336  21.409  0.00  0.00    +0.000 A 
ATOM      4  C   UNL     1       1.036  12.459  20.330  0.00  0.00    +0.000 A 
ATOM      5  C   UNL     1      -0.173  12.148  19.645  0.00  0.00    +0.000 A 
ATOM      6  C   UNL     1      -0.262  11.182  18.595  0.00  0.00    +0.000 A 
ATOM      7  C   UNL     1      -1.527  10.893  18.002  0.00  0.00    +0.000 A 
ATOM      8  C   UNL     1      -1.739   9.836  17.083  0.00  0.00    +0.000 A 
ATOM      9  C   UNL     1      -2.963   9.601  16.479  0.00  0.00    +0.000 A 
ATOM     10  C   UNL     1      -4.037  10.407  16.807  0.00  0.00    +0.000 A 
ATOM     11  C   UNL     1      -3.880  11.433  17.752  0.00  0.00    +0.000 A 
ATOM     12  C   UNL     1      -2.637  11.665  18.392  0.00  0.00    +0.000 A 
ATOM     13  N   UNL     1      -2.520  12.599  19.363  0.00  0.00    +0.000 NA
ATOM     14  C   UNL     1      -1.356  12.815  20.028  0.00  0.00    +0.000 A 
ENDROOT
BRANCH   1  17
ATOM     15  C   UNL     1      -4.387  15.891  21.063  0.00  0.00    +0.000 C 
ATOM     16  N   UNL     1      -3.189  15.193  20.699  0.00  0.00    +0.000 N 
ATOM     17  C   UNL     1      -2.482  14.456  21.626  0.00  0.00    +0.000 C 
ATOM     18  O   UNL     1      -2.763  14.437  22.818  0.00  0.00    +0.000 OA
ATOM     19  H   UNL     1      -3.034  14.954  19.720  0.00  0.00    +0.000 HD
ENDBRANCH   1  17
BRANCH   6  20
ATOM     20  N   UNL     1       0.929  10.536  18.135  0.00  0.00    +0.000 N 
ATOM     21  H   UNL     1       1.295  10.883  17.258  0.00  0.00    +0.000 HD
BRANCH  20  22
ATOM     22  C   UNL     1       1.512   9.299  18.493  0.00  0.00    +0.000 A 
ATOM     23  C   UNL     1       1.259   8.666  19.716  0.00  0.00    +0.000 A 
ATOM     24  C   UNL     1       1.962   7.522  20.106  0.00  0.00    +0.000 A 
ATOM     25  C   UNL     1       2.840   6.929  19.196  0.00  0.00    +0.000 A 
ATOM     26  C   UNL     1       3.109   7.530  17.960  0.00  0.00    +0.000 A 
ATOM     27  C   UNL     1       2.461   8.730  17.634  0.00  0.00    +0.000 A 
BRANCH  24  28
ATOM     28  N   UNL     1       1.628   6.861  21.295  0.00  0.00    +0.000 N 
ATOM     29  H   UNL     1       0.626   6.773  21.438  0.00  0.00    +0.000 HD
ATOM     30  H   UNL     1       2.099   7.227  22.117  0.00  0.00    +0.000 HD
ENDBRANCH  24  28
BRANCH  26  31
ATOM     31  C   UNL     1       4.080   6.902  16.996  0.00  0.00    +0.000 C 
BRANCH  31  32
ATOM     32  O   UNL     1       5.104   6.223  17.711  0.00  0.00    +0.000 OA
ATOM     33  H   UNL     1       4.952   6.402  18.655  0.00  0.00    +0.000 HD
ENDBRANCH  31  32
ENDBRANCH  26  31
ENDBRANCH  20  22
ENDBRANCH   6  20
BRANCH  11  34
ATOM     34  O   UNL     1      -4.938  12.231  18.146  0.00  0.00    +0.000 OA
ATOM     35  C   UNL     1      -6.235  11.814  17.725  0.00  0.00    +0.000 C 
ENDBRANCH  11  34
TORSDOF 7
ENDMDL
MODEL 8
REMARK VINA RESULT:      -7.2      4.363      9.954
REMARK  Name = 
REMARK  9 active torsions:
REMARK  status: ('A' for Active; 'I' for Inactive)
REMARK    1  A    between atoms: C_1  and  N_2
REMARK    2  A    between atoms: C_3  and  C_5
REMARK    3  A    between atoms: C_10  and  N_11
REMARK    4  A    between atoms: N_11  and  C_12
REMARK    5  A    between atoms: C_14  and  N_15
REMARK    6  A    between atoms: C_17  and  C_18
REMARK    7  A    between atoms: C_18  and  O_19
REMARK    8  A    between atoms: C_25  and  O_26
REMARK    9  A    between atoms: O_26  and  C_27
REMARK                            x       y       z     vdW  Elec       q    Type
REMARK                         _______ _______ _______ _____ _____    ______ ____
ROOT
ATOM      1  C   UNL     1      -3.114  13.025  21.518  0.00  0.00    +0.000 A 
ATOM      2  C   UNL     1      -2.128  13.223  22.499  0.00  0.00    +0.000 A 
ATOM      3  C   UNL     1      -0.807  12.933  22.220  0.00  0.00    +0.000 A 
ATOM      4  C   UNL     1      -0.482  12.409  20.974  0.00  0.00    +0.000 A 
ATOM      5  C   UNL     1      -1.468  12.139  19.983  0.00  0.00    +0.000 A 
ATOM      6  C   UNL     1      -1.181  11.514  18.729  0.00  0.00    +0.000 A 
ATOM      7  C   UNL     1      -2.241  11.230  17.818  0.00  0.00    +0.000 A 
ATOM      8  C   UNL     1      -2.076  10.464  16.638  0.00  0.00    +0.000 A 
ATOM      9  C   UNL     1      -3.106  10.240  15.739  0.00  0.00    +0.000 A 
ATOM     10  C   UNL     1      -4.359  10.754  16.015  0.00  0.00    +0.000 A 
ATOM     11  C   UNL     1      -4.575  11.474  17.200  0.00  0.00    +0.000 A 
ATOM     12  C   UNL     1      -3.533  11.689  18.136  0.00  0.00    +0.000 A 
ATOM     13  N   UNL     1      -3.774  12.309  19.314  0.00  0.00    +0.000 NA
ATOM     14  C   UNL     1      -2.808  12.489  20.251  0.00  0.00    +0.000 A 
ENDROOT
BRANCH   1  17
ATOM     15  C   UNL     1      -6.775  12.664  22.422  0.00  0.00    +0.000 C 
ATOM     16  N   UNL     1      -5.437  12.411  21.974  0.00  0.00    +0.000 N 
ATOM     17  C   UNL     1      -4.498  13.419  21.924  0.00  0.00    +0.000 C 
ATOM     18  O   UNL     1      -4.765  14.593  22.149  0.00  0.00    +0.000 OA
ATOM     19  H   UNL     1      -5.075  11.458  22.013  0.00  0.00    +0.000 HD
ENDBRANCH   1  17
BRANCH   6  20
ATOM     20  N   UNL     1       0.176  11.207  18.395  0.00  0.00    +0.000 N 
ATOM     21  H   UNL     1       0.574  11.767  17.652  0.00  0.00    +0.000 HD
BRANCH  20  22
ATOM     22  C   UNL     1       0.965  10.067  18.670  0.00  0.00    +0.000 A 
ATOM     23  C   UNL     1       1.789   9.464  17.710  0.00  0.00    +0.000 A 
ATOM     24  C   UNL     1       2.441   8.254  17.964  0.00  0.00    +0.000 A 
ATOM     25  C   UNL     1       2.372   7.708  19.248  0.00  0.00    +0.000 A 
ATOM     26  C   UNL     1       1.567   8.291  20.235  0.00  0.00    +0.000 A 
ATOM     27  C   UNL     1       0.846   9.453  19.923  0.00  0.00    +0.000 A 
BRANCH  24  28
ATOM     28  N   UNL     1       3.326   7.719  17.019  0.00  0.00    +0.000 N 
ATOM     29  H   UNL     1       2.858   7.235  16.258  0.00  0.00    +0.000 HD
ATOM     30  H   UNL     1       4.073   7.163  17.421  0.00  0.00    +0.000 HD
ENDBRANCH  24  28
BRANCH  26  31
ATOM     31  C   UNL     1       1.472   7.680  21.607  0.00  0.00    +0.000 C 
BRANCH  31  32
ATOM     32  O   UNL     1       1.698   8.674  22.598  0.00  0.00    +0.000 OA
ATOM     33  H   UNL     1       2.230   9.372  22.178  0.00  0.00    +0.000 HD
ENDBRANCH  31  32
ENDBRANCH  26  31
ENDBRANCH  20  22
ENDBRANCH   6  20
BRANCH  11  34
ATOM     34  O   UNL     1      -5.822  11.964  17.540  0.00  0.00    +0.000 OA
ATOM     35  C   UNL     1      -6.685  11.067  18.236  0.00  0.00    +0.000 C 
ENDBRANCH  11  34
TORSDOF 7
ENDMDL
MODEL 9
REMARK VINA RESULT:      -7.2      8.333     10.957
REMARK  Name = 
REMARK  9 active torsions:
REMARK  status: ('A' for Active; 'I' for Inactive)
REMARK    1  A    between atoms: C_1  and  N_2
REMARK    2  A    between atoms: C_3  and  C_5
REMARK    3  A    between atoms: C_10  and  N_11
REMARK    4  A    between atoms: N_11  and  C_12
REMARK    5  A    between atoms: C_14  and  N_15
REMARK    6  A    between atoms: C_17  and  C_18
REMARK    7  A    between atoms: C_18  and  O_19
REMARK    8  A    between atoms: C_25  and  O_26
REMARK    9  A    between atoms: O_26  and  C_27
REMARK                            x       y       z     vdW  Elec       q    Type
REMARK                         _______ _______ _______ _____ _____    ______ ____
ROOT
ATOM      1  C   UNL     1      -3.693  13.025  22.545  0.00  0.00    +0.000 A 
ATOM      2  C   UNL     1      -2.804  13.307  23.596  0.00  0.00    +0.000 A 
ATOM      3  C   UNL     1      -1.443  13.341  23.361  0.00  0.00    +0.000 A 
ATOM      4  C   UNL     1      -0.974  13.053  22.084  0.00  0.00    +0.000 A 
ATOM      5  C   UNL     1      -1.846  12.702  21.016  0.00  0.00    +0.000 A 
ATOM      6  C   UNL     1      -1.391  12.309  19.718  0.00  0.00    +0.000 A 
ATOM      7  C   UNL     1      -2.335  11.919  18.722  0.00  0.00    +0.000 A 
ATOM      8  C   UNL     1      -1.971  11.356  17.474  0.00  0.00    +0.000 A 
ATOM      9  C   UNL     1      -2.899  11.029  16.499  0.00  0.00    +0.000 A 
ATOM     10  C   UNL     1      -4.242  11.227  16.760  0.00  0.00    +0.000 A 
ATOM     11  C   UNL     1      -4.646  11.736  18.004  0.00  0.00    +0.000 A 
ATOM     12  C   UNL     1      -3.705  12.051  19.015  0.00  0.00    +0.000 A 
ATOM     13  N   UNL     1      -4.111  12.459  20.240  0.00  0.00    +0.000 NA
ATOM     14  C   UNL     1      -3.238  12.724  21.245  0.00  0.00    +0.000 A 
ENDROOT
BRANCH   1  17
ATOM     15  C   UNL     1      -7.326  14.095  22.509  0.00  0.00    +0.000 C 
ATOM     16  N   UNL     1      -5.912  14.018  22.285  0.00  0.00    +0.000 N 
ATOM     17  C   UNL     1      -5.140  13.064  22.913  0.00  0.00    +0.000 C 
ATOM     18  O   UNL     1      -5.581  12.304  23.766  0.00  0.00    +0.000 OA
ATOM     19  H   UNL     1      -5.523  14.425  21.434  0.00  0.00    +0.000 HD
ENDBRANCH   1  17
BRANCH   6  20
ATOM     20  N   UNL     1       0.010  12.340  19.428  0.00  0.00    +0.000 N 
ATOM     21  H   UNL     1       0.546  11.574  19.814  0.00  0.00    +0.000 HD
BRANCH  20  22
ATOM     22  C   UNL     1       0.845  13.393  18.988  0.00  0.00    +0.000 A 
ATOM     23  C   UNL     1       2.166  13.190  18.571  0.00  0.00    +0.000 A 
ATOM     24  C   UNL     1       3.014  14.263  18.284  0.00  0.00    +0.000 A 
ATOM     25  C   UNL     1       2.488  15.557  18.288  0.00  0.00    +0.000 A 
ATOM     26  C   UNL     1       1.168  15.795  18.691  0.00  0.00    +0.000 A 
ATOM     27  C   UNL     1       0.367  14.707  19.066  0.00  0.00    +0.000 A 
BRANCH  24  28
ATOM     28  N   UNL     1       4.302  14.029  17.785  0.00  0.00    +0.000 N 
ATOM     29  H   UNL     1       5.037  14.216  18.462  0.00  0.00    +0.000 HD
ATOM     30  H   UNL     1       4.487  14.474  16.892  0.00  0.00    +0.000 HD
ENDBRANCH  24  28
BRANCH  26  31
ATOM     31  C   UNL     1       0.616  17.195  18.723  0.00  0.00    +0.000 C 
BRANCH  31  32
ATOM     32  O   UNL     1       1.666  18.136  18.537  0.00  0.00    +0.000 OA
ATOM     33  H   UNL     1       2.449  17.774  18.985  0.00  0.00    +0.000 HD
ENDBRANCH  31  32
ENDBRANCH  26  31
ENDBRANCH  20  22
ENDBRANCH   6  20
BRANCH  11  34
ATOM     34  O   UNL     1      -5.980  11.905  18.326  0.00  0.00    +0.000 OA
ATOM     35  C   UNL     1      -6.731  10.713  18.551  0.00  0.00    +0.000 C 
ENDBRANCH  11  34
TORSDOF 7
ENDMDL
