MODEL 1
REMARK VINA RESULT:      -9.3      0.000      0.000
REMARK  Name = 
REMARK  5 active torsions:
REMARK  status: ('A' for Active; 'I' for Inactive)
REMARK    1  A    between atoms: C_1  and  C_2
REMARK    2  A    between atoms: N_4  and  C_5
REMARK    3  A    between atoms: N_15  and  C_16
REMARK    4  A    between atoms: C_24  and  C_25
REMARK    5  A    between atoms: C_24  and  C_26
REMARK                            x       y       z     vdW  Elec       q    Type
REMARK                         _______ _______ _______ _____ _____    ______ ____
ROOT
ATOM      1  C   UNL     1       7.826   6.554  18.573  0.00  0.00    +0.000 C 
ATOM      2  C   UNL     1       6.976   5.818  17.599  0.00  0.00    +0.000 A 
ATOM      3  N   UNL     1       7.465   5.412  16.423  0.00  0.00    +0.000 NA
ATOM      4  N   UNL     1       6.404   4.878  15.764  0.00  0.00    +0.000 N 
ATOM      5  C   UNL     1       5.313   4.741  16.605  0.00  0.00    +0.000 A 
ATOM      6  C   UNL     1       5.628   5.436  17.755  0.00  0.00    +0.000 A 
ATOM      7  C   UNL     1       4.762   5.622  18.903  0.00  0.00    +0.000 C 
ATOM      8  O   UNL     1       5.214   5.841  20.024  0.00  0.00    +0.000 OA
ATOM      9  N   UNL     1       3.407   5.646  18.589  0.00  0.00    +0.000 N 
ATOM     10  C   UNL     1       2.727   4.437  18.392  0.00  0.00    +0.000 C 
ATOM     11  O   UNL     1       1.573   4.220  18.779  0.00  0.00    +0.000 OA
ATOM     12  C   UNL     1       3.495   3.296  17.646  0.00  0.00    +0.000 C 
ATOM     13  C   UNL     1       4.498   2.552  18.553  0.00  0.00    +0.000 C 
ATOM     14  C   UNL     1       2.476   2.215  17.197  0.00  0.00    +0.000 C 
ATOM     15  C   UNL     1       4.122   3.876  16.349  0.00  0.00    +0.000 C 
ENDROOT
BRANCH   4  16
ATOM     16  C   UNL     1       6.511   4.528  14.394  0.00  0.00    +0.000 A 
ATOM     17  C   UNL     1       7.510   5.124  13.615  0.00  0.00    +0.000 A 
ATOM     18  C   UNL     1       7.646   4.768  12.273  0.00  0.00    +0.000 A 
ATOM     19  C   UNL     1       6.765   3.853  11.698  0.00  0.00    +0.000 A 
ATOM     20  C   UNL     1       5.745   3.288  12.463  0.00  0.00    +0.000 A 
ATOM     21  C   UNL     1       5.618   3.619  13.812  0.00  0.00    +0.000 A 
ENDBRANCH   4  16
BRANCH   9  22
ATOM     22  C   UNL     1       2.746   6.917  18.806  0.00  0.00    +0.000 A 
ATOM     23  C   UNL     1       2.670   7.838  17.735  0.00  0.00    +0.000 A 
ATOM     24  C   UNL     1       2.008   9.062  17.848  0.00  0.00    +0.000 A 
ATOM     25  C   UNL     1       1.395   9.402  19.044  0.00  0.00    +0.000 A 
ATOM     26  C   UNL     1       1.433   8.506  20.110  0.00  0.00    +0.000 A 
ATOM     27  C   UNL     1       2.086   7.270  19.987  0.00  0.00    +0.000 A 
ENDBRANCH   9  22
TORSDOF 2
ENDMDL
MODEL 2
REMARK VINA RESULT:      -9.1      0.103      1.314
REMARK  Name = 
REMARK  5 active torsions:
REMARK  status: ('A' for Active; 'I' for Inactive)
REMARK    1  A    between atoms: C_1  and  C_2
REMARK    2  A    between atoms: N_4  and  C_5
REMARK    3  A    between atoms: N_15  and  C_16
REMARK    4  A    between atoms: C_24  and  C_25
REMARK    5  A    between atoms: C_24  and  C_26
REMARK                            x       y       z     vdW  Elec       q    Type
REMARK                         _______ _______ _______ _____ _____    ______ ____
ROOT
ATOM      1  C   UNL     1       7.758   6.663  18.545  0.00  0.00    +0.000 C 
ATOM      2  C   UNL     1       6.935   5.902  17.568  0.00  0.00    +0.000 A 
ATOM      3  N   UNL     1       7.449   5.490  16.404  0.00  0.00    +0.000 NA
ATOM      4  N   UNL     1       6.407   4.932  15.736  0.00  0.00    +0.000 N 
ATOM      5  C   UNL     1       5.306   4.786  16.561  0.00  0.00    +0.000 A 
ATOM      6  C   UNL     1       5.591   5.499  17.708  0.00  0.00    +0.000 A 
ATOM      7  C   UNL     1       4.705   5.684  18.841  0.00  0.00    +0.000 C 
ATOM      8  O   UNL     1       5.137   5.923  19.966  0.00  0.00    +0.000 OA
ATOM      9  N   UNL     1       3.355   5.682  18.506  0.00  0.00    +0.000 N 
ATOM     10  C   UNL     1       2.699   4.459  18.312  0.00  0.00    +0.000 C 
ATOM     11  O   UNL     1       1.543   4.226  18.685  0.00  0.00    +0.000 OA
ATOM     12  C   UNL     1       3.497   3.322  17.592  0.00  0.00    +0.000 C 
ATOM     13  C   UNL     1       4.498   2.605  18.522  0.00  0.00    +0.000 C 
ATOM     14  C   UNL     1       2.502   2.220  17.140  0.00  0.00    +0.000 C 
ATOM     15  C   UNL     1       4.134   3.898  16.297  0.00  0.00    +0.000 C 
ENDROOT
BRANCH   4  16
ATOM     16  C   UNL     1       6.541   4.568  14.371  0.00  0.00    +0.000 A 
ATOM     17  C   UNL     1       5.678   3.604  13.836  0.00  0.00    +0.000 A 
ATOM     18  C   UNL     1       5.780   3.257  12.488  0.00  0.00    +0.000 A 
ATOM     19  C   UNL     1       6.763   3.837  11.688  0.00  0.00    +0.000 A 
ATOM     20  C   UNL     1       7.649   4.768  12.229  0.00  0.00    +0.000 A 
ATOM     21  C   UNL     1       7.537   5.140  13.569  0.00  0.00    +0.000 A 
ENDBRANCH   4  16
BRANCH   9  22
ATOM     22  C   UNL     1       2.669   6.943  18.698  0.00  0.00    +0.000 A 
ATOM     23  C   UNL     1       2.099   7.224  19.962  0.00  0.00    +0.000 A 
ATOM     24  C   UNL     1       1.465   8.436  20.241  0.00  0.00    +0.000 A 
ATOM     25  C   UNL     1       1.383   9.409  19.259  0.00  0.00    +0.000 A 
ATOM     26  C   UNL     1       1.953   9.171  18.012  0.00  0.00    +0.000 A 
ATOM     27  C   UNL     1       2.604   7.958  17.738  0.00  0.00    +0.000 A 
ENDBRANCH   9  22
TORSDOF 2
ENDMDL
MODEL 3
REMARK VINA RESULT:      -8.3      1.648      6.855
REMARK  Name = 
REMARK  5 active torsions:
REMARK  status: ('A' for Active; 'I' for Inactive)
REMARK    1  A    between atoms: C_1  and  C_2
REMARK    2  A    between atoms: N_4  and  C_5
REMARK    3  A    between atoms: N_15  and  C_16
REMARK    4  A    between atoms: C_24  and  C_25
REMARK    5  A    between atoms: C_24  and  C_26
REMARK                            x       y       z     vdW  Elec       q    Type
REMARK                         _______ _______ _______ _____ _____    ______ ____
ROOT
ATOM      1  C   UNL     1       2.614   2.586  17.937  0.00  0.00    +0.000 C 
ATOM      2  C   UNL     1       3.024   4.015  17.909  0.00  0.00    +0.000 A 
ATOM      3  N   UNL     1       2.299   4.955  18.525  0.00  0.00    +0.000 NA
ATOM      4  N   UNL     1       2.903   6.130  18.210  0.00  0.00    +0.000 N 
ATOM      5  C   UNL     1       4.123   5.914  17.595  0.00  0.00    +0.000 A 
ATOM      6  C   UNL     1       4.169   4.567  17.299  0.00  0.00    +0.000 A 
ATOM      7  C   UNL     1       5.238   3.883  16.596  0.00  0.00    +0.000 C 
ATOM      8  O   UNL     1       5.444   2.682  16.747  0.00  0.00    +0.000 OA
ATOM      9  N   UNL     1       5.905   4.681  15.673  0.00  0.00    +0.000 N 
ATOM     10  C   UNL     1       6.894   5.567  16.121  0.00  0.00    +0.000 C 
ATOM     11  O   UNL     1       7.952   5.786  15.519  0.00  0.00    +0.000 OA
ATOM     12  C   UNL     1       6.636   6.306  17.475  0.00  0.00    +0.000 C 
ATOM     13  C   UNL     1       6.911   5.420  18.709  0.00  0.00    +0.000 C 
ATOM     14  C   UNL     1       7.629   7.492  17.598  0.00  0.00    +0.000 C 
ATOM     15  C   UNL     1       5.212   6.927  17.446  0.00  0.00    +0.000 C 
ENDROOT
BRANCH   4  16
ATOM     16  C   UNL     1       2.281   7.364  18.528  0.00  0.00    +0.000 A 
ATOM     17  C   UNL     1       1.884   7.607  19.848  0.00  0.00    +0.000 A 
ATOM     18  C   UNL     1       1.297   8.828  20.181  0.00  0.00    +0.000 A 
ATOM     19  C   UNL     1       1.068   9.787  19.196  0.00  0.00    +0.000 A 
ATOM     20  C   UNL     1       1.427   9.532  17.872  0.00  0.00    +0.000 A 
ATOM     21  C   UNL     1       2.038   8.324  17.536  0.00  0.00    +0.000 A 
ENDBRANCH   4  16
BRANCH   9  22
ATOM     22  C   UNL     1       5.737   4.295  14.287  0.00  0.00    +0.000 A 
ATOM     23  C   UNL     1       6.883   4.192  13.464  0.00  0.00    +0.000 A 
ATOM     24  C   UNL     1       6.811   3.779  12.133  0.00  0.00    +0.000 A 
ATOM     25  C   UNL     1       5.582   3.453  11.582  0.00  0.00    +0.000 A 
ATOM     26  C   UNL     1       4.438   3.523  12.373  0.00  0.00    +0.000 A 
ATOM     27  C   UNL     1       4.516   3.924  13.715  0.00  0.00    +0.000 A 
ENDBRANCH   9  22
TORSDOF 2
ENDMDL
MODEL 4
REMARK VINA RESULT:      -7.7      1.641      6.812
REMARK  Name = 
REMARK  5 active torsions:
REMARK  status: ('A' for Active; 'I' for Inactive)
REMARK    1  A    between atoms: C_1  and  C_2
REMARK    2  A    between atoms: N_4  and  C_5
REMARK    3  A    between atoms: N_15  and  C_16
REMARK    4  A    between atoms: C_24  and  C_25
REMARK    5  A    between atoms: C_24  and  C_26
REMARK                            x       y       z     vdW  Elec       q    Type
REMARK                         _______ _______ _______ _____ _____    ______ ____
ROOT
ATOM      1  C   UNL     1       2.677   2.564  17.951  0.00  0.00    +0.000 C 
ATOM      2  C   UNL     1       3.082   3.995  17.917  0.00  0.00    +0.000 A 
ATOM      3  N   UNL     1       2.345   4.937  18.515  0.00  0.00    +0.000 NA
ATOM      4  N   UNL     1       2.948   6.111  18.198  0.00  0.00    +0.000 N 
ATOM      5  C   UNL     1       4.178   5.895  17.603  0.00  0.00    +0.000 A 
ATOM      6  C   UNL     1       4.234   4.546  17.319  0.00  0.00    +0.000 A 
ATOM      7  C   UNL     1       5.315   3.860  16.638  0.00  0.00    +0.000 C 
ATOM      8  O   UNL     1       5.523   2.661  16.801  0.00  0.00    +0.000 OA
ATOM      9  N   UNL     1       5.992   4.653  15.718  0.00  0.00    +0.000 N 
ATOM     10  C   UNL     1       6.971   5.547  16.172  0.00  0.00    +0.000 C 
ATOM     11  O   UNL     1       8.037   5.765  15.584  0.00  0.00    +0.000 OA
ATOM     12  C   UNL     1       6.690   6.296  17.516  0.00  0.00    +0.000 C 
ATOM     13  C   UNL     1       6.951   5.421  18.761  0.00  0.00    +0.000 C 
ATOM     14  C   UNL     1       7.678   7.487  17.644  0.00  0.00    +0.000 C 
ATOM     15  C   UNL     1       5.265   6.911  17.461  0.00  0.00    +0.000 C 
ENDROOT
BRANCH   4  16
ATOM     16  C   UNL     1       2.317   7.346  18.497  0.00  0.00    +0.000 A 
ATOM     17  C   UNL     1       2.128   8.279  17.471  0.00  0.00    +0.000 A 
ATOM     18  C   UNL     1       1.483   9.486  17.743  0.00  0.00    +0.000 A 
ATOM     19  C   UNL     1       1.065   9.780  19.041  0.00  0.00    +0.000 A 
ATOM     20  C   UNL     1       1.288   8.868  20.072  0.00  0.00    +0.000 A 
ATOM     21  C   UNL     1       1.908   7.648  19.802  0.00  0.00    +0.000 A 
ENDBRANCH   4  16
BRANCH   9  22
ATOM     22  C   UNL     1       5.846   4.255  14.333  0.00  0.00    +0.000 A 
ATOM     23  C   UNL     1       4.550   3.983  13.834  0.00  0.00    +0.000 A 
ATOM     24  C   UNL     1       4.320   3.641  12.500  0.00  0.00    +0.000 A 
ATOM     25  C   UNL     1       5.386   3.562  11.619  0.00  0.00    +0.000 A 
ATOM     26  C   UNL     1       6.671   3.845  12.074  0.00  0.00    +0.000 A 
ATOM     27  C   UNL     1       6.898   4.203  13.412  0.00  0.00    +0.000 A 
ENDBRANCH   9  22
TORSDOF 2
ENDMDL
MODEL 5
REMARK VINA RESULT:      -7.3      5.337     10.735
REMARK  Name = 
REMARK  5 active torsions:
REMARK  status: ('A' for Active; 'I' for Inactive)
REMARK    1  A    between atoms: C_1  and  C_2
REMARK    2  A    between atoms: N_4  and  C_5
REMARK    3  A    between atoms: N_15  and  C_16
REMARK    4  A    between atoms: C_24  and  C_25
REMARK    5  A    between atoms: C_24  and  C_26
REMARK                            x       y       z     vdW  Elec       q    Type
REMARK                         _______ _______ _______ _____ _____    ______ ____
ROOT
ATOM      1  C   UNL     1       2.969  13.591  20.972  0.00  0.00    +0.000 C 
ATOM      2  C   UNL     1       1.535  13.210  21.075  0.00  0.00    +0.000 A 
ATOM      3  N   UNL     1       0.742  13.747  22.008  0.00  0.00    +0.000 NA
ATOM      4  N   UNL     1      -0.447  13.105  21.874  0.00  0.00    +0.000 N 
ATOM      5  C   UNL     1      -0.472  12.339  20.722  0.00  0.00    +0.000 A 
ATOM      6  C   UNL     1       0.826  12.310  20.254  0.00  0.00    +0.000 A 
ATOM      7  C   UNL     1       1.299  11.578  19.095  0.00  0.00    +0.000 C 
ATOM      8  O   UNL     1       2.304  11.923  18.480  0.00  0.00    +0.000 OA
ATOM      9  N   UNL     1       0.586  10.412  18.836  0.00  0.00    +0.000 N 
ATOM     10  C   UNL     1      -0.642  10.494  18.165  0.00  0.00    +0.000 C 
ATOM     11  O   UNL     1      -1.021   9.684  17.311  0.00  0.00    +0.000 OA
ATOM     12  C   UNL     1      -1.573  11.701  18.518  0.00  0.00    +0.000 C 
ATOM     13  C   UNL     1      -1.143  13.016  17.834  0.00  0.00    +0.000 C 
ATOM     14  C   UNL     1      -2.999  11.410  17.977  0.00  0.00    +0.000 C 
ATOM     15  C   UNL     1      -1.701  11.802  20.063  0.00  0.00    +0.000 C 
ENDROOT
BRANCH   4  16
ATOM     16  C   UNL     1      -1.469  13.278  22.841  0.00  0.00    +0.000 A 
ATOM     17  C   UNL     1      -1.510  14.464  23.584  0.00  0.00    +0.000 A 
ATOM     18  C   UNL     1      -2.527  14.661  24.519  0.00  0.00    +0.000 A 
ATOM     19  C   UNL     1      -3.476  13.664  24.742  0.00  0.00    +0.000 A 
ATOM     20  C   UNL     1      -3.413  12.466  24.031  0.00  0.00    +0.000 A 
ATOM     21  C   UNL     1      -2.415  12.272  23.076  0.00  0.00    +0.000 A 
ENDBRANCH   4  16
BRANCH   9  22
ATOM     22  C   UNL     1       1.331   9.182  19.004  0.00  0.00    +0.000 A 
ATOM     23  C   UNL     1       1.267   8.510  20.248  0.00  0.00    +0.000 A 
ATOM     24  C   UNL     1       1.916   7.295  20.474  0.00  0.00    +0.000 A 
ATOM     25  C   UNL     1       2.652   6.711  19.456  0.00  0.00    +0.000 A 
ATOM     26  C   UNL     1       2.717   7.337  18.213  0.00  0.00    +0.000 A 
ATOM     27  C   UNL     1       2.050   8.550  17.984  0.00  0.00    +0.000 A 
ENDBRANCH   9  22
TORSDOF 2
ENDMDL
MODEL 6
REMARK VINA RESULT:      -7.1      5.336     10.730
REMARK  Name = 
REMARK  5 active torsions:
REMARK  status: ('A' for Active; 'I' for Inactive)
REMARK    1  A    between atoms: C_1  and  C_2
REMARK    2  A    between atoms: N_4  and  C_5
REMARK    3  A    between atoms: N_15  and  C_16
REMARK    4  A    between atoms: C_24  and  C_25
REMARK    5  A    between atoms: C_24  and  C_26
REMARK                            x       y       z     vdW  Elec       q    Type
REMARK                         _______ _______ _______ _____ _____    ______ ____
ROOT
ATOM      1  C   UNL     1       2.986  13.542  20.950  0.00  0.00    +0.000 C 
ATOM      2  C   UNL     1       1.546  13.187  21.059  0.00  0.00    +0.000 A 
ATOM      3  N   UNL     1       0.764  13.746  21.989  0.00  0.00    +0.000 NA
ATOM      4  N   UNL     1      -0.436  13.124  21.862  0.00  0.00    +0.000 N 
ATOM      5  C   UNL     1      -0.477  12.350  20.716  0.00  0.00    +0.000 A 
ATOM      6  C   UNL     1       0.818  12.295  20.245  0.00  0.00    +0.000 A 
ATOM      7  C   UNL     1       1.276  11.546  19.090  0.00  0.00    +0.000 C 
ATOM      8  O   UNL     1       2.286  11.868  18.471  0.00  0.00    +0.000 OA
ATOM      9  N   UNL     1       0.541  10.392  18.841  0.00  0.00    +0.000 N 
ATOM     10  C   UNL     1      -0.686  10.491  18.172  0.00  0.00    +0.000 C 
ATOM     11  O   UNL     1      -1.081   9.681  17.325  0.00  0.00    +0.000 OA
ATOM     12  C   UNL     1      -1.594  11.716  18.518  0.00  0.00    +0.000 C 
ATOM     13  C   UNL     1      -1.142  13.019  17.823  0.00  0.00    +0.000 C 
ATOM     14  C   UNL     1      -3.026  11.447  17.982  0.00  0.00    +0.000 C 
ATOM     15  C   UNL     1      -1.717  11.831  20.063  0.00  0.00    +0.000 C 
ENDROOT
BRANCH   4  16
ATOM     16  C   UNL     1      -1.454  13.323  22.830  0.00  0.00    +0.000 A 
ATOM     17  C   UNL     1      -2.407  12.318  23.032  0.00  0.00    +0.000 A 
ATOM     18  C   UNL     1      -3.397  12.488  24.000  0.00  0.00    +0.000 A 
ATOM     19  C   UNL     1      -3.462  13.671  24.736  0.00  0.00    +0.000 A 
ATOM     20  C   UNL     1      -2.536  14.689  24.508  0.00  0.00    +0.000 A 
ATOM     21  C   UNL     1      -1.528  14.516  23.560  0.00  0.00    +0.000 A 
ENDBRANCH   4  16
BRANCH   9  22
ATOM     22  C   UNL     1       1.265   9.149  19.017  0.00  0.00    +0.000 A 
ATOM     23  C   UNL     1       2.028   8.645  17.938  0.00  0.00    +0.000 A 
ATOM     24  C   UNL     1       2.792   7.481  18.043  0.00  0.00    +0.000 A 
ATOM     25  C   UNL     1       2.816   6.782  19.240  0.00  0.00    +0.000 A 
ATOM     26  C   UNL     1       2.092   7.265  20.327  0.00  0.00    +0.000 A 
ATOM     27  C   UNL     1       1.338   8.444  20.223  0.00  0.00    +0.000 A 
ENDBRANCH   9  22
TORSDOF 2
ENDMDL
MODEL 7
REMARK VINA RESULT:      -7.0      4.673      7.136
REMARK  Name = 
REMARK  5 active torsions:
REMARK  status: ('A' for Active; 'I' for Inactive)
REMARK    1  A    between atoms: C_1  and  C_2
REMARK    2  A    between atoms: N_4  and  C_5
REMARK    3  A    between atoms: N_15  and  C_16
REMARK    4  A    between atoms: C_24  and  C_25
REMARK    5  A    between atoms: C_24  and  C_26
REMARK                            x       y       z     vdW  Elec       q    Type
REMARK                         _______ _______ _______ _____ _____    ______ ____
ROOT
ATOM      1  C   UNL     1       3.363   8.543  17.226  0.00  0.00    +0.000 C 
ATOM      2  C   UNL     1       2.626   7.935  18.365  0.00  0.00    +0.000 A 
ATOM      3  N   UNL     1       2.871   6.680  18.757  0.00  0.00    +0.000 NA
ATOM      4  N   UNL     1       1.962   6.432  19.735  0.00  0.00    +0.000 N 
ATOM      5  C   UNL     1       1.307   7.590  20.112  0.00  0.00    +0.000 A 
ATOM      6  C   UNL     1       1.644   8.543  19.173  0.00  0.00    +0.000 A 
ATOM      7  C   UNL     1       1.148   9.905  19.123  0.00  0.00    +0.000 C 
ATOM      8  O   UNL     1       1.782  10.804  18.577  0.00  0.00    +0.000 OA
ATOM      9  N   UNL     1      -0.136  10.056  19.636  0.00  0.00    +0.000 N 
ATOM     10  C   UNL     1      -0.314  10.143  21.024  0.00  0.00    +0.000 C 
ATOM     11  O   UNL     1      -1.125  10.898  21.573  0.00  0.00    +0.000 OA
ATOM     12  C   UNL     1       0.587   9.231  21.921  0.00  0.00    +0.000 C 
ATOM     13  C   UNL     1       2.017   9.783  22.098  0.00  0.00    +0.000 C 
ATOM     14  C   UNL     1      -0.011   9.187  23.352  0.00  0.00    +0.000 C 
ATOM     15  C   UNL     1       0.531   7.777  21.376  0.00  0.00    +0.000 C 
ENDROOT
BRANCH   4  16
ATOM     16  C   UNL     1       1.795   5.118  20.243  0.00  0.00    +0.000 A 
ATOM     17  C   UNL     1       0.950   4.229  19.568  0.00  0.00    +0.000 A 
ATOM     18  C   UNL     1       0.799   2.925  20.040  0.00  0.00    +0.000 A 
ATOM     19  C   UNL     1       1.454   2.520  21.202  0.00  0.00    +0.000 A 
ATOM     20  C   UNL     1       2.265   3.416  21.898  0.00  0.00    +0.000 A 
ATOM     21  C   UNL     1       2.443   4.714  21.418  0.00  0.00    +0.000 A 
ENDBRANCH   4  16
BRANCH   9  22
ATOM     22  C   UNL     1      -1.148  10.429  18.670  0.00  0.00    +0.000 A 
ATOM     23  C   UNL     1      -1.278   9.662  17.488  0.00  0.00    +0.000 A 
ATOM     24  C   UNL     1      -2.260   9.927  16.531  0.00  0.00    +0.000 A 
ATOM     25  C   UNL     1      -3.147  10.972  16.730  0.00  0.00    +0.000 A 
ATOM     26  C   UNL     1      -3.059  11.732  17.894  0.00  0.00    +0.000 A 
ATOM     27  C   UNL     1      -2.081  11.454  18.861  0.00  0.00    +0.000 A 
ENDBRANCH   9  22
TORSDOF 2
ENDMDL
MODEL 8
REMARK VINA RESULT:      -7.0      5.929      9.920
REMARK  Name = 
REMARK  5 active torsions:
REMARK  status: ('A' for Active; 'I' for Inactive)
REMARK    1  A    between atoms: C_1  and  C_2
REMARK    2  A    between atoms: N_4  and  C_5
REMARK    3  A    between atoms: N_15  and  C_16
REMARK    4  A    between atoms: C_24  and  C_25
REMARK    5  A    between atoms: C_24  and  C_26
REMARK                            x       y       z     vdW  Elec       q    Type
REMARK                         _______ _______ _______ _____ _____    ______ ____
ROOT
ATOM      1  C   UNL     1      -3.193  11.651  18.180  0.00  0.00    +0.000 C 
ATOM      2  C   UNL     1      -1.840  11.403  18.745  0.00  0.00    +0.000 A 
ATOM      3  N   UNL     1      -1.074  10.405  18.293  0.00  0.00    +0.000 NA
ATOM      4  N   UNL     1       0.025  10.414  19.091  0.00  0.00    +0.000 N 
ATOM      5  C   UNL     1       0.056  11.548  19.883  0.00  0.00    +0.000 A 
ATOM      6  C   UNL     1      -1.183  12.140  19.751  0.00  0.00    +0.000 A 
ATOM      7  C   UNL     1      -1.638  13.330  20.444  0.00  0.00    +0.000 C 
ATOM      8  O   UNL     1      -2.525  14.045  19.985  0.00  0.00    +0.000 OA
ATOM      9  N   UNL     1      -1.067  13.503  21.700  0.00  0.00    +0.000 N 
ATOM     10  C   UNL     1       0.219  14.052  21.799  0.00  0.00    +0.000 C 
ATOM     11  O   UNL     1       0.564  14.854  22.675  0.00  0.00    +0.000 OA
ATOM     12  C   UNL     1       1.266  13.626  20.718  0.00  0.00    +0.000 C 
ATOM     13  C   UNL     1       1.084  14.366  19.376  0.00  0.00    +0.000 C 
ATOM     14  C   UNL     1       2.684  14.021  21.210  0.00  0.00    +0.000 C 
ATOM     15  C   UNL     1       1.259  12.077  20.595  0.00  0.00    +0.000 C 
ENDROOT
BRANCH   4  16
ATOM     16  C   UNL     1       0.966   9.354  19.029  0.00  0.00    +0.000 A 
ATOM     17  C   UNL     1       1.156   8.546  20.157  0.00  0.00    +0.000 A 
ATOM     18  C   UNL     1       2.057   7.482  20.102  0.00  0.00    +0.000 A 
ATOM     19  C   UNL     1       2.795   7.249  18.942  0.00  0.00    +0.000 A 
ATOM     20  C   UNL     1       2.636   8.077  17.832  0.00  0.00    +0.000 A 
ATOM     21  C   UNL     1       1.718   9.127  17.870  0.00  0.00    +0.000 A 
ENDBRANCH   4  16
BRANCH   9  22
ATOM     22  C   UNL     1      -1.983  13.392  22.817  0.00  0.00    +0.000 A 
ATOM     23  C   UNL     1      -2.199  14.524  23.637  0.00  0.00    +0.000 A 
ATOM     24  C   UNL     1      -3.103  14.513  24.702  0.00  0.00    +0.000 A 
ATOM     25  C   UNL     1      -3.823  13.362  24.978  0.00  0.00    +0.000 A 
ATOM     26  C   UNL     1      -3.649  12.238  24.174  0.00  0.00    +0.000 A 
ATOM     27  C   UNL     1      -2.752  12.257  23.095  0.00  0.00    +0.000 A 
ENDBRANCH   9  22
TORSDOF 2
ENDMDL
MODEL 9
REMARK VINA RESULT:      -6.8      8.619     12.211
REMARK  Name = 
REMARK  5 active torsions:
REMARK  status: ('A' for Active; 'I' for Inactive)
REMARK    1  A    between atoms: C_1  and  C_2
REMARK    2  A    between atoms: N_4  and  C_5
REMARK    3  A    between atoms: N_15  and  C_16
REMARK    4  A    between atoms: C_24  and  C_25
REMARK    5  A    between atoms: C_24  and  C_26
REMARK                            x       y       z     vdW  Elec       q    Type
REMARK                         _______ _______ _______ _____ _____    ______ ____
ROOT
ATOM      1  C   UNL     1      -0.619   9.598  22.801  0.00  0.00    +0.000 C 
ATOM      2  C   UNL     1      -0.905  11.040  22.578  0.00  0.00    +0.000 A 
ATOM      3  N   UNL     1      -1.254  11.840  23.591  0.00  0.00    +0.000 NA
ATOM      4  N   UNL     1      -1.533  13.038  23.015  0.00  0.00    +0.000 N 
ATOM      5  C   UNL     1      -1.142  13.055  21.688  0.00  0.00    +0.000 A 
ATOM      6  C   UNL     1      -0.835  11.750  21.362  0.00  0.00    +0.000 A 
ATOM      7  C   UNL     1      -0.430  11.268  20.056  0.00  0.00    +0.000 C 
ATOM      8  O   UNL     1       0.236  10.246  19.923  0.00  0.00    +0.000 OA
ATOM      9  N   UNL     1      -0.962  11.998  18.998  0.00  0.00    +0.000 N 
ATOM     10  C   UNL     1      -0.363  13.211  18.631  0.00  0.00    +0.000 C 
ATOM     11  O   UNL     1      -0.220  13.588  17.463  0.00  0.00    +0.000 OA
ATOM     12  C   UNL     1       0.165  14.126  19.784  0.00  0.00    +0.000 C 
ATOM     13  C   UNL     1       1.523  13.660  20.352  0.00  0.00    +0.000 C 
ATOM     14  C   UNL     1       0.430  15.547  19.217  0.00  0.00    +0.000 C 
ATOM     15  C   UNL     1      -0.950  14.281  20.855  0.00  0.00    +0.000 C 
ENDROOT
BRANCH   4  16
ATOM     16  C   UNL     1      -2.136  14.075  23.771  0.00  0.00    +0.000 A 
ATOM     17  C   UNL     1      -1.323  14.923  24.533  0.00  0.00    +0.000 A 
ATOM     18  C   UNL     1      -1.899  15.965  25.260  0.00  0.00    +0.000 A 
ATOM     19  C   UNL     1      -3.283  16.138  25.260  0.00  0.00    +0.000 A 
ATOM     20  C   UNL     1      -4.097  15.271  24.532  0.00  0.00    +0.000 A 
ATOM     21  C   UNL     1      -3.527  14.242  23.783  0.00  0.00    +0.000 A 
ENDBRANCH   4  16
BRANCH   9  22
ATOM     22  C   UNL     1      -1.901  11.278  18.162  0.00  0.00    +0.000 A 
ATOM     23  C   UNL     1      -3.275  11.602  18.245  0.00  0.00    +0.000 A 
ATOM     24  C   UNL     1      -4.236  10.989  17.438  0.00  0.00    +0.000 A 
ATOM     25  C   UNL     1      -3.848  10.029  16.518  0.00  0.00    +0.000 A 
ATOM     26  C   UNL     1      -2.499   9.705  16.396  0.00  0.00    +0.000 A 
ATOM     27  C   UNL     1      -1.534  10.334  17.197  0.00  0.00    +0.000 A 
ENDBRANCH   9  22
TORSDOF 2
ENDMDL
