MODEL 1
REMARK VINA RESULT:      -8.6      0.000      0.000
REMARK  Name = 
REMARK  3 active torsions:
REMARK  status: ('A' for Active; 'I' for Inactive)
REMARK    1  A    between atoms: C_2  and  C_12
REMARK    2  A    between atoms: N_3  and  C_4
REMARK    3  A    between atoms: C_4  and  C_5
REMARK                            x       y       z     vdW  Elec       q    Type
REMARK                         _______ _______ _______ _____ _____    ______ ____
ROOT
ATOM      1  C   UNL     1       2.629   7.062  19.003  0.00  0.00    +0.000 A 
ATOM      2  C   UNL     1       2.611   8.005  17.973  0.00  0.00    +0.000 A 
ATOM      3  C   UNL     1       1.832   9.167  18.079  0.00  0.00    +0.000 A 
ATOM      4  C   UNL     1       1.083   9.404  19.252  0.00  0.00    +0.000 A 
ATOM      5  N   UNL     1       0.294  10.511  19.515  0.00  0.00    +0.000 NA
ATOM      6  C   UNL     1      -0.207  10.459  20.731  0.00  0.00    +0.000 A 
ATOM      7  N   UNL     1      -1.020  11.409  21.276  0.00  0.00    +0.000 N 
ATOM      8  C   UNL     1      -0.927  11.760  22.692  0.00  0.00    +0.000 C 
ATOM      9  C   UNL     1      -2.333  12.033  23.220  0.00  0.00    +0.000 C 
ATOM     10  C   UNL     1      -3.048  13.093  22.381  0.00  0.00    +0.000 C 
ATOM     11  C   UNL     1      -2.993  12.757  20.889  0.00  0.00    +0.000 C 
ATOM     12  C   UNL     1      -1.561  12.465  20.425  0.00  0.00    +0.000 C 
ATOM     13  S   UNL     1       0.168   8.993  21.576  0.00  0.00    +0.000 S 
ATOM     14  C   UNL     1       1.131   8.454  20.268  0.00  0.00    +0.000 A 
ATOM     15  C   UNL     1       1.884   7.273  20.171  0.00  0.00    +0.000 A 
ENDROOT
BRANCH   1  17
ATOM     16  O   UNL     1       4.365   5.634  19.704  0.00  0.00    +0.000 OA
ATOM     17  C   UNL     1       3.502   5.863  18.866  0.00  0.00    +0.000 C 
ATOM     18  N   UNL     1       3.286   5.072  17.758  0.00  0.00    +0.000 N 
ATOM     19  H   UNL     1       2.740   5.434  16.987  0.00  0.00    +0.000 HD
BRANCH  18  20
ATOM     20  C   UNL     1       4.108   3.913  17.506  0.00  0.00    +0.000 C 
BRANCH  20  21
ATOM     21  C   UNL     1       5.185   4.225  16.500  0.00  0.00    +0.000 A 
ATOM     22  C   UNL     1       6.319   4.966  16.863  0.00  0.00    +0.000 A 
ATOM     23  C   UNL     1       7.315   5.245  15.922  0.00  0.00    +0.000 A 
ATOM     24  C   UNL     1       7.182   4.793  14.609  0.00  0.00    +0.000 A 
ATOM     25  C   UNL     1       6.050   4.072  14.238  0.00  0.00    +0.000 A 
ATOM     26 CL   UNL     1       5.883   3.518  12.617  0.00  0.00    +0.000 Cl
ATOM     27  C   UNL     1       5.052   3.793  15.171  0.00  0.00    +0.000 A 
ENDBRANCH  20  21
ENDBRANCH  18  20
ENDBRANCH   1  17
TORSDOF 3
ENDMDL
MODEL 2
REMARK VINA RESULT:      -8.4      3.243      4.716
REMARK  Name = 
REMARK  3 active torsions:
REMARK  status: ('A' for Active; 'I' for Inactive)
REMARK    1  A    between atoms: C_2  and  C_12
REMARK    2  A    between atoms: N_3  and  C_4
REMARK    3  A    between atoms: C_4  and  C_5
REMARK                            x       y       z     vdW  Elec       q    Type
REMARK                         _______ _______ _______ _____ _____    ______ ____
ROOT
ATOM      1  C   UNL     1       0.789   9.293  20.696  0.00  0.00    +0.000 A 
ATOM      2  C   UNL     1       0.758   8.957  22.052  0.00  0.00    +0.000 A 
ATOM      3  C   UNL     1      -0.035   9.684  22.952  0.00  0.00    +0.000 A 
ATOM      4  C   UNL     1      -0.835  10.747  22.481  0.00  0.00    +0.000 A 
ATOM      5  N   UNL     1      -1.686  11.534  23.238  0.00  0.00    +0.000 NA
ATOM      6  C   UNL     1      -2.345  12.386  22.480  0.00  0.00    +0.000 A 
ATOM      7  N   UNL     1      -3.257  13.289  22.940  0.00  0.00    +0.000 N 
ATOM      8  C   UNL     1      -4.450  13.621  22.163  0.00  0.00    +0.000 C 
ATOM      9  C   UNL     1      -4.744  15.109  22.332  0.00  0.00    +0.000 C 
ATOM     10  C   UNL     1      -4.860  15.490  23.809  0.00  0.00    +0.000 C 
ATOM     11  C   UNL     1      -3.657  14.993  24.612  0.00  0.00    +0.000 C 
ATOM     12  C   UNL     1      -3.395  13.501  24.379  0.00  0.00    +0.000 C 
ATOM     13  S   UNL     1      -1.870  12.346  20.813  0.00  0.00    +0.000 S 
ATOM     14  C   UNL     1      -0.796  11.051  21.123  0.00  0.00    +0.000 A 
ATOM     15  C   UNL     1       0.010  10.351  20.210  0.00  0.00    +0.000 A 
ENDROOT
BRANCH   1  17
ATOM     16  O   UNL     1       1.757   8.815  18.603  0.00  0.00    +0.000 OA
ATOM     17  C   UNL     1       1.612   8.467  19.769  0.00  0.00    +0.000 C 
ATOM     18  N   UNL     1       2.161   7.319  20.296  0.00  0.00    +0.000 N 
ATOM     19  H   UNL     1       1.812   6.959  21.175  0.00  0.00    +0.000 HD
BRANCH  18  20
ATOM     20  C   UNL     1       2.936   6.424  19.471  0.00  0.00    +0.000 C 
BRANCH  20  21
ATOM     21  C   UNL     1       2.505   4.995  19.673  0.00  0.00    +0.000 A 
ATOM     22  C   UNL     1       1.443   4.675  20.532  0.00  0.00    +0.000 A 
ATOM     23  C   UNL     1       1.047   3.346  20.708  0.00  0.00    +0.000 A 
ATOM     24  C   UNL     1       1.715   2.324  20.032  0.00  0.00    +0.000 A 
ATOM     25  C   UNL     1       2.781   2.632  19.191  0.00  0.00    +0.000 A 
ATOM     26 CL   UNL     1       3.608   1.371  18.363  0.00  0.00    +0.000 Cl
ATOM     27  C   UNL     1       3.182   3.956  19.015  0.00  0.00    +0.000 A 
ENDBRANCH  20  21
ENDBRANCH  18  20
ENDBRANCH   1  17
TORSDOF 3
ENDMDL
MODEL 3
REMARK VINA RESULT:      -8.2      3.872      5.387
REMARK  Name = 
REMARK  3 active torsions:
REMARK  status: ('A' for Active; 'I' for Inactive)
REMARK    1  A    between atoms: C_2  and  C_12
REMARK    2  A    between atoms: N_3  and  C_4
REMARK    3  A    between atoms: C_4  and  C_5
REMARK                            x       y       z     vdW  Elec       q    Type
REMARK                         _______ _______ _______ _____ _____    ______ ____
ROOT
ATOM      1  C   UNL     1       0.333  10.020  18.777  0.00  0.00    +0.000 A 
ATOM      2  C   UNL     1       0.412  10.806  19.929  0.00  0.00    +0.000 A 
ATOM      3  C   UNL     1      -0.668  11.609  20.325  0.00  0.00    +0.000 A 
ATOM      4  C   UNL     1      -1.860  11.601  19.569  0.00  0.00    +0.000 A 
ATOM      5  N   UNL     1      -3.015  12.313  19.846  0.00  0.00    +0.000 NA
ATOM      6  C   UNL     1      -3.969  12.023  18.987  0.00  0.00    +0.000 A 
ATOM      7  N   UNL     1      -5.221  12.564  19.007  0.00  0.00    +0.000 N 
ATOM      8  C   UNL     1      -6.394  11.768  18.650  0.00  0.00    +0.000 C 
ATOM      9  C   UNL     1      -7.373  12.655  17.886  0.00  0.00    +0.000 C 
ATOM     10  C   UNL     1      -7.717  13.917  18.678  0.00  0.00    +0.000 C 
ATOM     11  C   UNL     1      -6.457  14.640  19.156  0.00  0.00    +0.000 C 
ATOM     12  C   UNL     1      -5.502  13.692  19.891  0.00  0.00    +0.000 C 
ATOM     13  S   UNL     1      -3.466  10.947  17.724  0.00  0.00    +0.000 S 
ATOM     14  C   UNL     1      -1.916  10.798  18.433  0.00  0.00    +0.000 A 
ATOM     15  C   UNL     1      -0.837  10.006  18.008  0.00  0.00    +0.000 A 
ENDROOT
BRANCH   1  17
ATOM     16  O   UNL     1       2.113   9.356  17.386  0.00  0.00    +0.000 OA
ATOM     17  C   UNL     1       1.488   9.150  18.419  0.00  0.00    +0.000 C 
ATOM     18  N   UNL     1       1.778   8.126  19.294  0.00  0.00    +0.000 N 
ATOM     19  H   UNL     1       1.092   7.856  19.988  0.00  0.00    +0.000 HD
BRANCH  18  20
ATOM     20  C   UNL     1       2.847   7.197  19.018  0.00  0.00    +0.000 C 
BRANCH  20  21
ATOM     21  C   UNL     1       2.344   5.777  19.030  0.00  0.00    +0.000 A 
ATOM     22  C   UNL     1       2.008   5.120  17.837  0.00  0.00    +0.000 A 
ATOM     23  C   UNL     1       1.547   3.801  17.860  0.00  0.00    +0.000 A 
ATOM     24  C   UNL     1       1.412   3.129  19.075  0.00  0.00    +0.000 A 
ATOM     25  C   UNL     1       1.727   3.782  20.264  0.00  0.00    +0.000 A 
ATOM     26 CL   UNL     1       1.555   2.955  21.764  0.00  0.00    +0.000 Cl
ATOM     27  C   UNL     1       2.184   5.099  20.248  0.00  0.00    +0.000 A 
ENDBRANCH  20  21
ENDBRANCH  18  20
ENDBRANCH   1  17
TORSDOF 3
ENDMDL
MODEL 4
REMARK VINA RESULT:      -8.1      3.443      5.183
REMARK  Name = 
REMARK  3 active torsions:
REMARK  status: ('A' for Active; 'I' for Inactive)
REMARK    1  A    between atoms: C_2  and  C_12
REMARK    2  A    between atoms: N_3  and  C_4
REMARK    3  A    between atoms: C_4  and  C_5
REMARK                            x       y       z     vdW  Elec       q    Type
REMARK                         _______ _______ _______ _____ _____    ______ ____
ROOT
ATOM      1  C   UNL     1       0.280  10.045  18.737  0.00  0.00    +0.000 A 
ATOM      2  C   UNL     1       0.364  10.820  19.897  0.00  0.00    +0.000 A 
ATOM      3  C   UNL     1      -0.713  11.622  20.302  0.00  0.00    +0.000 A 
ATOM      4  C   UNL     1      -1.908  11.624  19.550  0.00  0.00    +0.000 A 
ATOM      5  N   UNL     1      -3.059  12.336  19.837  0.00  0.00    +0.000 NA
ATOM      6  C   UNL     1      -4.017  12.056  18.979  0.00  0.00    +0.000 A 
ATOM      7  N   UNL     1      -5.268  12.600  19.007  0.00  0.00    +0.000 N 
ATOM      8  C   UNL     1      -6.444  11.810  18.646  0.00  0.00    +0.000 C 
ATOM      9  C   UNL     1      -7.422  12.707  17.893  0.00  0.00    +0.000 C 
ATOM     10  C   UNL     1      -7.761  13.962  18.698  0.00  0.00    +0.000 C 
ATOM     11  C   UNL     1      -6.498  14.677  19.179  0.00  0.00    +0.000 C 
ATOM     12  C   UNL     1      -5.543  13.720  19.902  0.00  0.00    +0.000 C 
ATOM     13  S   UNL     1      -3.520  10.991  17.704  0.00  0.00    +0.000 S 
ATOM     14  C   UNL     1      -1.969  10.831  18.407  0.00  0.00    +0.000 A 
ATOM     15  C   UNL     1      -0.893  10.041  17.971  0.00  0.00    +0.000 A 
ENDROOT
BRANCH   1  17
ATOM     16  O   UNL     1       2.055   9.391  17.335  0.00  0.00    +0.000 OA
ATOM     17  C   UNL     1       1.432   9.176  18.367  0.00  0.00    +0.000 C 
ATOM     18  N   UNL     1       1.720   8.142  19.231  0.00  0.00    +0.000 N 
ATOM     19  H   UNL     1       1.036   7.866  19.923  0.00  0.00    +0.000 HD
BRANCH  18  20
ATOM     20  C   UNL     1       2.787   7.214  18.942  0.00  0.00    +0.000 C 
BRANCH  20  21
ATOM     21  C   UNL     1       2.372   5.801  19.262  0.00  0.00    +0.000 A 
ATOM     22  C   UNL     1       1.762   5.486  20.485  0.00  0.00    +0.000 A 
ATOM     23  C   UNL     1       1.376   4.173  20.768  0.00  0.00    +0.000 A 
ATOM     24  C   UNL     1       1.604   3.161  19.835  0.00  0.00    +0.000 A 
ATOM     25  C   UNL     1       2.226   3.464  18.626  0.00  0.00    +0.000 A 
ATOM     26 CL   UNL     1       2.512   2.215  17.477  0.00  0.00    +0.000 Cl
ATOM     27  C   UNL     1       2.616   4.772  18.339  0.00  0.00    +0.000 A 
ENDBRANCH  20  21
ENDBRANCH  18  20
ENDBRANCH   1  17
TORSDOF 3
ENDMDL
MODEL 5
REMARK VINA RESULT:      -8.0      3.575      4.570
REMARK  Name = 
REMARK  3 active torsions:
REMARK  status: ('A' for Active; 'I' for Inactive)
REMARK    1  A    between atoms: C_2  and  C_12
REMARK    2  A    between atoms: N_3  and  C_4
REMARK    3  A    between atoms: C_4  and  C_5
REMARK                            x       y       z     vdW  Elec       q    Type
REMARK                         _______ _______ _______ _____ _____    ______ ____
ROOT
ATOM      1  C   UNL     1       0.621   9.724  19.002  0.00  0.00    +0.000 A 
ATOM      2  C   UNL     1      -0.299  10.221  18.076  0.00  0.00    +0.000 A 
ATOM      3  C   UNL     1      -1.286  11.138  18.467  0.00  0.00    +0.000 A 
ATOM      4  C   UNL     1      -1.334  11.589  19.804  0.00  0.00    +0.000 A 
ATOM      5  N   UNL     1      -2.225  12.507  20.332  0.00  0.00    +0.000 NA
ATOM      6  C   UNL     1      -1.949  12.767  21.592  0.00  0.00    +0.000 A 
ATOM      7  N   UNL     1      -2.650  13.634  22.377  0.00  0.00    +0.000 N 
ATOM      8  C   UNL     1      -1.976  14.466  23.373  0.00  0.00    +0.000 C 
ATOM      9  C   UNL     1      -2.871  14.577  24.604  0.00  0.00    +0.000 C 
ATOM     10  C   UNL     1      -4.265  15.086  24.234  0.00  0.00    +0.000 C 
ATOM     11  C   UNL     1      -4.873  14.277  23.087  0.00  0.00    +0.000 C 
ATOM     12  C   UNL     1      -3.916  14.177  21.894  0.00  0.00    +0.000 C 
ATOM     13  S   UNL     1      -0.651  11.811  22.232  0.00  0.00    +0.000 S 
ATOM     14  C   UNL     1      -0.396  11.087  20.703  0.00  0.00    +0.000 A 
ATOM     15  C   UNL     1       0.584  10.150  20.336  0.00  0.00    +0.000 A 
ENDROOT
BRANCH   1  17
ATOM     16  O   UNL     1       2.184   8.934  17.428  0.00  0.00    +0.000 OA
ATOM     17  C   UNL     1       1.678   8.785  18.534  0.00  0.00    +0.000 C 
ATOM     18  N   UNL     1       2.016   7.765  19.397  0.00  0.00    +0.000 N 
ATOM     19  H   UNL     1       1.405   7.547  20.173  0.00  0.00    +0.000 HD
BRANCH  18  20
ATOM     20  C   UNL     1       2.995   6.774  19.021  0.00  0.00    +0.000 C 
BRANCH  20  21
ATOM     21  C   UNL     1       2.397   5.391  19.042  0.00  0.00    +0.000 A 
ATOM     22  C   UNL     1       2.076   4.724  17.850  0.00  0.00    +0.000 A 
ATOM     23  C   UNL     1       1.527   3.440  17.882  0.00  0.00    +0.000 A 
ATOM     24  C   UNL     1       1.286   2.813  19.104  0.00  0.00    +0.000 A 
ATOM     25  C   UNL     1       1.585   3.476  20.292  0.00  0.00    +0.000 A 
ATOM     26 CL   UNL     1       1.283   2.705  21.800  0.00  0.00    +0.000 Cl
ATOM     27  C   UNL     1       2.130   4.759  20.267  0.00  0.00    +0.000 A 
ENDBRANCH  20  21
ENDBRANCH  18  20
ENDBRANCH   1  17
TORSDOF 3
ENDMDL
MODEL 6
REMARK VINA RESULT:      -8.0      3.307      4.468
REMARK  Name = 
REMARK  3 active torsions:
REMARK  status: ('A' for Active; 'I' for Inactive)
REMARK    1  A    between atoms: C_2  and  C_12
REMARK    2  A    between atoms: N_3  and  C_4
REMARK    3  A    between atoms: C_4  and  C_5
REMARK                            x       y       z     vdW  Elec       q    Type
REMARK                         _______ _______ _______ _____ _____    ______ ____
ROOT
ATOM      1  C   UNL     1       1.006   9.350  19.728  0.00  0.00    +0.000 A 
ATOM      2  C   UNL     1       1.122   8.994  21.074  0.00  0.00    +0.000 A 
ATOM      3  C   UNL     1       0.375   9.659  22.058  0.00  0.00    +0.000 A 
ATOM      4  C   UNL     1      -0.528  10.677  21.684  0.00  0.00    +0.000 A 
ATOM      5  N   UNL     1      -1.351  11.399  22.532  0.00  0.00    +0.000 NA
ATOM      6  C   UNL     1      -2.127  12.219  21.855  0.00  0.00    +0.000 A 
ATOM      7  N   UNL     1      -3.045  13.058  22.415  0.00  0.00    +0.000 N 
ATOM      8  C   UNL     1      -4.323  13.327  21.758  0.00  0.00    +0.000 C 
ATOM      9  C   UNL     1      -4.689  14.791  21.983  0.00  0.00    +0.000 C 
ATOM     10  C   UNL     1      -4.689  15.143  23.471  0.00  0.00    +0.000 C 
ATOM     11  C   UNL     1      -3.388  14.711  24.150  0.00  0.00    +0.000 C 
ATOM     12  C   UNL     1      -3.060  13.241  23.864  0.00  0.00    +0.000 C 
ATOM     13  S   UNL     1      -1.809  12.232  20.151  0.00  0.00    +0.000 S 
ATOM     14  C   UNL     1      -0.635  11.001  20.334  0.00  0.00    +0.000 A 
ATOM     15  C   UNL     1       0.123  10.365  19.337  0.00  0.00    +0.000 A 
ENDROOT
BRANCH   1  17
ATOM     16  O   UNL     1       2.019   9.089  17.619  0.00  0.00    +0.000 OA
ATOM     17  C   UNL     1       1.786   8.589  18.713  0.00  0.00    +0.000 C 
ATOM     18  N   UNL     1       2.194   7.325  19.077  0.00  0.00    +0.000 N 
ATOM     19  H   UNL     1       1.771   6.877  19.879  0.00  0.00    +0.000 HD
BRANCH  18  20
ATOM     20  C   UNL     1       2.916   6.486  18.150  0.00  0.00    +0.000 C 
BRANCH  20  21
ATOM     21  C   UNL     1       2.607   5.031  18.387  0.00  0.00    +0.000 A 
ATOM     22  C   UNL     1       2.788   4.079  17.372  0.00  0.00    +0.000 A 
ATOM     23  C   UNL     1       2.503   2.731  17.606  0.00  0.00    +0.000 A 
ATOM     24  C   UNL     1       2.029   2.323  18.853  0.00  0.00    +0.000 A 
ATOM     25  C   UNL     1       1.831   3.265  19.859  0.00  0.00    +0.000 A 
ATOM     26 CL   UNL     1       1.240   2.762  21.395  0.00  0.00    +0.000 Cl
ATOM     27  C   UNL     1       2.110   4.612  19.631  0.00  0.00    +0.000 A 
ENDBRANCH  20  21
ENDBRANCH  18  20
ENDBRANCH   1  17
TORSDOF 3
ENDMDL
MODEL 7
REMARK VINA RESULT:      -8.0      0.965      1.368
REMARK  Name = 
REMARK  3 active torsions:
REMARK  status: ('A' for Active; 'I' for Inactive)
REMARK    1  A    between atoms: C_2  and  C_12
REMARK    2  A    between atoms: N_3  and  C_4
REMARK    3  A    between atoms: C_4  and  C_5
REMARK                            x       y       z     vdW  Elec       q    Type
REMARK                         _______ _______ _______ _____ _____    ______ ____
ROOT
ATOM      1  C   UNL     1       2.835   7.209  18.735  0.00  0.00    +0.000 A 
ATOM      2  C   UNL     1       2.734   8.158  17.715  0.00  0.00    +0.000 A 
ATOM      3  C   UNL     1       1.898   9.276  17.855  0.00  0.00    +0.000 A 
ATOM      4  C   UNL     1       1.174   9.463  19.052  0.00  0.00    +0.000 A 
ATOM      5  N   UNL     1       0.336  10.525  19.349  0.00  0.00    +0.000 NA
ATOM      6  C   UNL     1      -0.123  10.437  20.580  0.00  0.00    +0.000 A 
ATOM      7  N   UNL     1      -0.969  11.337  21.158  0.00  0.00    +0.000 N 
ATOM      8  C   UNL     1      -0.851  11.683  22.574  0.00  0.00    +0.000 C 
ATOM      9  C   UNL     1      -2.252  11.876  23.148  0.00  0.00    +0.000 C 
ATOM     10  C   UNL     1      -3.048  12.902  22.340  0.00  0.00    +0.000 C 
ATOM     11  C   UNL     1      -3.022  12.581  20.844  0.00  0.00    +0.000 C 
ATOM     12  C   UNL     1      -1.591  12.369  20.334  0.00  0.00    +0.000 C 
ATOM     13  S   UNL     1       0.355   8.986  21.400  0.00  0.00    +0.000 S 
ATOM     14  C   UNL     1       1.304   8.510  20.058  0.00  0.00    +0.000 A 
ATOM     15  C   UNL     1       2.116   7.371  19.927  0.00  0.00    +0.000 A 
ENDROOT
BRANCH   1  17
ATOM     16  O   UNL     1       3.460   4.953  18.985  0.00  0.00    +0.000 OA
ATOM     17  C   UNL     1       3.766   6.060  18.560  0.00  0.00    +0.000 C 
ATOM     18  N   UNL     1       4.959   6.331  17.926  0.00  0.00    +0.000 N 
ATOM     19  H   UNL     1       5.260   7.291  17.820  0.00  0.00    +0.000 HD
BRANCH  18  20
ATOM     20  C   UNL     1       5.952   5.299  17.747  0.00  0.00    +0.000 C 
BRANCH  20  21
ATOM     21  C   UNL     1       6.023   4.864  16.306  0.00  0.00    +0.000 A 
ATOM     22  C   UNL     1       5.097   3.950  15.781  0.00  0.00    +0.000 A 
ATOM     23  C   UNL     1       5.170   3.558  14.441  0.00  0.00    +0.000 A 
ATOM     24  C   UNL     1       6.173   4.069  13.617  0.00  0.00    +0.000 A 
ATOM     25  C   UNL     1       7.106   4.963  14.137  0.00  0.00    +0.000 A 
ATOM     26 CL   UNL     1       8.347   5.589  13.122  0.00  0.00    +0.000 Cl
ATOM     27  C   UNL     1       7.041   5.355  15.474  0.00  0.00    +0.000 A 
ENDBRANCH  20  21
ENDBRANCH  18  20
ENDBRANCH   1  17
TORSDOF 3
ENDMDL
MODEL 8
REMARK VINA RESULT:      -7.9      3.076      4.228
REMARK  Name = 
REMARK  3 active torsions:
REMARK  status: ('A' for Active; 'I' for Inactive)
REMARK    1  A    between atoms: C_2  and  C_12
REMARK    2  A    between atoms: N_3  and  C_4
REMARK    3  A    between atoms: C_4  and  C_5
REMARK                            x       y       z     vdW  Elec       q    Type
REMARK                         _______ _______ _______ _____ _____    ______ ____
ROOT
ATOM      1  C   UNL     1       0.677   9.605  18.950  0.00  0.00    +0.000 A 
ATOM      2  C   UNL     1      -0.245  10.081  18.015  0.00  0.00    +0.000 A 
ATOM      3  C   UNL     1      -1.251  10.982  18.395  0.00  0.00    +0.000 A 
ATOM      4  C   UNL     1      -1.315  11.440  19.728  0.00  0.00    +0.000 A 
ATOM      5  N   UNL     1      -2.226  12.345  20.245  0.00  0.00    +0.000 NA
ATOM      6  C   UNL     1      -1.963  12.617  21.506  0.00  0.00    +0.000 A 
ATOM      7  N   UNL     1      -2.684  13.476  22.281  0.00  0.00    +0.000 N 
ATOM      8  C   UNL     1      -2.032  14.325  23.276  0.00  0.00    +0.000 C 
ATOM      9  C   UNL     1      -2.938  14.427  24.500  0.00  0.00    +0.000 C 
ATOM     10  C   UNL     1      -4.338  14.910  24.119  0.00  0.00    +0.000 C 
ATOM     11  C   UNL     1      -4.923  14.083  22.973  0.00  0.00    +0.000 C 
ATOM     12  C   UNL     1      -3.957  13.994  21.786  0.00  0.00    +0.000 C 
ATOM     13  S   UNL     1      -0.653  11.688  22.159  0.00  0.00    +0.000 S 
ATOM     14  C   UNL     1      -0.375  10.960  20.636  0.00  0.00    +0.000 A 
ATOM     15  C   UNL     1       0.624  10.039  20.281  0.00  0.00    +0.000 A 
ENDROOT
BRANCH   1  17
ATOM     16  O   UNL     1       2.314   8.877  17.422  0.00  0.00    +0.000 OA
ATOM     17  C   UNL     1       1.754   8.683  18.494  0.00  0.00    +0.000 C 
ATOM     18  N   UNL     1       2.047   7.626  19.328  0.00  0.00    +0.000 N 
ATOM     19  H   UNL     1       1.399   7.378  20.064  0.00  0.00    +0.000 HD
BRANCH  18  20
ATOM     20  C   UNL     1       3.042   6.647  18.959  0.00  0.00    +0.000 C 
BRANCH  20  21
ATOM     21  C   UNL     1       2.606   5.260  19.356  0.00  0.00    +0.000 A 
ATOM     22  C   UNL     1       1.633   5.066  20.347  0.00  0.00    +0.000 A 
ATOM     23  C   UNL     1       1.233   3.775  20.704  0.00  0.00    +0.000 A 
ATOM     24  C   UNL     1       1.807   2.667  20.079  0.00  0.00    +0.000 A 
ATOM     25  C   UNL     1       2.786   2.854  19.107  0.00  0.00    +0.000 A 
ATOM     26 CL   UNL     1       3.499   1.487  18.340  0.00  0.00    +0.000 Cl
ATOM     27  C   UNL     1       3.192   4.139  18.749  0.00  0.00    +0.000 A 
ENDBRANCH  20  21
ENDBRANCH  18  20
ENDBRANCH   1  17
TORSDOF 3
ENDMDL
MODEL 9
REMARK VINA RESULT:      -7.9      3.873     10.194
REMARK  Name = 
REMARK  3 active torsions:
REMARK  status: ('A' for Active; 'I' for Inactive)
REMARK    1  A    between atoms: C_2  and  C_12
REMARK    2  A    between atoms: N_3  and  C_4
REMARK    3  A    between atoms: C_4  and  C_5
REMARK                            x       y       z     vdW  Elec       q    Type
REMARK                         _______ _______ _______ _____ _____    ______ ____
ROOT
ATOM      1  C   UNL     1       0.139  10.117  20.689  0.00  0.00    +0.000 A 
ATOM      2  C   UNL     1       0.278   9.091  21.626  0.00  0.00    +0.000 A 
ATOM      3  C   UNL     1       1.033   7.946  21.329  0.00  0.00    +0.000 A 
ATOM      4  C   UNL     1       1.687   7.842  20.082  0.00  0.00    +0.000 A 
ATOM      5  N   UNL     1       2.487   6.795  19.657  0.00  0.00    +0.000 NA
ATOM      6  C   UNL     1       3.008   7.045  18.475  0.00  0.00    +0.000 A 
ATOM      7  N   UNL     1       3.839   6.201  17.799  0.00  0.00    +0.000 N 
ATOM      8  C   UNL     1       4.946   6.715  16.994  0.00  0.00    +0.000 C 
ATOM      9  C   UNL     1       5.085   5.848  15.746  0.00  0.00    +0.000 C 
ATOM     10  C   UNL     1       5.237   4.370  16.108  0.00  0.00    +0.000 C 
ATOM     11  C   UNL     1       4.139   3.913  17.069  0.00  0.00    +0.000 C 
ATOM     12  C   UNL     1       4.029   4.838  18.287  0.00  0.00    +0.000 C 
ATOM     13  S   UNL     1       2.452   8.528  17.768  0.00  0.00    +0.000 S 
ATOM     14  C   UNL     1       1.543   8.887  19.173  0.00  0.00    +0.000 A 
ATOM     15  C   UNL     1       0.771  10.029  19.442  0.00  0.00    +0.000 A 
ENDROOT
BRANCH   1  17
ATOM     16  O   UNL     1      -0.672  11.703  22.229  0.00  0.00    +0.000 OA
ATOM     17  C   UNL     1      -0.637  11.332  21.062  0.00  0.00    +0.000 C 
ATOM     18  N   UNL     1      -1.301  11.972  20.038  0.00  0.00    +0.000 N 
ATOM     19  H   UNL     1      -1.438  11.493  19.158  0.00  0.00    +0.000 HD
BRANCH  18  20
ATOM     20  C   UNL     1      -2.119  13.132  20.300  0.00  0.00    +0.000 C 
BRANCH  20  21
ATOM     21  C   UNL     1      -3.575  12.755  20.388  0.00  0.00    +0.000 A 
ATOM     22  C   UNL     1      -4.303  12.958  21.570  0.00  0.00    +0.000 A 
ATOM     23  C   UNL     1      -5.655  12.609  21.639  0.00  0.00    +0.000 A 
ATOM     24  C   UNL     1      -6.289  12.047  20.531  0.00  0.00    +0.000 A 
ATOM     25  C   UNL     1      -5.568  11.826  19.361  0.00  0.00    +0.000 A 
ATOM     26 CL   UNL     1      -6.348  11.127  17.995  0.00  0.00    +0.000 Cl
ATOM     27  C   UNL     1      -4.218  12.169  19.287  0.00  0.00    +0.000 A 
ENDBRANCH  20  21
ENDBRANCH  18  20
ENDBRANCH   1  17
TORSDOF 3
ENDMDL
