MODEL 1
REMARK VINA RESULT:      -8.5      0.000      0.000
REMARK  Name = 
REMARK  12 active torsions:
REMARK  status: ('A' for Active; 'I' for Inactive)
REMARK    1  A    between atoms: N_1  and  C_2
REMARK    2  A    between atoms: C_4  and  C_5
REMARK    3  A    between atoms: C_9  and  O_10
REMARK    4  A    between atoms: O_10  and  C_11
REMARK    5  A    between atoms: C_11  and  C_12
REMARK    6  A    between atoms: C_12  and  C_13
REMARK    7  A    between atoms: C_13  and  C_14
REMARK    8  A    between atoms: C_14  and  N_15
REMARK    9  A    between atoms: C_14  and  C_24
REMARK   10  A    between atoms: C_16  and  C_18
REMARK   11  A    between atoms: N_26  and  C_27
REMARK   12  A    between atoms: C_27  and  C_28
REMARK                            x       y       z     vdW  Elec       q    Type
REMARK                         _______ _______ _______ _____ _____    ______ ____
ROOT
ATOM      1  C   UNL     1       6.353   5.286  16.592  0.00  0.00    +0.000 C 
ENDROOT
BRANCH   1   2
ATOM      2  N   UNL     1       6.059   4.523  15.377  0.00  0.00    +0.000 N 
ATOM      3  C   UNL     1       6.757   4.687  14.207  0.00  0.00    +0.000 C 
ATOM      4  O   UNL     1       7.744   5.404  14.104  0.00  0.00    +0.000 OA
ATOM      5  H   UNL     1       5.503   3.683  15.475  0.00  0.00    +0.000 HD
BRANCH   3   6
ATOM      6  C   UNL     1       6.293   3.847  13.073  0.00  0.00    +0.000 A 
ATOM      7  C   UNL     1       4.935   3.769  12.740  0.00  0.00    +0.000 A 
ATOM      8  C   UNL     1       4.516   2.921  11.715  0.00  0.00    +0.000 A 
ATOM      9  C   UNL     1       5.455   2.164  11.014  0.00  0.00    +0.000 A 
ATOM     10  C   UNL     1       6.812   2.265  11.322  0.00  0.00    +0.000 A 
ATOM     11  C   UNL     1       7.236   3.112  12.346  0.00  0.00    +0.000 A 
ENDBRANCH   3   6
ENDBRANCH   1   2
BRANCH   1  12
ATOM     12  C   UNL     1       6.149   4.474  17.899  0.00  0.00    +0.000 C 
ATOM     13  O   UNL     1       6.914   4.568  18.856  0.00  0.00    +0.000 OA
ATOM     14  N   UNL     1       5.074   3.613  17.893  0.00  0.00    +0.000 N 
ATOM     15  H   UNL     1       4.760   3.293  16.982  0.00  0.00    +0.000 HD
BRANCH  14  16
ATOM     16  C   UNL     1       4.714   2.824  19.049  0.00  0.00    +0.000 C 
BRANCH  16  17
ATOM     17  C   UNL     1       3.270   2.997  19.428  0.00  0.00    +0.000 A 
ATOM     18  C   UNL     1       2.265   2.765  18.479  0.00  0.00    +0.000 A 
ATOM     19  C   UNL     1       0.919   2.949  18.809  0.00  0.00    +0.000 A 
ATOM     20  C   UNL     1       0.573   3.367  20.092  0.00  0.00    +0.000 A 
ATOM     21  C   UNL     1       1.565   3.605  21.043  0.00  0.00    +0.000 A 
ATOM     22  C   UNL     1       2.909   3.424  20.710  0.00  0.00    +0.000 A 
ENDBRANCH  16  17
ENDBRANCH  14  16
ENDBRANCH   1  12
BRANCH   1  23
ATOM     23  C   UNL     1       5.557   6.614  16.580  0.00  0.00    +0.000 C 
BRANCH  23  24
ATOM     24  C   UNL     1       4.763   6.966  17.856  0.00  0.00    +0.000 C 
BRANCH  24  25
ATOM     25  C   UNL     1       3.278   6.644  17.747  0.00  0.00    +0.000 C 
BRANCH  25  26
ATOM     26  O   UNL     1       2.701   6.437  19.034  0.00  0.00    +0.000 OA
BRANCH  26  31
ATOM     27  C   UNL     1       1.087   9.800  19.368  0.00  0.00    +0.000 A 
ATOM     28  C   UNL     1       0.637   9.653  20.689  0.00  0.00    +0.000 A 
ATOM     29  C   UNL     1       0.879   8.482  21.413  0.00  0.00    +0.000 A 
ATOM     30  C   UNL     1       1.580   7.430  20.829  0.00  0.00    +0.000 A 
ATOM     31  C   UNL     1       2.017   7.531  19.511  0.00  0.00    +0.000 A 
ATOM     32  C   UNL     1       1.772   8.714  18.798  0.00  0.00    +0.000 A 
BRANCH  27  35
ATOM     33  C   UNL     1       1.945  12.203  18.718  0.00  0.00    +0.000 C 
ATOM     34  C   UNL     1       0.593  12.379  19.338  0.00  0.00    +0.000 C 
ATOM     35  C   UNL     1       0.919  11.097  18.605  0.00  0.00    +0.000 C 
BRANCH  33  36
ATOM     36  N   UNL     1       2.305  12.960  17.517  0.00  0.00    +0.000 NA
ATOM     37  H   UNL     1       1.916  13.902  17.554  0.00  0.00    +0.000 HD
ATOM     38  H   UNL     1       1.917  12.534  16.676  0.00  0.00    +0.000 HD
ENDBRANCH  33  36
ENDBRANCH  27  35
ENDBRANCH  26  31
ENDBRANCH  25  26
ENDBRANCH  24  25
ENDBRANCH  23  24
ENDBRANCH   1  23
TORSDOF 12
ENDMDL
MODEL 2
REMARK VINA RESULT:      -8.4      1.175      1.504
REMARK  Name = 
REMARK  12 active torsions:
REMARK  status: ('A' for Active; 'I' for Inactive)
REMARK    1  A    between atoms: N_1  and  C_2
REMARK    2  A    between atoms: C_4  and  C_5
REMARK    3  A    between atoms: C_9  and  O_10
REMARK    4  A    between atoms: O_10  and  C_11
REMARK    5  A    between atoms: C_11  and  C_12
REMARK    6  A    between atoms: C_12  and  C_13
REMARK    7  A    between atoms: C_13  and  C_14
REMARK    8  A    between atoms: C_14  and  N_15
REMARK    9  A    between atoms: C_14  and  C_24
REMARK   10  A    between atoms: C_16  and  C_18
REMARK   11  A    between atoms: N_26  and  C_27
REMARK   12  A    between atoms: C_27  and  C_28
REMARK                            x       y       z     vdW  Elec       q    Type
REMARK                         _______ _______ _______ _____ _____    ______ ____
ROOT
ATOM      1  C   UNL     1       6.392   5.361  16.959  0.00  0.00    +0.000 C 
ENDROOT
BRANCH   1   2
ATOM      2  N   UNL     1       6.080   4.670  15.707  0.00  0.00    +0.000 N 
ATOM      3  C   UNL     1       6.827   4.821  14.566  0.00  0.00    +0.000 C 
ATOM      4  O   UNL     1       7.872   5.458  14.522  0.00  0.00    +0.000 OA
ATOM      5  H   UNL     1       5.456   3.875  15.754  0.00  0.00    +0.000 HD
BRANCH   3   6
ATOM      6  C   UNL     1       6.337   4.063  13.385  0.00  0.00    +0.000 A 
ATOM      7  C   UNL     1       4.965   3.914  13.143  0.00  0.00    +0.000 A 
ATOM      8  C   UNL     1       4.529   3.142  12.067  0.00  0.00    +0.000 A 
ATOM      9  C   UNL     1       5.460   2.532  11.227  0.00  0.00    +0.000 A 
ATOM     10  C   UNL     1       6.827   2.706  11.448  0.00  0.00    +0.000 A 
ATOM     11  C   UNL     1       7.269   3.478  12.522  0.00  0.00    +0.000 A 
ENDBRANCH   3   6
ENDBRANCH   1   2
BRANCH   1  12
ATOM     12  C   UNL     1       6.045   4.535  18.227  0.00  0.00    +0.000 C 
ATOM     13  O   UNL     1       6.530   4.788  19.328  0.00  0.00    +0.000 OA
ATOM     14  N   UNL     1       5.187   3.477  18.021  0.00  0.00    +0.000 N 
ATOM     15  H   UNL     1       5.165   3.094  17.081  0.00  0.00    +0.000 HD
BRANCH  14  16
ATOM     16  C   UNL     1       4.723   2.641  19.105  0.00  0.00    +0.000 C 
BRANCH  16  17
ATOM     17  C   UNL     1       3.354   3.038  19.582  0.00  0.00    +0.000 A 
ATOM     18  C   UNL     1       2.959   2.745  20.895  0.00  0.00    +0.000 A 
ATOM     19  C   UNL     1       1.679   3.083  21.344  0.00  0.00    +0.000 A 
ATOM     20  C   UNL     1       0.788   3.716  20.481  0.00  0.00    +0.000 A 
ATOM     21  C   UNL     1       1.169   4.008  19.171  0.00  0.00    +0.000 A 
ATOM     22  C   UNL     1       2.447   3.666  18.722  0.00  0.00    +0.000 A 
ENDBRANCH  16  17
ENDBRANCH  14  16
ENDBRANCH   1  12
BRANCH   1  23
ATOM     23  C   UNL     1       5.737   6.764  16.959  0.00  0.00    +0.000 C 
BRANCH  23  24
ATOM     24  C   UNL     1       4.198   6.817  16.863  0.00  0.00    +0.000 C 
BRANCH  24  25
ATOM     25  C   UNL     1       3.537   7.370  18.120  0.00  0.00    +0.000 C 
BRANCH  25  26
ATOM     26  O   UNL     1       2.723   8.501  17.819  0.00  0.00    +0.000 OA
BRANCH  26  31
ATOM     27  C   UNL     1      -0.103  10.011  19.758  0.00  0.00    +0.000 A 
ATOM     28  C   UNL     1       0.033   9.227  20.913  0.00  0.00    +0.000 A 
ATOM     29  C   UNL     1       1.031   8.253  21.017  0.00  0.00    +0.000 A 
ATOM     30  C   UNL     1       1.918   8.044  19.965  0.00  0.00    +0.000 A 
ATOM     31  C   UNL     1       1.795   8.784  18.793  0.00  0.00    +0.000 A 
ATOM     32  C   UNL     1       0.793   9.762  18.703  0.00  0.00    +0.000 A 
BRANCH  27  35
ATOM     33  C   UNL     1      -0.706  12.569  19.923  0.00  0.00    +0.000 C 
ATOM     34  C   UNL     1      -1.571  11.854  20.915  0.00  0.00    +0.000 C 
ATOM     35  C   UNL     1      -1.114  11.134  19.667  0.00  0.00    +0.000 C 
BRANCH  33  36
ATOM     36  N   UNL     1      -1.273  13.627  19.084  0.00  0.00    +0.000 NA
ATOM     37  H   UNL     1      -2.292  13.604  19.113  0.00  0.00    +0.000 HD
ATOM     38  H   UNL     1      -1.022  13.501  18.103  0.00  0.00    +0.000 HD
ENDBRANCH  33  36
ENDBRANCH  27  35
ENDBRANCH  26  31
ENDBRANCH  25  26
ENDBRANCH  24  25
ENDBRANCH  23  24
ENDBRANCH   1  23
TORSDOF 12
ENDMDL
MODEL 3
REMARK VINA RESULT:      -8.4      5.002      5.898
REMARK  Name = 
REMARK  12 active torsions:
REMARK  status: ('A' for Active; 'I' for Inactive)
REMARK    1  A    between atoms: N_1  and  C_2
REMARK    2  A    between atoms: C_4  and  C_5
REMARK    3  A    between atoms: C_9  and  O_10
REMARK    4  A    between atoms: O_10  and  C_11
REMARK    5  A    between atoms: C_11  and  C_12
REMARK    6  A    between atoms: C_12  and  C_13
REMARK    7  A    between atoms: C_13  and  C_14
REMARK    8  A    between atoms: C_14  and  N_15
REMARK    9  A    between atoms: C_14  and  C_24
REMARK   10  A    between atoms: C_16  and  C_18
REMARK   11  A    between atoms: N_26  and  C_27
REMARK   12  A    between atoms: C_27  and  C_28
REMARK                            x       y       z     vdW  Elec       q    Type
REMARK                         _______ _______ _______ _____ _____    ______ ____
ROOT
ATOM      1  C   UNL     1       6.616   5.821  17.724  0.00  0.00    +0.000 C 
ENDROOT
BRANCH   1   2
ATOM      2  N   UNL     1       6.776   5.552  16.294  0.00  0.00    +0.000 N 
ATOM      3  C   UNL     1       6.156   4.505  15.660  0.00  0.00    +0.000 C 
ATOM      4  O   UNL     1       5.341   3.771  16.205  0.00  0.00    +0.000 OA
ATOM      5  H   UNL     1       7.143   6.296  15.716  0.00  0.00    +0.000 HD
BRANCH   3   6
ATOM      6  C   UNL     1       6.463   4.374  14.211  0.00  0.00    +0.000 A 
ATOM      7  C   UNL     1       5.771   3.459  13.408  0.00  0.00    +0.000 A 
ATOM      8  C   UNL     1       6.123   3.305  12.067  0.00  0.00    +0.000 A 
ATOM      9  C   UNL     1       7.153   4.074  11.527  0.00  0.00    +0.000 A 
ATOM     10  C   UNL     1       7.822   5.009  12.318  0.00  0.00    +0.000 A 
ATOM     11  C   UNL     1       7.474   5.167  13.660  0.00  0.00    +0.000 A 
ENDBRANCH   3   6
ENDBRANCH   1   2
BRANCH   1  12
ATOM     12  C   UNL     1       5.196   6.317  18.108  0.00  0.00    +0.000 C 
ATOM     13  O   UNL     1       4.659   7.268  17.544  0.00  0.00    +0.000 OA
ATOM     14  N   UNL     1       4.600   5.640  19.149  0.00  0.00    +0.000 N 
ATOM     15  H   UNL     1       5.226   5.179  19.802  0.00  0.00    +0.000 HD
BRANCH  14  16
ATOM     16  C   UNL     1       3.258   5.942  19.594  0.00  0.00    +0.000 C 
BRANCH  16  17
ATOM     17  C   UNL     1       2.402   4.711  19.695  0.00  0.00    +0.000 A 
ATOM     18  C   UNL     1       2.085   4.180  20.953  0.00  0.00    +0.000 A 
ATOM     19  C   UNL     1       1.313   3.020  21.062  0.00  0.00    +0.000 A 
ATOM     20  C   UNL     1       0.855   2.384  19.910  0.00  0.00    +0.000 A 
ATOM     21  C   UNL     1       1.168   2.901  18.653  0.00  0.00    +0.000 A 
ATOM     22  C   UNL     1       1.943   4.058  18.546  0.00  0.00    +0.000 A 
ENDBRANCH  16  17
ENDBRANCH  14  16
ENDBRANCH   1  12
BRANCH   1  23
ATOM     23  C   UNL     1       7.735   6.778  18.203  0.00  0.00    +0.000 C 
BRANCH  23  24
ATOM     24  C   UNL     1       7.728   8.209  17.624  0.00  0.00    +0.000 C 
BRANCH  24  25
ATOM     25  C   UNL     1       8.681   9.153  18.348  0.00  0.00    +0.000 C 
BRANCH  25  26
ATOM     26  O   UNL     1       8.448  10.507  17.968  0.00  0.00    +0.000 OA
BRANCH  26  31
ATOM     27  C   UNL     1      10.328  13.544  19.095  0.00  0.00    +0.000 A 
ATOM     28  C   UNL     1      10.633  13.096  20.390  0.00  0.00    +0.000 A 
ATOM     29  C   UNL     1      10.226  11.836  20.837  0.00  0.00    +0.000 A 
ATOM     30  C   UNL     1       9.503  10.994  19.996  0.00  0.00    +0.000 A 
ATOM     31  C   UNL     1       9.158  11.417  18.716  0.00  0.00    +0.000 A 
ATOM     32  C   UNL     1       9.579  12.681  18.276  0.00  0.00    +0.000 A 
BRANCH  27  35
ATOM     33  C   UNL     1      11.047  15.076  17.078  0.00  0.00    +0.000 C 
ATOM     34  C   UNL     1      12.237  14.961  17.981  0.00  0.00    +0.000 C 
ATOM     35  C   UNL     1      10.845  14.864  18.562  0.00  0.00    +0.000 C 
BRANCH  33  36
ATOM     36  N   UNL     1      10.693  16.371  16.493  0.00  0.00    +0.000 NA
ATOM     37  H   UNL     1       9.848  16.744  16.925  0.00  0.00    +0.000 HD
ATOM     38  H   UNL     1      10.481  16.287  15.499  0.00  0.00    +0.000 HD
ENDBRANCH  33  36
ENDBRANCH  27  35
ENDBRANCH  26  31
ENDBRANCH  25  26
ENDBRANCH  24  25
ENDBRANCH  23  24
ENDBRANCH   1  23
TORSDOF 12
ENDMDL
MODEL 4
REMARK VINA RESULT:      -8.4      4.235      8.318
REMARK  Name = 
REMARK  12 active torsions:
REMARK  status: ('A' for Active; 'I' for Inactive)
REMARK    1  A    between atoms: N_1  and  C_2
REMARK    2  A    between atoms: C_4  and  C_5
REMARK    3  A    between atoms: C_9  and  O_10
REMARK    4  A    between atoms: O_10  and  C_11
REMARK    5  A    between atoms: C_11  and  C_12
REMARK    6  A    between atoms: C_12  and  C_13
REMARK    7  A    between atoms: C_13  and  C_14
REMARK    8  A    between atoms: C_14  and  N_15
REMARK    9  A    between atoms: C_14  and  C_24
REMARK   10  A    between atoms: C_16  and  C_18
REMARK   11  A    between atoms: N_26  and  C_27
REMARK   12  A    between atoms: C_27  and  C_28
REMARK                            x       y       z     vdW  Elec       q    Type
REMARK                         _______ _______ _______ _____ _____    ______ ____
ROOT
ATOM      1  C   UNL     1       1.163   9.378  19.583  0.00  0.00    +0.000 C 
ENDROOT
BRANCH   1   2
ATOM      2  N   UNL     1      -0.183   9.716  19.116  0.00  0.00    +0.000 N 
ATOM      3  C   UNL     1      -0.522  10.964  18.656  0.00  0.00    +0.000 C 
ATOM      4  O   UNL     1       0.289  11.868  18.499  0.00  0.00    +0.000 OA
ATOM      5  H   UNL     1      -0.806   8.951  18.890  0.00  0.00    +0.000 HD
BRANCH   3   6
ATOM      6  C   UNL     1      -1.944  11.125  18.256  0.00  0.00    +0.000 A 
ATOM      7  C   UNL     1      -2.405  10.640  17.025  0.00  0.00    +0.000 A 
ATOM      8  C   UNL     1      -3.727  10.863  16.641  0.00  0.00    +0.000 A 
ATOM      9  C   UNL     1      -4.590  11.555  17.491  0.00  0.00    +0.000 A 
ATOM     10  C   UNL     1      -4.141  12.010  18.731  0.00  0.00    +0.000 A 
ATOM     11  C   UNL     1      -2.819  11.789  19.120  0.00  0.00    +0.000 A 
ENDBRANCH   3   6
ENDBRANCH   1   2
BRANCH   1  12
ATOM     12  C   UNL     1       1.965   8.503  18.582  0.00  0.00    +0.000 C 
ATOM     13  O   UNL     1       2.251   8.894  17.452  0.00  0.00    +0.000 OA
ATOM     14  N   UNL     1       2.295   7.246  19.036  0.00  0.00    +0.000 N 
ATOM     15  H   UNL     1       1.700   6.861  19.764  0.00  0.00    +0.000 HD
BRANCH  14  16
ATOM     16  C   UNL     1       3.085   6.326  18.249  0.00  0.00    +0.000 C 
BRANCH  16  17
ATOM     17  C   UNL     1       2.578   4.915  18.346  0.00  0.00    +0.000 A 
ATOM     18  C   UNL     1       1.694   4.558  19.374  0.00  0.00    +0.000 A 
ATOM     19  C   UNL     1       1.235   3.243  19.493  0.00  0.00    +0.000 A 
ATOM     20  C   UNL     1       1.660   2.277  18.584  0.00  0.00    +0.000 A 
ATOM     21  C   UNL     1       2.543   2.620  17.559  0.00  0.00    +0.000 A 
ATOM     22  C   UNL     1       3.003   3.934  17.444  0.00  0.00    +0.000 A 
ENDBRANCH  16  17
ENDBRANCH  14  16
ENDBRANCH   1  12
BRANCH   1  23
ATOM     23  C   UNL     1       1.084   8.754  20.997  0.00  0.00    +0.000 C 
BRANCH  23  24
ATOM     24  C   UNL     1      -0.305   8.719  21.670  0.00  0.00    +0.000 C 
BRANCH  24  25
ATOM     25  C   UNL     1      -0.383   9.577  22.927  0.00  0.00    +0.000 C 
BRANCH  25  26
ATOM     26  O   UNL     1       0.223  10.850  22.719  0.00  0.00    +0.000 OA
BRANCH  26  31
ATOM     27  C   UNL     1      -2.880  12.947  22.730  0.00  0.00    +0.000 A 
ATOM     28  C   UNL     1      -2.378  14.016  21.972  0.00  0.00    +0.000 A 
ATOM     29  C   UNL     1      -1.067  14.008  21.487  0.00  0.00    +0.000 A 
ATOM     30  C   UNL     1      -0.228  12.929  21.749  0.00  0.00    +0.000 A 
ATOM     31  C   UNL     1      -0.684  11.865  22.522  0.00  0.00    +0.000 A 
ATOM     32  C   UNL     1      -2.004  11.881  22.998  0.00  0.00    +0.000 A 
BRANCH  27  35
ATOM     33  C   UNL     1      -4.850  13.856  24.221  0.00  0.00    +0.000 C 
ATOM     34  C   UNL     1      -4.678  12.409  24.566  0.00  0.00    +0.000 C 
ATOM     35  C   UNL     1      -4.325  12.894  23.178  0.00  0.00    +0.000 C 
BRANCH  33  36
ATOM     36  N   UNL     1      -6.193  14.416  24.057  0.00  0.00    +0.000 NA
ATOM     37  H   UNL     1      -6.650  14.531  24.961  0.00  0.00    +0.000 HD
ATOM     38  H   UNL     1      -6.796  13.791  23.521  0.00  0.00    +0.000 HD
ENDBRANCH  33  36
ENDBRANCH  27  35
ENDBRANCH  26  31
ENDBRANCH  25  26
ENDBRANCH  24  25
ENDBRANCH  23  24
ENDBRANCH   1  23
TORSDOF 12
ENDMDL
MODEL 5
REMARK VINA RESULT:      -8.4      4.715      7.900
REMARK  Name = 
REMARK  12 active torsions:
REMARK  status: ('A' for Active; 'I' for Inactive)
REMARK    1  A    between atoms: N_1  and  C_2
REMARK    2  A    between atoms: C_4  and  C_5
REMARK    3  A    between atoms: C_9  and  O_10
REMARK    4  A    between atoms: O_10  and  C_11
REMARK    5  A    between atoms: C_11  and  C_12
REMARK    6  A    between atoms: C_12  and  C_13
REMARK    7  A    between atoms: C_13  and  C_14
REMARK    8  A    between atoms: C_14  and  N_15
REMARK    9  A    between atoms: C_14  and  C_24
REMARK   10  A    between atoms: C_16  and  C_18
REMARK   11  A    between atoms: N_26  and  C_27
REMARK   12  A    between atoms: C_27  and  C_28
REMARK                            x       y       z     vdW  Elec       q    Type
REMARK                         _______ _______ _______ _____ _____    ______ ____
ROOT
ATOM      1  C   UNL     1       5.887   6.109  16.969  0.00  0.00    +0.000 C 
ENDROOT
BRANCH   1   2
ATOM      2  N   UNL     1       5.021   5.255  17.783  0.00  0.00    +0.000 N 
ATOM      3  C   UNL     1       3.782   5.652  18.222  0.00  0.00    +0.000 C 
ATOM      4  O   UNL     1       3.253   6.705  17.889  0.00  0.00    +0.000 OA
ATOM      5  H   UNL     1       5.229   4.265  17.808  0.00  0.00    +0.000 HD
BRANCH   3   6
ATOM      6  C   UNL     1       3.063   4.660  19.063  0.00  0.00    +0.000 A 
ATOM      7  C   UNL     1       3.649   3.430  19.388  0.00  0.00    +0.000 A 
ATOM      8  C   UNL     1       2.928   2.488  20.122  0.00  0.00    +0.000 A 
ATOM      9  C   UNL     1       1.631   2.780  20.541  0.00  0.00    +0.000 A 
ATOM     10  C   UNL     1       1.057   4.017  20.245  0.00  0.00    +0.000 A 
ATOM     11  C   UNL     1       1.774   4.963  19.513  0.00  0.00    +0.000 A 
ENDBRANCH   3   6
ENDBRANCH   1   2
BRANCH   1  12
ATOM     12  C   UNL     1       6.839   5.315  16.034  0.00  0.00    +0.000 C 
ATOM     13  O   UNL     1       7.747   4.609  16.469  0.00  0.00    +0.000 OA
ATOM     14  N   UNL     1       6.619   5.492  14.686  0.00  0.00    +0.000 N 
ATOM     15  H   UNL     1       6.164   6.358  14.415  0.00  0.00    +0.000 HD
BRANCH  14  16
ATOM     16  C   UNL     1       7.383   4.785  13.683  0.00  0.00    +0.000 C 
BRANCH  16  17
ATOM     17  C   UNL     1       6.517   3.906  12.825  0.00  0.00    +0.000 A 
ATOM     18  C   UNL     1       7.102   2.909  12.031  0.00  0.00    +0.000 A 
ATOM     19  C   UNL     1       6.312   2.102  11.207  0.00  0.00    +0.000 A 
ATOM     20  C   UNL     1       4.933   2.290  11.172  0.00  0.00    +0.000 A 
ATOM     21  C   UNL     1       4.341   3.281  11.954  0.00  0.00    +0.000 A 
ATOM     22  C   UNL     1       5.131   4.089  12.774  0.00  0.00    +0.000 A 
ENDBRANCH  16  17
ENDBRANCH  14  16
ENDBRANCH   1  12
BRANCH   1  23
ATOM     23  C   UNL     1       6.638   7.111  17.880  0.00  0.00    +0.000 C 
BRANCH  23  24
ATOM     24  C   UNL     1       7.833   7.863  17.257  0.00  0.00    +0.000 C 
BRANCH  24  25
ATOM     25  C   UNL     1       8.047   9.248  17.856  0.00  0.00    +0.000 C 
BRANCH  25  26
ATOM     26  O   UNL     1       8.950   9.197  18.959  0.00  0.00    +0.000 OA
BRANCH  26  31
ATOM     27  C   UNL     1      10.789  12.457  18.812  0.00  0.00    +0.000 A 
ATOM     28  C   UNL     1      10.563  12.851  20.140  0.00  0.00    +0.000 A 
ATOM     29  C   UNL     1       9.835  12.046  21.022  0.00  0.00    +0.000 A 
ATOM     30  C   UNL     1       9.318  10.827  20.594  0.00  0.00    +0.000 A 
ATOM     31  C   UNL     1       9.498  10.418  19.275  0.00  0.00    +0.000 A 
ATOM     32  C   UNL     1      10.236  11.231  18.402  0.00  0.00    +0.000 A 
BRANCH  27  35
ATOM     33  C   UNL     1      11.074  14.408  17.068  0.00  0.00    +0.000 C 
ATOM     34  C   UNL     1      11.487  13.145  16.377  0.00  0.00    +0.000 C 
ATOM     35  C   UNL     1      11.657  13.268  17.874  0.00  0.00    +0.000 C 
BRANCH  33  36
ATOM     36  N   UNL     1      11.862  15.630  16.896  0.00  0.00    +0.000 NA
ATOM     37  H   UNL     1      12.804  15.410  16.574  0.00  0.00    +0.000 HD
ATOM     38  H   UNL     1      11.981  16.126  17.780  0.00  0.00    +0.000 HD
ENDBRANCH  33  36
ENDBRANCH  27  35
ENDBRANCH  26  31
ENDBRANCH  25  26
ENDBRANCH  24  25
ENDBRANCH  23  24
ENDBRANCH   1  23
TORSDOF 12
ENDMDL
MODEL 6
REMARK VINA RESULT:      -8.4      4.402      5.851
REMARK  Name = 
REMARK  12 active torsions:
REMARK  status: ('A' for Active; 'I' for Inactive)
REMARK    1  A    between atoms: N_1  and  C_2
REMARK    2  A    between atoms: C_4  and  C_5
REMARK    3  A    between atoms: C_9  and  O_10
REMARK    4  A    between atoms: O_10  and  C_11
REMARK    5  A    between atoms: C_11  and  C_12
REMARK    6  A    between atoms: C_12  and  C_13
REMARK    7  A    between atoms: C_13  and  C_14
REMARK    8  A    between atoms: C_14  and  N_15
REMARK    9  A    between atoms: C_14  and  C_24
REMARK   10  A    between atoms: C_16  and  C_18
REMARK   11  A    between atoms: N_26  and  C_27
REMARK   12  A    between atoms: C_27  and  C_28
REMARK                            x       y       z     vdW  Elec       q    Type
REMARK                         _______ _______ _______ _____ _____    ______ ____
ROOT
ATOM      1  C   UNL     1       7.193   5.078  18.176  0.00  0.00    +0.000 C 
ENDROOT
BRANCH   1   2
ATOM      2  N   UNL     1       7.314   4.832  16.738  0.00  0.00    +0.000 N 
ATOM      3  C   UNL     1       6.255   4.939  15.872  0.00  0.00    +0.000 C 
ATOM      4  O   UNL     1       5.149   5.346  16.205  0.00  0.00    +0.000 OA
ATOM      5  H   UNL     1       8.245   4.833  16.340  0.00  0.00    +0.000 HD
BRANCH   3   6
ATOM      6  C   UNL     1       6.565   4.621  14.454  0.00  0.00    +0.000 A 
ATOM      7  C   UNL     1       7.579   5.301  13.767  0.00  0.00    +0.000 A 
ATOM      8  C   UNL     1       7.806   5.033  12.418  0.00  0.00    +0.000 A 
ATOM      9  C   UNL     1       7.033   4.077  11.760  0.00  0.00    +0.000 A 
ATOM     10  C   UNL     1       6.044   3.376  12.451  0.00  0.00    +0.000 A 
ATOM     11  C   UNL     1       5.813   3.640  13.801  0.00  0.00    +0.000 A 
ENDBRANCH   3   6
ENDBRANCH   1   2
BRANCH   1  12
ATOM     12  C   UNL     1       5.784   4.757  18.744  0.00  0.00    +0.000 C 
ATOM     13  O   UNL     1       5.430   3.610  19.010  0.00  0.00    +0.000 OA
ATOM     14  N   UNL     1       4.949   5.842  18.890  0.00  0.00    +0.000 N 
ATOM     15  H   UNL     1       5.142   6.641  18.294  0.00  0.00    +0.000 HD
BRANCH  14  16
ATOM     16  C   UNL     1       3.624   5.723  19.455  0.00  0.00    +0.000 C 
BRANCH  16  17
ATOM     17  C   UNL     1       2.810   6.971  19.262  0.00  0.00    +0.000 A 
ATOM     18  C   UNL     1       1.990   7.438  20.299  0.00  0.00    +0.000 A 
ATOM     19  C   UNL     1       1.205   8.583  20.125  0.00  0.00    +0.000 A 
ATOM     20  C   UNL     1       1.238   9.265  18.911  0.00  0.00    +0.000 A 
ATOM     21  C   UNL     1       2.047   8.807  17.872  0.00  0.00    +0.000 A 
ATOM     22  C   UNL     1       2.827   7.661  18.046  0.00  0.00    +0.000 A 
ENDBRANCH  16  17
ENDBRANCH  14  16
ENDBRANCH   1  12
BRANCH   1  23
ATOM     23  C   UNL     1       7.656   6.519  18.500  0.00  0.00    +0.000 C 
BRANCH  23  24
ATOM     24  C   UNL     1       7.666   7.530  17.334  0.00  0.00    +0.000 C 
BRANCH  24  25
ATOM     25  C   UNL     1       7.946   8.960  17.782  0.00  0.00    +0.000 C 
BRANCH  25  26
ATOM     26  O   UNL     1       8.869   8.987  18.868  0.00  0.00    +0.000 OA
BRANCH  26  31
ATOM     27  C   UNL     1       9.727  12.178  20.631  0.00  0.00    +0.000 A 
ATOM     28  C   UNL     1      10.304  12.839  19.536  0.00  0.00    +0.000 A 
ATOM     29  C   UNL     1      10.383  12.230  18.280  0.00  0.00    +0.000 A 
ATOM     30  C   UNL     1       9.885  10.944  18.092  0.00  0.00    +0.000 A 
ATOM     31  C   UNL     1       9.333  10.247  19.163  0.00  0.00    +0.000 A 
ATOM     32  C   UNL     1       9.253  10.872  20.417  0.00  0.00    +0.000 A 
BRANCH  27  35
ATOM     33  C   UNL     1       8.304  13.676  22.264  0.00  0.00    +0.000 C 
ATOM     34  C   UNL     1       9.621  14.365  22.080  0.00  0.00    +0.000 C 
ATOM     35  C   UNL     1       9.544  12.859  21.971  0.00  0.00    +0.000 C 
BRANCH  33  36
ATOM     36  N   UNL     1       7.700  13.593  23.595  0.00  0.00    +0.000 NA
ATOM     37  H   UNL     1       6.928  12.927  23.600  0.00  0.00    +0.000 HD
ATOM     38  H   UNL     1       7.296  14.486  23.879  0.00  0.00    +0.000 HD
ENDBRANCH  33  36
ENDBRANCH  27  35
ENDBRANCH  26  31
ENDBRANCH  25  26
ENDBRANCH  24  25
ENDBRANCH  23  24
ENDBRANCH   1  23
TORSDOF 12
ENDMDL
MODEL 7
REMARK VINA RESULT:      -8.3      1.378      1.742
REMARK  Name = 
REMARK  12 active torsions:
REMARK  status: ('A' for Active; 'I' for Inactive)
REMARK    1  A    between atoms: N_1  and  C_2
REMARK    2  A    between atoms: C_4  and  C_5
REMARK    3  A    between atoms: C_9  and  O_10
REMARK    4  A    between atoms: O_10  and  C_11
REMARK    5  A    between atoms: C_11  and  C_12
REMARK    6  A    between atoms: C_12  and  C_13
REMARK    7  A    between atoms: C_13  and  C_14
REMARK    8  A    between atoms: C_14  and  N_15
REMARK    9  A    between atoms: C_14  and  C_24
REMARK   10  A    between atoms: C_16  and  C_18
REMARK   11  A    between atoms: N_26  and  C_27
REMARK   12  A    between atoms: C_27  and  C_28
REMARK                            x       y       z     vdW  Elec       q    Type
REMARK                         _______ _______ _______ _____ _____    ______ ____
ROOT
ATOM      1  C   UNL     1       6.334   5.429  17.460  0.00  0.00    +0.000 C 
ENDROOT
BRANCH   1   2
ATOM      2  N   UNL     1       6.068   4.761  16.185  0.00  0.00    +0.000 N 
ATOM      3  C   UNL     1       6.806   4.995  15.052  0.00  0.00    +0.000 C 
ATOM      4  O   UNL     1       7.808   5.699  15.032  0.00  0.00    +0.000 OA
ATOM      5  H   UNL     1       5.495   3.926  16.204  0.00  0.00    +0.000 HD
BRANCH   3   6
ATOM      6  C   UNL     1       6.366   4.246  13.846  0.00  0.00    +0.000 A 
ATOM      7  C   UNL     1       7.283   3.871  12.856  0.00  0.00    +0.000 A 
ATOM      8  C   UNL     1       6.837   3.229  11.701  0.00  0.00    +0.000 A 
ATOM      9  C   UNL     1       5.480   2.949  11.543  0.00  0.00    +0.000 A 
ATOM     10  C   UNL     1       4.569   3.293  12.542  0.00  0.00    +0.000 A 
ATOM     11  C   UNL     1       5.010   3.935  13.700  0.00  0.00    +0.000 A 
ENDBRANCH   3   6
ENDBRANCH   1   2
BRANCH   1  12
ATOM     12  C   UNL     1       5.881   4.608  18.698  0.00  0.00    +0.000 C 
ATOM     13  O   UNL     1       6.054   5.006  19.848  0.00  0.00    +0.000 OA
ATOM     14  N   UNL     1       5.309   3.387  18.414  0.00  0.00    +0.000 N 
ATOM     15  H   UNL     1       5.569   2.965  17.528  0.00  0.00    +0.000 HD
BRANCH  14  16
ATOM     16  C   UNL     1       4.787   2.524  19.449  0.00  0.00    +0.000 C 
BRANCH  16  17
ATOM     17  C   UNL     1       3.313   2.722  19.663  0.00  0.00    +0.000 A 
ATOM     18  C   UNL     1       2.424   2.573  18.589  0.00  0.00    +0.000 A 
ATOM     19  C   UNL     1       1.053   2.781  18.766  0.00  0.00    +0.000 A 
ATOM     20  C   UNL     1       0.564   3.140  20.021  0.00  0.00    +0.000 A 
ATOM     21  C   UNL     1       1.440   3.295  21.095  0.00  0.00    +0.000 A 
ATOM     22  C   UNL     1       2.810   3.091  20.915  0.00  0.00    +0.000 A 
ENDBRANCH  16  17
ENDBRANCH  14  16
ENDBRANCH   1  12
BRANCH   1  23
ATOM     23  C   UNL     1       5.737   6.857  17.436  0.00  0.00    +0.000 C 
BRANCH  23  24
ATOM     24  C   UNL     1       4.315   7.011  16.856  0.00  0.00    +0.000 C 
BRANCH  24  25
ATOM     25  C   UNL     1       3.249   7.211  17.927  0.00  0.00    +0.000 C 
BRANCH  25  26
ATOM     26  O   UNL     1       2.347   8.254  17.565  0.00  0.00    +0.000 OA
BRANCH  26  31
ATOM     27  C   UNL     1       0.178  10.391  19.747  0.00  0.00    +0.000 A 
ATOM     28  C   UNL     1       0.320   9.645  20.927  0.00  0.00    +0.000 A 
ATOM     29  C   UNL     1       1.112   8.494  20.968  0.00  0.00    +0.000 A 
ATOM     30  C   UNL     1       1.782   8.063  19.826  0.00  0.00    +0.000 A 
ATOM     31  C   UNL     1       1.640   8.762  18.630  0.00  0.00    +0.000 A 
ATOM     32  C   UNL     1       0.848   9.920  18.604  0.00  0.00    +0.000 A 
BRANCH  27  35
ATOM     33  C   UNL     1      -1.850  11.827  18.876  0.00  0.00    +0.000 C 
ATOM     34  C   UNL     1      -0.601  12.544  18.461  0.00  0.00    +0.000 C 
ATOM     35  C   UNL     1      -0.595  11.692  19.711  0.00  0.00    +0.000 C 
BRANCH  33  36
ATOM     36  N   UNL     1      -2.983  12.581  19.416  0.00  0.00    +0.000 NA
ATOM     37  H   UNL     1      -3.513  13.023  18.666  0.00  0.00    +0.000 HD
ATOM     38  H   UNL     1      -2.671  13.342  20.020  0.00  0.00    +0.000 HD
ENDBRANCH  33  36
ENDBRANCH  27  35
ENDBRANCH  26  31
ENDBRANCH  25  26
ENDBRANCH  24  25
ENDBRANCH  23  24
ENDBRANCH   1  23
TORSDOF 12
ENDMDL
MODEL 8
REMARK VINA RESULT:      -8.3      1.909      2.591
REMARK  Name = 
REMARK  12 active torsions:
REMARK  status: ('A' for Active; 'I' for Inactive)
REMARK    1  A    between atoms: N_1  and  C_2
REMARK    2  A    between atoms: C_4  and  C_5
REMARK    3  A    between atoms: C_9  and  O_10
REMARK    4  A    between atoms: O_10  and  C_11
REMARK    5  A    between atoms: C_11  and  C_12
REMARK    6  A    between atoms: C_12  and  C_13
REMARK    7  A    between atoms: C_13  and  C_14
REMARK    8  A    between atoms: C_14  and  N_15
REMARK    9  A    between atoms: C_14  and  C_24
REMARK   10  A    between atoms: C_16  and  C_18
REMARK   11  A    between atoms: N_26  and  C_27
REMARK   12  A    between atoms: C_27  and  C_28
REMARK                            x       y       z     vdW  Elec       q    Type
REMARK                         _______ _______ _______ _____ _____    ______ ____
ROOT
ATOM      1  C   UNL     1       5.745   5.717  17.524  0.00  0.00    +0.000 C 
ENDROOT
BRANCH   1   2
ATOM      2  N   UNL     1       5.664   5.056  16.221  0.00  0.00    +0.000 N 
ATOM      3  C   UNL     1       6.629   5.190  15.255  0.00  0.00    +0.000 C 
ATOM      4  O   UNL     1       7.684   5.786  15.433  0.00  0.00    +0.000 OA
ATOM      5  H   UNL     1       5.014   4.285  16.127  0.00  0.00    +0.000 HD
BRANCH   3   6
ATOM      6  C   UNL     1       6.357   4.468  13.985  0.00  0.00    +0.000 A 
ATOM      7  C   UNL     1       5.091   3.929  13.719  0.00  0.00    +0.000 A 
ATOM      8  C   UNL     1       4.878   3.197  12.551  0.00  0.00    +0.000 A 
ATOM      9  C   UNL     1       5.923   3.017  11.645  0.00  0.00    +0.000 A 
ATOM     10  C   UNL     1       7.175   3.581  11.893  0.00  0.00    +0.000 A 
ATOM     11  C   UNL     1       7.393   4.314  13.059  0.00  0.00    +0.000 A 
ENDBRANCH   3   6
ENDBRANCH   1   2
BRANCH   1  12
ATOM     12  C   UNL     1       5.260   4.829  18.702  0.00  0.00    +0.000 C 
ATOM     13  O   UNL     1       5.012   5.293  19.814  0.00  0.00    +0.000 OA
ATOM     14  N   UNL     1       5.167   3.484  18.423  0.00  0.00    +0.000 N 
ATOM     15  H   UNL     1       5.754   3.140  17.669  0.00  0.00    +0.000 HD
BRANCH  14  16
ATOM     16  C   UNL     1       4.681   2.529  19.393  0.00  0.00    +0.000 C 
BRANCH  16  17
ATOM     17  C   UNL     1       3.204   2.665  19.634  0.00  0.00    +0.000 A 
ATOM     18  C   UNL     1       2.725   2.892  20.932  0.00  0.00    +0.000 A 
ATOM     19  C   UNL     1       1.352   2.993  21.176  0.00  0.00    +0.000 A 
ATOM     20  C   UNL     1       0.452   2.868  20.121  0.00  0.00    +0.000 A 
ATOM     21  C   UNL     1       0.917   2.638  18.826  0.00  0.00    +0.000 A 
ATOM     22  C   UNL     1       2.289   2.533  18.585  0.00  0.00    +0.000 A 
ENDBRANCH  16  17
ENDBRANCH  14  16
ENDBRANCH   1  12
BRANCH   1  23
ATOM     23  C   UNL     1       5.018   7.082  17.463  0.00  0.00    +0.000 C 
BRANCH  23  24
ATOM     24  C   UNL     1       3.475   7.054  17.456  0.00  0.00    +0.000 C 
BRANCH  24  25
ATOM     25  C   UNL     1       2.849   8.283  18.104  0.00  0.00    +0.000 C 
BRANCH  25  26
ATOM     26  O   UNL     1       1.662   8.677  17.420  0.00  0.00    +0.000 OA
BRANCH  26  31
ATOM     27  C   UNL     1       0.038  10.453  20.289  0.00  0.00    +0.000 A 
ATOM     28  C   UNL     1      -1.125  10.856  19.616  0.00  0.00    +0.000 A 
ATOM     29  C   UNL     1      -1.336  10.532  18.272  0.00  0.00    +0.000 A 
ATOM     30  C   UNL     1      -0.386   9.794  17.572  0.00  0.00    +0.000 A 
ATOM     31  C   UNL     1       0.793   9.403  18.200  0.00  0.00    +0.000 A 
ATOM     32  C   UNL     1       0.990   9.729  19.551  0.00  0.00    +0.000 A 
BRANCH  27  35
ATOM     33  C   UNL     1      -0.491   9.883  22.805  0.00  0.00    +0.000 C 
ATOM     34  C   UNL     1      -0.875  11.316  22.595  0.00  0.00    +0.000 C 
ATOM     35  C   UNL     1       0.237  10.711  21.768  0.00  0.00    +0.000 C 
BRANCH  33  36
ATOM     36  N   UNL     1       0.221   9.486  24.021  0.00  0.00    +0.000 NA
ATOM     37  H   UNL     1       0.508   8.509  23.969  0.00  0.00    +0.000 HD
ATOM     38  H   UNL     1      -0.378   9.553  24.844  0.00  0.00    +0.000 HD
ENDBRANCH  33  36
ENDBRANCH  27  35
ENDBRANCH  26  31
ENDBRANCH  25  26
ENDBRANCH  24  25
ENDBRANCH  23  24
ENDBRANCH   1  23
TORSDOF 12
ENDMDL
MODEL 9
REMARK VINA RESULT:      -8.3      1.951      2.361
REMARK  Name = 
REMARK  12 active torsions:
REMARK  status: ('A' for Active; 'I' for Inactive)
REMARK    1  A    between atoms: N_1  and  C_2
REMARK    2  A    between atoms: C_4  and  C_5
REMARK    3  A    between atoms: C_9  and  O_10
REMARK    4  A    between atoms: O_10  and  C_11
REMARK    5  A    between atoms: C_11  and  C_12
REMARK    6  A    between atoms: C_12  and  C_13
REMARK    7  A    between atoms: C_13  and  C_14
REMARK    8  A    between atoms: C_14  and  N_15
REMARK    9  A    between atoms: C_14  and  C_24
REMARK   10  A    between atoms: C_16  and  C_18
REMARK   11  A    between atoms: N_26  and  C_27
REMARK   12  A    between atoms: C_27  and  C_28
REMARK                            x       y       z     vdW  Elec       q    Type
REMARK                         _______ _______ _______ _____ _____    ______ ____
ROOT
ATOM      1  C   UNL     1       5.791   5.657  17.414  0.00  0.00    +0.000 C 
ENDROOT
BRANCH   1   2
ATOM      2  N   UNL     1       5.705   5.020  16.098  0.00  0.00    +0.000 N 
ATOM      3  C   UNL     1       6.659   5.187  15.126  0.00  0.00    +0.000 C 
ATOM      4  O   UNL     1       7.708   5.793  15.306  0.00  0.00    +0.000 OA
ATOM      5  H   UNL     1       5.065   4.243  15.995  0.00  0.00    +0.000 HD
BRANCH   3   6
ATOM      6  C   UNL     1       6.384   4.486  13.845  0.00  0.00    +0.000 A 
ATOM      7  C   UNL     1       5.136   3.898  13.598  0.00  0.00    +0.000 A 
ATOM      8  C   UNL     1       4.923   3.188  12.416  0.00  0.00    +0.000 A 
ATOM      9  C   UNL     1       5.949   3.077  11.478  0.00  0.00    +0.000 A 
ATOM     10  C   UNL     1       7.182   3.689  11.708  0.00  0.00    +0.000 A 
ATOM     11  C   UNL     1       7.400   4.401  12.888  0.00  0.00    +0.000 A 
ENDBRANCH   3   6
ENDBRANCH   1   2
BRANCH   1  12
ATOM     12  C   UNL     1       5.571   4.673  18.595  0.00  0.00    +0.000 C 
ATOM     13  O   UNL     1       5.954   4.923  19.736  0.00  0.00    +0.000 OA
ATOM     14  N   UNL     1       4.954   3.487  18.264  0.00  0.00    +0.000 N 
ATOM     15  H   UNL     1       5.045   3.189  17.297  0.00  0.00    +0.000 HD
BRANCH  14  16
ATOM     16  C   UNL     1       4.629   2.486  19.254  0.00  0.00    +0.000 C 
BRANCH  16  17
ATOM     17  C   UNL     1       3.244   2.666  19.809  0.00  0.00    +0.000 A 
ATOM     18  C   UNL     1       3.044   2.691  21.197  0.00  0.00    +0.000 A 
ATOM     19  C   UNL     1       1.758   2.829  21.728  0.00  0.00    +0.000 A 
ATOM     20  C   UNL     1       0.665   2.943  20.872  0.00  0.00    +0.000 A 
ATOM     21  C   UNL     1       0.852   2.916  19.490  0.00  0.00    +0.000 A 
ATOM     22  C   UNL     1       2.137   2.773  18.961  0.00  0.00    +0.000 A 
ENDBRANCH  16  17
ENDBRANCH  14  16
ENDBRANCH   1  12
BRANCH   1  23
ATOM     23  C   UNL     1       4.841   6.878  17.465  0.00  0.00    +0.000 C 
BRANCH  23  24
ATOM     24  C   UNL     1       3.331   6.585  17.601  0.00  0.00    +0.000 C 
BRANCH  24  25
ATOM     25  C   UNL     1       2.652   7.426  18.676  0.00  0.00    +0.000 C 
BRANCH  25  26
ATOM     26  O   UNL     1       2.427   8.758  18.219  0.00  0.00    +0.000 OA
BRANCH  26  31
ATOM     27  C   UNL     1      -0.923  10.423  18.406  0.00  0.00    +0.000 A 
ATOM     28  C   UNL     1      -1.062  10.390  19.801  0.00  0.00    +0.000 A 
ATOM     29  C   UNL     1      -0.069   9.841  20.618  0.00  0.00    +0.000 A 
ATOM     30  C   UNL     1       1.088   9.312  20.054  0.00  0.00    +0.000 A 
ATOM     31  C   UNL     1       1.247   9.301  18.671  0.00  0.00    +0.000 A 
ATOM     32  C   UNL     1       0.246   9.861  17.863  0.00  0.00    +0.000 A 
BRANCH  27  35
ATOM     33  C   UNL     1      -3.422  10.836  17.687  0.00  0.00    +0.000 C 
ATOM     34  C   UNL     1      -2.707  10.305  16.483  0.00  0.00    +0.000 C 
ATOM     35  C   UNL     1      -1.942  11.101  17.515  0.00  0.00    +0.000 C 
BRANCH  33  36
ATOM     36  N   UNL     1      -4.362  11.950  17.549  0.00  0.00    +0.000 NA
ATOM     37  H   UNL     1      -5.101  11.719  16.886  0.00  0.00    +0.000 HD
ATOM     38  H   UNL     1      -3.905  12.781  17.173  0.00  0.00    +0.000 HD
ENDBRANCH  33  36
ENDBRANCH  27  35
ENDBRANCH  26  31
ENDBRANCH  25  26
ENDBRANCH  24  25
ENDBRANCH  23  24
ENDBRANCH   1  23
TORSDOF 12
ENDMDL
