MODEL 1
REMARK VINA RESULT:      -5.9      0.000      0.000
REMARK  Name = 
REMARK  4 active torsions:
REMARK  status: ('A' for Active; 'I' for Inactive)
REMARK    1  A    between atoms: C_3  and  C_4
REMARK    2  A    between atoms: C_4  and  N_5
REMARK    3  A    between atoms: N_8  and  C_9
REMARK    4  A    between atoms: C_9  and  C_10
REMARK                            x       y       z     vdW  Elec       q    Type
REMARK                         _______ _______ _______ _____ _____    ______ ____
ROOT
ATOM      1  N   UNL     1       4.916   4.677  19.151  0.00  0.00    +0.000 NA
ATOM      2  C   UNL     1       4.554   3.925  17.932  0.00  0.00    +0.000 C 
ATOM      3  C   UNL     1       4.546   4.726  16.600  0.00  0.00    +0.000 C 
ATOM      4  N   UNL     1       5.718   5.596  16.365  0.00  0.00    +0.000 NA
ATOM      5  C   UNL     1       5.933   6.408  17.581  0.00  0.00    +0.000 C 
ATOM      6  C   UNL     1       6.046   5.587  18.884  0.00  0.00    +0.000 C 
ENDROOT
BRANCH   1   7
ATOM      7  C   UNL     1       3.781   5.380  19.758  0.00  0.00    +0.000 C 
BRANCH   7  10
ATOM      8  C   UNL     1       0.652   3.301  20.216  0.00  0.00    +0.000 A 
ATOM      9  C   UNL     1       1.445   4.231  19.581  0.00  0.00    +0.000 A 
ATOM     10  C   UNL     1       2.729   4.392  20.205  0.00  0.00    +0.000 A 
ATOM     11  C   UNL     1       2.836   3.551  21.301  0.00  0.00    +0.000 A 
ATOM     12  S   UNL     1       1.440   2.599  21.559  0.00  0.00    +0.000 S 
ENDBRANCH   7  10
ENDBRANCH   1   7
BRANCH   4  13
ATOM     13  C   UNL     1       6.900   4.785  16.003  0.00  0.00    +0.000 C 
BRANCH  13  14
ATOM     14  C   UNL     1       7.044   4.649  14.511  0.00  0.00    +0.000 A 
ATOM     15  C   UNL     1       6.399   3.737  13.693  0.00  0.00    +0.000 A 
ATOM     16  S   UNL     1       6.847   3.983  12.057  0.00  0.00    +0.000 S 
ATOM     17  C   UNL     1       7.870   5.266  12.550  0.00  0.00    +0.000 A 
ATOM     18  N   UNL     1       7.892   5.526  13.838  0.00  0.00    +0.000 NA
ENDBRANCH  13  14
ENDBRANCH   4  13
TORSDOF 4
ENDMDL
MODEL 2
REMARK VINA RESULT:      -5.5      1.164      7.161
REMARK  Name = 
REMARK  4 active torsions:
REMARK  status: ('A' for Active; 'I' for Inactive)
REMARK    1  A    between atoms: C_3  and  C_4
REMARK    2  A    between atoms: C_4  and  N_5
REMARK    3  A    between atoms: N_8  and  C_9
REMARK    4  A    between atoms: C_9  and  C_10
REMARK                            x       y       z     vdW  Elec       q    Type
REMARK                         _______ _______ _______ _____ _____    ______ ____
ROOT
ATOM      1  N   UNL     1       5.106   5.073  16.049  0.00  0.00    +0.000 NA
ATOM      2  C   UNL     1       4.551   4.008  16.910  0.00  0.00    +0.000 C 
ATOM      3  C   UNL     1       4.776   4.167  18.439  0.00  0.00    +0.000 C 
ATOM      4  N   UNL     1       4.495   5.507  18.997  0.00  0.00    +0.000 NA
ATOM      5  C   UNL     1       5.193   6.504  18.156  0.00  0.00    +0.000 C 
ATOM      6  C   UNL     1       4.874   6.401  16.649  0.00  0.00    +0.000 C 
ENDROOT
BRANCH   1   7
ATOM      7  C   UNL     1       6.517   4.868  15.708  0.00  0.00    +0.000 C 
BRANCH   7  10
ATOM      8  C   UNL     1       7.448   4.611  12.049  0.00  0.00    +0.000 A 
ATOM      9  C   UNL     1       7.558   5.112  13.327  0.00  0.00    +0.000 A 
ATOM     10  C   UNL     1       6.656   4.484  14.253  0.00  0.00    +0.000 A 
ATOM     11  C   UNL     1       5.902   3.518  13.605  0.00  0.00    +0.000 A 
ATOM     12  S   UNL     1       6.276   3.373  11.944  0.00  0.00    +0.000 S 
ENDBRANCH   7  10
ENDBRANCH   1   7
BRANCH   4  13
ATOM     13  C   UNL     1       3.038   5.742  19.071  0.00  0.00    +0.000 C 
BRANCH  13  14
ATOM     14  C   UNL     1       2.325   4.597  19.741  0.00  0.00    +0.000 A 
ATOM     15  C   UNL     1       2.431   4.213  21.067  0.00  0.00    +0.000 A 
ATOM     16  S   UNL     1       1.403   2.879  21.385  0.00  0.00    +0.000 S 
ATOM     17  C   UNL     1       0.903   2.898  19.746  0.00  0.00    +0.000 A 
ATOM     18  N   UNL     1       1.439   3.828  18.988  0.00  0.00    +0.000 NA
ENDBRANCH  13  14
ENDBRANCH   4  13
TORSDOF 4
ENDMDL
MODEL 3
REMARK VINA RESULT:      -5.5      1.340      7.036
REMARK  Name = 
REMARK  4 active torsions:
REMARK  status: ('A' for Active; 'I' for Inactive)
REMARK    1  A    between atoms: C_3  and  C_4
REMARK    2  A    between atoms: C_4  and  N_5
REMARK    3  A    between atoms: N_8  and  C_9
REMARK    4  A    between atoms: C_9  and  C_10
REMARK                            x       y       z     vdW  Elec       q    Type
REMARK                         _______ _______ _______ _____ _____    ______ ____
ROOT
ATOM      1  N   UNL     1       6.508   4.343  16.532  0.00  0.00    +0.000 NA
ATOM      2  C   UNL     1       7.173   4.580  17.830  0.00  0.00    +0.000 C 
ATOM      3  C   UNL     1       6.475   5.579  18.794  0.00  0.00    +0.000 C 
ATOM      4  N   UNL     1       5.017   5.401  18.963  0.00  0.00    +0.000 NA
ATOM      5  C   UNL     1       4.412   5.304  17.618  0.00  0.00    +0.000 C 
ATOM      6  C   UNL     1       5.047   4.230  16.709  0.00  0.00    +0.000 C 
ENDROOT
BRANCH   1   7
ATOM      7  C   UNL     1       6.858   5.336  15.510  0.00  0.00    +0.000 C 
BRANCH   7  10
ATOM      8  C   UNL     1       7.374   4.412  11.877  0.00  0.00    +0.000 A 
ATOM      9  C   UNL     1       7.653   5.101  13.036  0.00  0.00    +0.000 A 
ATOM     10  C   UNL     1       6.813   4.712  14.135  0.00  0.00    +0.000 A 
ATOM     11  C   UNL     1       5.928   3.724  13.733  0.00  0.00    +0.000 A 
ATOM     12  S   UNL     1       6.112   3.281  12.093  0.00  0.00    +0.000 S 
ENDBRANCH   7  10
ENDBRANCH   1   7
BRANCH   4  13
ATOM     13  C   UNL     1       4.736   4.218  19.803  0.00  0.00    +0.000 C 
BRANCH  13  14
ATOM     14  C   UNL     1       3.261   3.920  19.868  0.00  0.00    +0.000 A 
ATOM     15  C   UNL     1       2.606   2.840  19.302  0.00  0.00    +0.000 A 
ATOM     16  S   UNL     1       0.933   2.898  19.670  0.00  0.00    +0.000 S 
ATOM     17  C   UNL     1       1.194   4.352  20.538  0.00  0.00    +0.000 A 
ATOM     18  N   UNL     1       2.434   4.787  20.579  0.00  0.00    +0.000 NA
ENDBRANCH  13  14
ENDBRANCH   4  13
TORSDOF 4
ENDMDL
MODEL 4
REMARK VINA RESULT:      -5.5      1.332      7.058
REMARK  Name = 
REMARK  4 active torsions:
REMARK  status: ('A' for Active; 'I' for Inactive)
REMARK    1  A    between atoms: C_3  and  C_4
REMARK    2  A    between atoms: C_4  and  N_5
REMARK    3  A    between atoms: N_8  and  C_9
REMARK    4  A    between atoms: C_9  and  C_10
REMARK                            x       y       z     vdW  Elec       q    Type
REMARK                         _______ _______ _______ _____ _____    ______ ____
ROOT
ATOM      1  N   UNL     1       6.609   4.299  16.479  0.00  0.00    +0.000 NA
ATOM      2  C   UNL     1       7.242   4.605  17.779  0.00  0.00    +0.000 C 
ATOM      3  C   UNL     1       6.446   5.535  18.736  0.00  0.00    +0.000 C 
ATOM      4  N   UNL     1       5.012   5.214  18.901  0.00  0.00    +0.000 NA
ATOM      5  C   UNL     1       4.424   5.054  17.554  0.00  0.00    +0.000 C 
ATOM      6  C   UNL     1       5.166   4.044  16.652  0.00  0.00    +0.000 C 
ENDROOT
BRANCH   1   7
ATOM      7  C   UNL     1       6.863   5.318  15.455  0.00  0.00    +0.000 C 
BRANCH   7  10
ATOM      8  C   UNL     1       7.373   4.413  11.816  0.00  0.00    +0.000 A 
ATOM      9  C   UNL     1       7.652   5.098  12.977  0.00  0.00    +0.000 A 
ATOM     10  C   UNL     1       6.818   4.699  14.077  0.00  0.00    +0.000 A 
ATOM     11  C   UNL     1       5.938   3.707  13.674  0.00  0.00    +0.000 A 
ATOM     12  S   UNL     1       6.119   3.273  12.032  0.00  0.00    +0.000 S 
ENDBRANCH   7  10
ENDBRANCH   1   7
BRANCH   4  13
ATOM     13  C   UNL     1       4.845   4.013  19.745  0.00  0.00    +0.000 C 
BRANCH  13  14
ATOM     14  C   UNL     1       3.397   3.614  19.863  0.00  0.00    +0.000 A 
ATOM     15  C   UNL     1       2.378   4.346  20.448  0.00  0.00    +0.000 A 
ATOM     16  S   UNL     1       0.889   3.508  20.313  0.00  0.00    +0.000 S 
ATOM     17  C   UNL     1       1.701   2.235  19.503  0.00  0.00    +0.000 A 
ATOM     18  N   UNL     1       2.993   2.395  19.321  0.00  0.00    +0.000 NA
ENDBRANCH  13  14
ENDBRANCH   4  13
TORSDOF 4
ENDMDL
MODEL 5
REMARK VINA RESULT:      -5.4      0.910      7.081
REMARK  Name = 
REMARK  4 active torsions:
REMARK  status: ('A' for Active; 'I' for Inactive)
REMARK    1  A    between atoms: C_3  and  C_4
REMARK    2  A    between atoms: C_4  and  N_5
REMARK    3  A    between atoms: N_8  and  C_9
REMARK    4  A    between atoms: C_9  and  C_10
REMARK                            x       y       z     vdW  Elec       q    Type
REMARK                         _______ _______ _______ _____ _____    ______ ____
ROOT
ATOM      1  N   UNL     1       5.773   5.549  16.386  0.00  0.00    +0.000 NA
ATOM      2  C   UNL     1       4.773   4.504  16.691  0.00  0.00    +0.000 C 
ATOM      3  C   UNL     1       4.889   3.818  18.080  0.00  0.00    +0.000 C 
ATOM      4  N   UNL     1       5.084   4.725  19.232  0.00  0.00    +0.000 NA
ATOM      5  C   UNL     1       6.186   5.652  18.898  0.00  0.00    +0.000 C 
ATOM      6  C   UNL     1       6.003   6.407  17.564  0.00  0.00    +0.000 C 
ENDROOT
BRANCH   1   7
ATOM      7  C   UNL     1       7.027   5.013  15.847  0.00  0.00    +0.000 C 
BRANCH   7  10
ATOM      8  C   UNL     1       5.999   3.483  12.542  0.00  0.00    +0.000 A 
ATOM      9  C   UNL     1       5.912   3.677  13.903  0.00  0.00    +0.000 A 
ATOM     10  C   UNL     1       6.858   4.641  14.393  0.00  0.00    +0.000 A 
ATOM     11  C   UNL     1       7.622   5.134  13.347  0.00  0.00    +0.000 A 
ATOM     12  S   UNL     1       7.205   4.462  11.832  0.00  0.00    +0.000 S 
ENDBRANCH   7  10
ENDBRANCH   1   7
BRANCH   4  13
ATOM     13  C   UNL     1       3.825   5.428  19.556  0.00  0.00    +0.000 C 
BRANCH  13  14
ATOM     14  C   UNL     1       2.768   4.475  20.049  0.00  0.00    +0.000 A 
ATOM     15  C   UNL     1       2.810   3.713  21.205  0.00  0.00    +0.000 A 
ATOM     16  S   UNL     1       1.365   2.807  21.374  0.00  0.00    +0.000 S 
ATOM     17  C   UNL     1       0.796   3.476  19.903  0.00  0.00    +0.000 A 
ATOM     18  N   UNL     1       1.599   4.327  19.305  0.00  0.00    +0.000 NA
ENDBRANCH  13  14
ENDBRANCH   4  13
TORSDOF 4
ENDMDL
MODEL 6
REMARK VINA RESULT:      -5.1      1.408      7.058
REMARK  Name = 
REMARK  4 active torsions:
REMARK  status: ('A' for Active; 'I' for Inactive)
REMARK    1  A    between atoms: C_3  and  C_4
REMARK    2  A    between atoms: C_4  and  N_5
REMARK    3  A    between atoms: N_8  and  C_9
REMARK    4  A    between atoms: C_9  and  C_10
REMARK                            x       y       z     vdW  Elec       q    Type
REMARK                         _______ _______ _______ _____ _____    ______ ____
ROOT
ATOM      1  N   UNL     1       6.341   4.113  15.837  0.00  0.00    +0.000 NA
ATOM      2  C   UNL     1       7.135   4.622  16.974  0.00  0.00    +0.000 C 
ATOM      3  C   UNL     1       6.449   5.682  17.879  0.00  0.00    +0.000 C 
ATOM      4  N   UNL     1       5.061   5.380  18.288  0.00  0.00    +0.000 NA
ATOM      5  C   UNL     1       4.301   5.007  17.076  0.00  0.00    +0.000 C 
ATOM      6  C   UNL     1       4.943   3.875  16.244  0.00  0.00    +0.000 C 
ENDROOT
BRANCH   1   7
ATOM      7  C   UNL     1       6.424   4.962  14.643  0.00  0.00    +0.000 C 
BRANCH   7  10
ATOM      8  C   UNL     1       5.157   2.887  11.744  0.00  0.00    +0.000 A 
ATOM      9  C   UNL     1       5.014   3.677  12.863  0.00  0.00    +0.000 A 
ATOM     10  C   UNL     1       6.271   4.128  13.393  0.00  0.00    +0.000 A 
ATOM     11  C   UNL     1       7.316   3.643  12.623  0.00  0.00    +0.000 A 
ATOM     12  S   UNL     1       6.795   2.686  11.306  0.00  0.00    +0.000 S 
ENDBRANCH   7  10
ENDBRANCH   1   7
BRANCH   4  13
ATOM     13  C   UNL     1       5.045   4.322  19.320  0.00  0.00    +0.000 C 
BRANCH  13  14
ATOM     14  C   UNL     1       3.645   4.027  19.792  0.00  0.00    +0.000 A 
ATOM     15  C   UNL     1       3.006   2.800  19.781  0.00  0.00    +0.000 A 
ATOM     16  S   UNL     1       1.435   2.940  20.452  0.00  0.00    +0.000 S 
ATOM     17  C   UNL     1       1.709   4.614  20.695  0.00  0.00    +0.000 A 
ATOM     18  N   UNL     1       2.885   5.068  20.322  0.00  0.00    +0.000 NA
ENDBRANCH  13  14
ENDBRANCH   4  13
TORSDOF 4
ENDMDL
MODEL 7
REMARK VINA RESULT:      -5.1      1.595      6.971
REMARK  Name = 
REMARK  4 active torsions:
REMARK  status: ('A' for Active; 'I' for Inactive)
REMARK    1  A    between atoms: C_3  and  C_4
REMARK    2  A    between atoms: C_4  and  N_5
REMARK    3  A    between atoms: N_8  and  C_9
REMARK    4  A    between atoms: C_9  and  C_10
REMARK                            x       y       z     vdW  Elec       q    Type
REMARK                         _______ _______ _______ _____ _____    ______ ____
ROOT
ATOM      1  N   UNL     1       6.370   4.051  15.388  0.00  0.00    +0.000 NA
ATOM      2  C   UNL     1       7.334   4.579  16.376  0.00  0.00    +0.000 C 
ATOM      3  C   UNL     1       6.867   5.800  17.216  0.00  0.00    +0.000 C 
ATOM      4  N   UNL     1       5.508   5.704  17.791  0.00  0.00    +0.000 NA
ATOM      5  C   UNL     1       4.584   5.299  16.710  0.00  0.00    +0.000 C 
ATOM      6  C   UNL     1       5.008   4.021  15.955  0.00  0.00    +0.000 C 
ENDROOT
BRANCH   1   7
ATOM      7  C   UNL     1       6.410   4.757  14.103  0.00  0.00    +0.000 C 
BRANCH   7  10
ATOM      8  C   UNL     1       4.650   2.722  11.441  0.00  0.00    +0.000 A 
ATOM      9  C   UNL     1       4.726   3.687  12.421  0.00  0.00    +0.000 A 
ATOM     10  C   UNL     1       6.044   3.819  12.976  0.00  0.00    +0.000 A 
ATOM     11  C   UNL     1       6.911   2.927  12.365  0.00  0.00    +0.000 A 
ATOM     12  S   UNL     1       6.159   1.973  11.163  0.00  0.00    +0.000 S 
ENDBRANCH   7  10
ENDBRANCH   1   7
BRANCH   4  13
ATOM     13  C   UNL     1       5.495   4.768  18.934  0.00  0.00    +0.000 C 
BRANCH  13  14
ATOM     14  C   UNL     1       4.100   4.551  19.460  0.00  0.00    +0.000 A 
ATOM     15  C   UNL     1       3.225   5.521  19.918  0.00  0.00    +0.000 A 
ATOM     16  S   UNL     1       1.736   4.809  20.380  0.00  0.00    +0.000 S 
ATOM     17  C   UNL     1       2.361   3.272  19.955  0.00  0.00    +0.000 A 
ATOM     18  N   UNL     1       3.589   3.255  19.487  0.00  0.00    +0.000 NA
ENDBRANCH  13  14
ENDBRANCH   4  13
TORSDOF 4
ENDMDL
MODEL 8
REMARK VINA RESULT:      -5.1      1.334      7.108
REMARK  Name = 
REMARK  4 active torsions:
REMARK  status: ('A' for Active; 'I' for Inactive)
REMARK    1  A    between atoms: C_3  and  C_4
REMARK    2  A    between atoms: C_4  and  N_5
REMARK    3  A    between atoms: N_8  and  C_9
REMARK    4  A    between atoms: C_9  and  C_10
REMARK                            x       y       z     vdW  Elec       q    Type
REMARK                         _______ _______ _______ _____ _____    ______ ____
ROOT
ATOM      1  N   UNL     1       5.025   4.535  16.231  0.00  0.00    +0.000 NA
ATOM      2  C   UNL     1       4.451   3.672  17.284  0.00  0.00    +0.000 C 
ATOM      3  C   UNL     1       4.790   4.052  18.753  0.00  0.00    +0.000 C 
ATOM      4  N   UNL     1       4.649   5.483  19.097  0.00  0.00    +0.000 NA
ATOM      5  C   UNL     1       5.360   6.270  18.068  0.00  0.00    +0.000 C 
ATOM      6  C   UNL     1       4.934   5.957  16.617  0.00  0.00    +0.000 C 
ENDROOT
BRANCH   1   7
ATOM      7  C   UNL     1       6.391   4.160  15.852  0.00  0.00    +0.000 C 
BRANCH   7  10
ATOM      8  C   UNL     1       6.188   3.577  12.118  0.00  0.00    +0.000 A 
ATOM      9  C   UNL     1       5.815   3.379  13.429  0.00  0.00    +0.000 A 
ATOM     10  C   UNL     1       6.549   4.202  14.350  0.00  0.00    +0.000 A 
ATOM     11  C   UNL     1       7.454   4.997  13.664  0.00  0.00    +0.000 A 
ATOM     12  S   UNL     1       7.411   4.760  11.972  0.00  0.00    +0.000 S 
ENDBRANCH   7  10
ENDBRANCH   1   7
BRANCH   4  13
ATOM     13  C   UNL     1       3.222   5.848  19.212  0.00  0.00    +0.000 C 
BRANCH  13  14
ATOM     14  C   UNL     1       2.415   4.745  19.844  0.00  0.00    +0.000 A 
ATOM     15  C   UNL     1       1.451   3.964  19.229  0.00  0.00    +0.000 A 
ATOM     16  S   UNL     1       0.826   2.811  20.333  0.00  0.00    +0.000 S 
ATOM     17  C   UNL     1       1.865   3.435  21.544  0.00  0.00    +0.000 A 
ATOM     18  N   UNL     1       2.644   4.430  21.181  0.00  0.00    +0.000 NA
ENDBRANCH  13  14
ENDBRANCH   4  13
TORSDOF 4
ENDMDL
MODEL 9
REMARK VINA RESULT:      -5.1      1.255      1.787
REMARK  Name = 
REMARK  4 active torsions:
REMARK  status: ('A' for Active; 'I' for Inactive)
REMARK    1  A    between atoms: C_3  and  C_4
REMARK    2  A    between atoms: C_4  and  N_5
REMARK    3  A    between atoms: N_8  and  C_9
REMARK    4  A    between atoms: C_9  and  C_10
REMARK                            x       y       z     vdW  Elec       q    Type
REMARK                         _______ _______ _______ _____ _____    ______ ____
ROOT
ATOM      1  N   UNL     1       4.827   5.508  18.324  0.00  0.00    +0.000 NA
ATOM      2  C   UNL     1       6.178   6.026  18.023  0.00  0.00    +0.000 C 
ATOM      3  C   UNL     1       7.157   5.044  17.323  0.00  0.00    +0.000 C 
ATOM      4  N   UNL     1       6.605   4.290  16.177  0.00  0.00    +0.000 NA
ATOM      5  C   UNL     1       5.320   3.695  16.601  0.00  0.00    +0.000 C 
ATOM      6  C   UNL     1       4.315   4.705  17.197  0.00  0.00    +0.000 C 
ENDROOT
BRANCH   1   7
ATOM      7  C   UNL     1       4.756   4.774  19.592  0.00  0.00    +0.000 C 
BRANCH   7  10
ATOM      8  C   UNL     1       1.085   4.570  20.483  0.00  0.00    +0.000 A 
ATOM      9  C   UNL     1       2.268   5.228  20.233  0.00  0.00    +0.000 A 
ATOM     10  C   UNL     1       3.336   4.339  19.869  0.00  0.00    +0.000 A 
ATOM     11  C   UNL     1       2.885   3.029  19.861  0.00  0.00    +0.000 A 
ATOM     12  S   UNL     1       1.233   2.882  20.272  0.00  0.00    +0.000 S 
ENDBRANCH   7  10
ENDBRANCH   1   7
BRANCH   4  13
ATOM     13  C   UNL     1       6.465   5.171  14.998  0.00  0.00    +0.000 C 
BRANCH  13  14
ATOM     14  C   UNL     1       6.308   4.378  13.728  0.00  0.00    +0.000 A 
ATOM     15  C   UNL     1       5.201   3.643  13.338  0.00  0.00    +0.000 A 
ATOM     16  S   UNL     1       5.466   2.940  11.796  0.00  0.00    +0.000 S 
ATOM     17  C   UNL     1       7.026   3.647  11.764  0.00  0.00    +0.000 A 
ATOM     18  N   UNL     1       7.356   4.371  12.809  0.00  0.00    +0.000 NA
ENDBRANCH  13  14
ENDBRANCH   4  13
TORSDOF 4
ENDMDL
