MODEL 1
REMARK VINA RESULT:      -7.7      0.000      0.000
REMARK  Name = 
REMARK  11 active torsions:
REMARK  status: ('A' for Active; 'I' for Inactive)
REMARK    1  A    between atoms: C_1  and  C_2
REMARK    2  A    between atoms: C_2  and  O_3
REMARK    3  A    between atoms: O_3  and  C_4
REMARK    4  A    between atoms: C_4  and  C_6
REMARK    5  A    between atoms: C_8  and  C_9
REMARK    6  A    between atoms: C_11  and  O_12
REMARK    7  A    between atoms: O_12  and  C_13
REMARK    8  A    between atoms: C_17  and  N_18
REMARK    9  A    between atoms: N_18  and  S_19
REMARK   10  A    between atoms: S_19  and  C_22
REMARK   11  A    between atoms: C_30  and  C_31
REMARK                            x       y       z     vdW  Elec       q    Type
REMARK                         _______ _______ _______ _____ _____    ______ ____
ROOT
ATOM      1  C   UNL     1       2.699   7.624  19.140  0.00  0.00    +0.000 A 
ATOM      2  C   UNL     1       2.568   8.208  17.879  0.00  0.00    +0.000 A 
ATOM      3  C   UNL     1       1.539   9.123  17.642  0.00  0.00    +0.000 A 
ATOM      4  C   UNL     1       0.637   9.437  18.660  0.00  0.00    +0.000 A 
ATOM      5  C   UNL     1       0.791   8.877  19.927  0.00  0.00    +0.000 A 
ATOM      6  C   UNL     1       1.849   8.012  20.184  0.00  0.00    +0.000 A 
ENDROOT
BRANCH   5   7
ATOM      7  N   UNL     1      -0.141   9.207  20.952  0.00  0.00    +0.000 N 
ATOM      8  H   UNL     1      -0.546   8.424  21.463  0.00  0.00    +0.000 HD
BRANCH   7   9
ATOM      9  S   UNL     1       0.248  10.467  22.011  0.00  0.00    +0.000 S 
ATOM     10  O   UNL     1       0.402   9.860  23.318  0.00  0.00    +0.000 OA
ATOM     11  O   UNL     1       1.307  11.264  21.434  0.00  0.00    +0.000 OA
BRANCH   9  12
ATOM     12  C   UNL     1      -1.248  11.423  22.022  0.00  0.00    +0.000 A 
ATOM     13  C   UNL     1      -1.695  12.042  20.852  0.00  0.00    +0.000 A 
ATOM     14  C   UNL     1      -2.825  12.862  20.905  0.00  0.00    +0.000 A 
ATOM     15  C   UNL     1      -3.492  13.053  22.117  0.00  0.00    +0.000 A 
ATOM     16 CL   UNL     1      -4.849  14.107  22.190  0.00  0.00    +0.000 Cl
ATOM     17  C   UNL     1      -3.061  12.406  23.276  0.00  0.00    +0.000 A 
ATOM     18  C   UNL     1      -1.944  11.573  23.226  0.00  0.00    +0.000 A 
ENDBRANCH   9  12
ENDBRANCH   7   9
ENDBRANCH   5   7
BRANCH   1  19
ATOM     19  O   UNL     1       3.699   6.687  19.308  0.00  0.00    +0.000 OA
BRANCH  19  25
ATOM     20  C   UNL     1       4.791   4.455  16.629  0.00  0.00    +0.000 A 
ATOM     21  C   UNL     1       3.824   3.445  16.762  0.00  0.00    +0.000 A 
ATOM     22  C   UNL     1       2.831   3.593  17.709  0.00  0.00    +0.000 A 
ATOM     23  C   UNL     1       1.825   2.520  17.984  0.00  0.00    +0.000 C 
ATOM     24  N   UNL     1       2.749   4.694  18.477  0.00  0.00    +0.000 NA
ATOM     25  C   UNL     1       3.735   5.627  18.401  0.00  0.00    +0.000 A 
ATOM     26  C   UNL     1       4.781   5.559  17.492  0.00  0.00    +0.000 A 
BRANCH  20  27
ATOM     27  C   UNL     1       5.803   4.232  15.572  0.00  0.00    +0.000 C 
ATOM     28  O   UNL     1       6.951   3.902  15.821  0.00  0.00    +0.000 OA
BRANCH  27  29
ATOM     29  O   UNL     1       5.246   4.346  14.347  0.00  0.00    +0.000 OA
BRANCH  29  31
ATOM     30  C   UNL     1       5.107   3.278  12.167  0.00  0.00    +0.000 C 
ATOM     31  C   UNL     1       6.017   3.805  13.262  0.00  0.00    +0.000 C 
ENDBRANCH  29  31
ENDBRANCH  27  29
ENDBRANCH  20  27
BRANCH  26  32
ATOM     32  C   UNL     1       5.819   6.540  17.525  0.00  0.00    +0.000 C 
ATOM     33  N   UNL     1       6.666   7.334  17.579  0.00  0.00    +0.000 NA
ENDBRANCH  26  32
ENDBRANCH  19  25
ENDBRANCH   1  19
TORSDOF 9
ENDMDL
MODEL 2
REMARK VINA RESULT:      -7.5      2.636      4.037
REMARK  Name = 
REMARK  11 active torsions:
REMARK  status: ('A' for Active; 'I' for Inactive)
REMARK    1  A    between atoms: C_1  and  C_2
REMARK    2  A    between atoms: C_2  and  O_3
REMARK    3  A    between atoms: O_3  and  C_4
REMARK    4  A    between atoms: C_4  and  C_6
REMARK    5  A    between atoms: C_8  and  C_9
REMARK    6  A    between atoms: C_11  and  O_12
REMARK    7  A    between atoms: O_12  and  C_13
REMARK    8  A    between atoms: C_17  and  N_18
REMARK    9  A    between atoms: N_18  and  S_19
REMARK   10  A    between atoms: S_19  and  C_22
REMARK   11  A    between atoms: C_30  and  C_31
REMARK                            x       y       z     vdW  Elec       q    Type
REMARK                         _______ _______ _______ _____ _____    ______ ____
ROOT
ATOM      1  C   UNL     1       2.336   7.843  18.304  0.00  0.00    +0.000 A 
ATOM      2  C   UNL     1       2.275   7.445  19.640  0.00  0.00    +0.000 A 
ATOM      3  C   UNL     1       1.513   8.183  20.549  0.00  0.00    +0.000 A 
ATOM      4  C   UNL     1       0.832   9.324  20.122  0.00  0.00    +0.000 A 
ATOM      5  C   UNL     1       0.869   9.700  18.780  0.00  0.00    +0.000 A 
ATOM      6  C   UNL     1       1.577   8.934  17.861  0.00  0.00    +0.000 A 
ENDROOT
BRANCH   5   7
ATOM      7  N   UNL     1       0.169  10.869  18.365  0.00  0.00    +0.000 N 
ATOM      8  H   UNL     1      -0.843  10.784  18.283  0.00  0.00    +0.000 HD
BRANCH   7   9
ATOM      9  S   UNL     1       0.583  12.344  19.080  0.00  0.00    +0.000 S 
ATOM     10  O   UNL     1       1.907  12.163  19.638  0.00  0.00    +0.000 OA
ATOM     11  O   UNL     1       0.309  13.417  18.150  0.00  0.00    +0.000 OA
BRANCH   9  12
ATOM     12  C   UNL     1      -0.571  12.445  20.425  0.00  0.00    +0.000 A 
ATOM     13  C   UNL     1      -0.117  12.393  21.747  0.00  0.00    +0.000 A 
ATOM     14  C   UNL     1      -1.049  12.384  22.786  0.00  0.00    +0.000 A 
ATOM     15  C   UNL     1      -2.416  12.427  22.499  0.00  0.00    +0.000 A 
ATOM     16 CL   UNL     1      -3.562  12.358  23.779  0.00  0.00    +0.000 Cl
ATOM     17  C   UNL     1      -2.863  12.511  21.179  0.00  0.00    +0.000 A 
ATOM     18  C   UNL     1      -1.937  12.538  20.137  0.00  0.00    +0.000 A 
ENDBRANCH   9  12
ENDBRANCH   7   9
ENDBRANCH   5   7
BRANCH   1  19
ATOM     19  O   UNL     1       3.145   7.110  17.457  0.00  0.00    +0.000 OA
BRANCH  19  25
ATOM     20  C   UNL     1       4.222   3.861  18.733  0.00  0.00    +0.000 A 
ATOM     21  C   UNL     1       5.562   4.161  19.027  0.00  0.00    +0.000 A 
ATOM     22  C   UNL     1       6.017   5.449  18.827  0.00  0.00    +0.000 A 
ATOM     23  C   UNL     1       7.452   5.827  19.018  0.00  0.00    +0.000 C 
ATOM     24  N   UNL     1       5.197   6.424  18.396  0.00  0.00    +0.000 NA
ATOM     25  C   UNL     1       3.926   6.109  18.034  0.00  0.00    +0.000 A 
ATOM     26  C   UNL     1       3.384   4.840  18.184  0.00  0.00    +0.000 A 
BRANCH  20  27
ATOM     27  C   UNL     1       3.809   2.465  19.002  0.00  0.00    +0.000 C 
ATOM     28  O   UNL     1       3.780   1.609  18.133  0.00  0.00    +0.000 OA
BRANCH  27  29
ATOM     29  O   UNL     1       3.583   2.279  20.321  0.00  0.00    +0.000 OA
BRANCH  29  31
ATOM     30  C   UNL     1       2.059   3.739  21.528  0.00  0.00    +0.000 C 
ATOM     31  C   UNL     1       2.222   2.447  20.747  0.00  0.00    +0.000 C 
ENDBRANCH  29  31
ENDBRANCH  27  29
ENDBRANCH  20  27
BRANCH  26  32
ATOM     32  C   UNL     1       2.064   4.568  17.710  0.00  0.00    +0.000 C 
ATOM     33  N   UNL     1       0.980   4.369  17.339  0.00  0.00    +0.000 NA
ENDBRANCH  26  32
ENDBRANCH  19  25
ENDBRANCH   1  19
TORSDOF 9
ENDMDL
MODEL 3
REMARK VINA RESULT:      -7.5      0.632      1.087
REMARK  Name = 
REMARK  11 active torsions:
REMARK  status: ('A' for Active; 'I' for Inactive)
REMARK    1  A    between atoms: C_1  and  C_2
REMARK    2  A    between atoms: C_2  and  O_3
REMARK    3  A    between atoms: O_3  and  C_4
REMARK    4  A    between atoms: C_4  and  C_6
REMARK    5  A    between atoms: C_8  and  C_9
REMARK    6  A    between atoms: C_11  and  O_12
REMARK    7  A    between atoms: O_12  and  C_13
REMARK    8  A    between atoms: C_17  and  N_18
REMARK    9  A    between atoms: N_18  and  S_19
REMARK   10  A    between atoms: S_19  and  C_22
REMARK   11  A    between atoms: C_30  and  C_31
REMARK                            x       y       z     vdW  Elec       q    Type
REMARK                         _______ _______ _______ _____ _____    ______ ____
ROOT
ATOM      1  C   UNL     1       2.439   7.788  19.257  0.00  0.00    +0.000 A 
ATOM      2  C   UNL     1       2.414   8.399  18.003  0.00  0.00    +0.000 A 
ATOM      3  C   UNL     1       1.459   9.381  17.728  0.00  0.00    +0.000 A 
ATOM      4  C   UNL     1       0.523   9.734  18.702  0.00  0.00    +0.000 A 
ATOM      5  C   UNL     1       0.573   9.145  19.965  0.00  0.00    +0.000 A 
ATOM      6  C   UNL     1       1.559   8.212  20.261  0.00  0.00    +0.000 A 
ENDROOT
BRANCH   5   7
ATOM      7  N   UNL     1      -0.392   9.517  20.945  0.00  0.00    +0.000 N 
ATOM      8  H   UNL     1      -0.839   8.753  21.451  0.00  0.00    +0.000 HD
BRANCH   7   9
ATOM      9  S   UNL     1      -0.014  10.784  21.999  0.00  0.00    +0.000 S 
ATOM     10  O   UNL     1       0.141  10.184  23.308  0.00  0.00    +0.000 OA
ATOM     11  O   UNL     1       1.041  11.586  21.420  0.00  0.00    +0.000 OA
BRANCH   9  12
ATOM     12  C   UNL     1      -1.516  11.730  22.002  0.00  0.00    +0.000 A 
ATOM     13  C   UNL     1      -2.276  11.839  23.170  0.00  0.00    +0.000 A 
ATOM     14  C   UNL     1      -3.498  12.513  23.126  0.00  0.00    +0.000 A 
ATOM     15  C   UNL     1      -3.947  13.068  21.925  0.00  0.00    +0.000 A 
ATOM     16 CL   UNL     1      -5.478  13.847  21.862  0.00  0.00    +0.000 Cl
ATOM     17  C   UNL     1      -3.170  12.983  20.769  0.00  0.00    +0.000 A 
ATOM     18  C   UNL     1      -1.940  12.327  20.810  0.00  0.00    +0.000 A 
ENDBRANCH   9  12
ENDBRANCH   7   9
ENDBRANCH   5   7
BRANCH   1  19
ATOM     19  O   UNL     1       3.369   6.787  19.460  0.00  0.00    +0.000 OA
BRANCH  19  25
ATOM     20  C   UNL     1       4.193   4.245  16.968  0.00  0.00    +0.000 A 
ATOM     21  C   UNL     1       3.118   3.365  17.173  0.00  0.00    +0.000 A 
ATOM     22  C   UNL     1       2.151   3.696  18.100  0.00  0.00    +0.000 A 
ATOM     23  C   UNL     1       1.031   2.769  18.451  0.00  0.00    +0.000 C 
ATOM     24  N   UNL     1       2.197   4.856  18.780  0.00  0.00    +0.000 NA
ATOM     25  C   UNL     1       3.281   5.663  18.638  0.00  0.00    +0.000 A 
ATOM     26  C   UNL     1       4.310   5.406  17.743  0.00  0.00    +0.000 A 
BRANCH  20  27
ATOM     27  C   UNL     1       5.169   3.828  15.937  0.00  0.00    +0.000 C 
ATOM     28  O   UNL     1       5.760   2.762  15.985  0.00  0.00    +0.000 OA
BRANCH  27  29
ATOM     29  O   UNL     1       5.219   4.730  14.933  0.00  0.00    +0.000 OA
BRANCH  29  31
ATOM     30  C   UNL     1       6.040   3.670  12.904  0.00  0.00    +0.000 C 
ATOM     31  C   UNL     1       6.347   4.617  14.051  0.00  0.00    +0.000 C 
ENDBRANCH  29  31
ENDBRANCH  27  29
ENDBRANCH  20  27
BRANCH  26  32
ATOM     32  C   UNL     1       5.453   6.263  17.706  0.00  0.00    +0.000 C 
ATOM     33  N   UNL     1       6.375   6.972  17.700  0.00  0.00    +0.000 NA
ENDBRANCH  26  32
ENDBRANCH  19  25
ENDBRANCH   1  19
TORSDOF 9
ENDMDL
MODEL 4
REMARK VINA RESULT:      -7.4      2.838      4.220
REMARK  Name = 
REMARK  11 active torsions:
REMARK  status: ('A' for Active; 'I' for Inactive)
REMARK    1  A    between atoms: C_1  and  C_2
REMARK    2  A    between atoms: C_2  and  O_3
REMARK    3  A    between atoms: O_3  and  C_4
REMARK    4  A    between atoms: C_4  and  C_6
REMARK    5  A    between atoms: C_8  and  C_9
REMARK    6  A    between atoms: C_11  and  O_12
REMARK    7  A    between atoms: O_12  and  C_13
REMARK    8  A    between atoms: C_17  and  N_18
REMARK    9  A    between atoms: N_18  and  S_19
REMARK   10  A    between atoms: S_19  and  C_22
REMARK   11  A    between atoms: C_30  and  C_31
REMARK                            x       y       z     vdW  Elec       q    Type
REMARK                         _______ _______ _______ _____ _____    ______ ____
ROOT
ATOM      1  C   UNL     1       2.359   7.799  18.358  0.00  0.00    +0.000 A 
ATOM      2  C   UNL     1       2.194   7.369  19.675  0.00  0.00    +0.000 A 
ATOM      3  C   UNL     1       1.546   8.193  20.598  0.00  0.00    +0.000 A 
ATOM      4  C   UNL     1       1.080   9.448  20.204  0.00  0.00    +0.000 A 
ATOM      5  C   UNL     1       1.217   9.860  18.880  0.00  0.00    +0.000 A 
ATOM      6  C   UNL     1       1.808   9.018  17.944  0.00  0.00    +0.000 A 
ENDROOT
BRANCH   5   7
ATOM      7  N   UNL     1       0.738  11.146  18.498  0.00  0.00    +0.000 N 
ATOM      8  H   UNL     1       1.080  11.510  17.609  0.00  0.00    +0.000 HD
BRANCH   7   9
ATOM      9  S   UNL     1      -0.913  11.468  18.672  0.00  0.00    +0.000 S 
ATOM     10  O   UNL     1      -1.236  12.465  17.672  0.00  0.00    +0.000 OA
ATOM     11  O   UNL     1      -1.638  10.219  18.737  0.00  0.00    +0.000 OA
BRANCH   9  12
ATOM     12  C   UNL     1      -0.975  12.249  20.266  0.00  0.00    +0.000 A 
ATOM     13  C   UNL     1      -2.127  12.152  21.052  0.00  0.00    +0.000 A 
ATOM     14  C   UNL     1      -2.186  12.848  22.262  0.00  0.00    +0.000 A 
ATOM     15  C   UNL     1      -1.102  13.628  22.672  0.00  0.00    +0.000 A 
ATOM     16 CL   UNL     1      -1.200  14.528  24.133  0.00  0.00    +0.000 Cl
ATOM     17  C   UNL     1       0.058  13.695  21.899  0.00  0.00    +0.000 A 
ATOM     18  C   UNL     1       0.130  12.989  20.699  0.00  0.00    +0.000 A 
ENDBRANCH   9  12
ENDBRANCH   7   9
ENDBRANCH   5   7
BRANCH   1  19
ATOM     19  O   UNL     1       3.052   6.970  17.499  0.00  0.00    +0.000 OA
BRANCH  19  25
ATOM     20  C   UNL     1       4.163   3.731  18.774  0.00  0.00    +0.000 A 
ATOM     21  C   UNL     1       5.500   4.045  19.069  0.00  0.00    +0.000 A 
ATOM     22  C   UNL     1       5.941   5.338  18.870  0.00  0.00    +0.000 A 
ATOM     23  C   UNL     1       7.372   5.731  19.062  0.00  0.00    +0.000 C 
ATOM     24  N   UNL     1       5.112   6.305  18.438  0.00  0.00    +0.000 NA
ATOM     25  C   UNL     1       3.844   5.976  18.076  0.00  0.00    +0.000 A 
ATOM     26  C   UNL     1       3.316   4.702  18.224  0.00  0.00    +0.000 A 
BRANCH  20  27
ATOM     27  C   UNL     1       3.765   2.331  19.042  0.00  0.00    +0.000 C 
ATOM     28  O   UNL     1       3.694   1.488  18.163  0.00  0.00    +0.000 OA
BRANCH  27  29
ATOM     29  O   UNL     1       3.602   2.125  20.367  0.00  0.00    +0.000 OA
BRANCH  29  31
ATOM     30  C   UNL     1       1.510   2.548  21.532  0.00  0.00    +0.000 C 
ATOM     31  C   UNL     1       2.835   3.122  21.060  0.00  0.00    +0.000 C 
ENDBRANCH  29  31
ENDBRANCH  27  29
ENDBRANCH  20  27
BRANCH  26  32
ATOM     32  C   UNL     1       1.998   4.416  17.750  0.00  0.00    +0.000 C 
ATOM     33  N   UNL     1       0.933   4.158  17.363  0.00  0.00    +0.000 NA
ENDBRANCH  26  32
ENDBRANCH  19  25
ENDBRANCH   1  19
TORSDOF 9
ENDMDL
MODEL 5
REMARK VINA RESULT:      -7.3      4.202     10.130
REMARK  Name = 
REMARK  11 active torsions:
REMARK  status: ('A' for Active; 'I' for Inactive)
REMARK    1  A    between atoms: C_1  and  C_2
REMARK    2  A    between atoms: C_2  and  O_3
REMARK    3  A    between atoms: O_3  and  C_4
REMARK    4  A    between atoms: C_4  and  C_6
REMARK    5  A    between atoms: C_8  and  C_9
REMARK    6  A    between atoms: C_11  and  O_12
REMARK    7  A    between atoms: O_12  and  C_13
REMARK    8  A    between atoms: C_17  and  N_18
REMARK    9  A    between atoms: N_18  and  S_19
REMARK   10  A    between atoms: S_19  and  C_22
REMARK   11  A    between atoms: C_30  and  C_31
REMARK                            x       y       z     vdW  Elec       q    Type
REMARK                         _______ _______ _______ _____ _____    ______ ____
ROOT
ATOM      1  C   UNL     1       1.823   8.516  19.143  0.00  0.00    +0.000 A 
ATOM      2  C   UNL     1       1.369   8.206  20.426  0.00  0.00    +0.000 A 
ATOM      3  C   UNL     1       1.503   6.903  20.913  0.00  0.00    +0.000 A 
ATOM      4  C   UNL     1       2.074   5.915  20.110  0.00  0.00    +0.000 A 
ATOM      5  C   UNL     1       2.557   6.236  18.842  0.00  0.00    +0.000 A 
ATOM      6  C   UNL     1       2.480   7.544  18.378  0.00  0.00    +0.000 A 
ENDROOT
BRANCH   5   7
ATOM      7  N   UNL     1       3.134   5.213  18.037  0.00  0.00    +0.000 N 
ATOM      8  H   UNL     1       3.088   5.353  17.028  0.00  0.00    +0.000 HD
BRANCH   7   9
ATOM      9  S   UNL     1       4.648   4.605  18.481  0.00  0.00    +0.000 S 
ATOM     10  O   UNL     1       5.242   5.601  19.348  0.00  0.00    +0.000 OA
ATOM     11  O   UNL     1       4.501   3.234  18.916  0.00  0.00    +0.000 OA
BRANCH   9  12
ATOM     12  C   UNL     1       5.527   4.625  16.938  0.00  0.00    +0.000 A 
ATOM     13  C   UNL     1       6.837   5.107  16.881  0.00  0.00    +0.000 A 
ATOM     14  C   UNL     1       7.477   5.196  15.643  0.00  0.00    +0.000 A 
ATOM     15  C   UNL     1       6.806   4.805  14.482  0.00  0.00    +0.000 A 
ATOM     16 CL   UNL     1       7.575   4.970  12.953  0.00  0.00    +0.000 Cl
ATOM     17  C   UNL     1       5.509   4.294  14.548  0.00  0.00    +0.000 A 
ATOM     18  C   UNL     1       4.871   4.186  15.783  0.00  0.00    +0.000 A 
ENDBRANCH   9  12
ENDBRANCH   7   9
ENDBRANCH   5   7
BRANCH   1  19
ATOM     19  O   UNL     1       1.620   9.804  18.690  0.00  0.00    +0.000 OA
BRANCH  19  25
ATOM     20  C   UNL     1      -1.348  11.738  19.589  0.00  0.00    +0.000 A 
ATOM     21  C   UNL     1      -2.226  11.290  18.589  0.00  0.00    +0.000 A 
ATOM     22  C   UNL     1      -1.790  10.330  17.699  0.00  0.00    +0.000 A 
ATOM     23  C   UNL     1      -2.626   9.874  16.544  0.00  0.00    +0.000 C 
ATOM     24  N   UNL     1      -0.562   9.789  17.793  0.00  0.00    +0.000 NA
ATOM     25  C   UNL     1       0.310  10.286  18.709  0.00  0.00    +0.000 A 
ATOM     26  C   UNL     1      -0.031  11.261  19.635  0.00  0.00    +0.000 A 
BRANCH  20  27
ATOM     27  C   UNL     1      -1.902  12.747  20.518  0.00  0.00    +0.000 C 
ATOM     28  O   UNL     1      -2.187  12.490  21.676  0.00  0.00    +0.000 OA
BRANCH  27  29
ATOM     29  O   UNL     1      -1.942  13.964  19.932  0.00  0.00    +0.000 OA
BRANCH  29  31
ATOM     30  C   UNL     1      -1.077  16.221  19.668  0.00  0.00    +0.000 C 
ATOM     31  C   UNL     1      -0.828  14.826  20.213  0.00  0.00    +0.000 C 
ENDBRANCH  29  31
ENDBRANCH  27  29
ENDBRANCH  20  27
BRANCH  26  32
ATOM     32  C   UNL     1       0.964  11.785  20.517  0.00  0.00    +0.000 C 
ATOM     33  N   UNL     1       1.754  12.230  21.244  0.00  0.00    +0.000 NA
ENDBRANCH  26  32
ENDBRANCH  19  25
ENDBRANCH   1  19
TORSDOF 9
ENDMDL
MODEL 6
REMARK VINA RESULT:      -7.3      1.684      2.215
REMARK  Name = 
REMARK  11 active torsions:
REMARK  status: ('A' for Active; 'I' for Inactive)
REMARK    1  A    between atoms: C_1  and  C_2
REMARK    2  A    between atoms: C_2  and  O_3
REMARK    3  A    between atoms: O_3  and  C_4
REMARK    4  A    between atoms: C_4  and  C_6
REMARK    5  A    between atoms: C_8  and  C_9
REMARK    6  A    between atoms: C_11  and  O_12
REMARK    7  A    between atoms: O_12  and  C_13
REMARK    8  A    between atoms: C_17  and  N_18
REMARK    9  A    between atoms: N_18  and  S_19
REMARK   10  A    between atoms: S_19  and  C_22
REMARK   11  A    between atoms: C_30  and  C_31
REMARK                            x       y       z     vdW  Elec       q    Type
REMARK                         _______ _______ _______ _____ _____    ______ ____
ROOT
ATOM      1  C   UNL     1       2.415   8.016  18.531  0.00  0.00    +0.000 A 
ATOM      2  C   UNL     1       2.251   7.116  19.586  0.00  0.00    +0.000 A 
ATOM      3  C   UNL     1       1.570   7.514  20.738  0.00  0.00    +0.000 A 
ATOM      4  C   UNL     1       1.072   8.814  20.839  0.00  0.00    +0.000 A 
ATOM      5  C   UNL     1       1.209   9.700  19.771  0.00  0.00    +0.000 A 
ATOM      6  C   UNL     1       1.833   9.288  18.599  0.00  0.00    +0.000 A 
ENDROOT
BRANCH   5   7
ATOM      7  N   UNL     1       0.696  11.023  19.894  0.00  0.00    +0.000 N 
ATOM      8  H   UNL     1       1.330  11.778  19.634  0.00  0.00    +0.000 HD
BRANCH   7   9
ATOM      9  S   UNL     1      -0.862  11.333  19.318  0.00  0.00    +0.000 S 
ATOM     10  O   UNL     1      -0.752  12.502  18.469  0.00  0.00    +0.000 OA
ATOM     11  O   UNL     1      -1.438  10.105  18.818  0.00  0.00    +0.000 OA
BRANCH   9  12
ATOM     12  C   UNL     1      -1.721  11.808  20.797  0.00  0.00    +0.000 A 
ATOM     13  C   UNL     1      -1.198  11.478  22.051  0.00  0.00    +0.000 A 
ATOM     14  C   UNL     1      -1.936  11.783  23.197  0.00  0.00    +0.000 A 
ATOM     15  C   UNL     1      -3.179  12.410  23.081  0.00  0.00    +0.000 A 
ATOM     16 CL   UNL     1      -4.109  12.732  24.491  0.00  0.00    +0.000 Cl
ATOM     17  C   UNL     1      -3.682  12.766  21.829  0.00  0.00    +0.000 A 
ATOM     18  C   UNL     1      -2.943  12.481  20.682  0.00  0.00    +0.000 A 
ENDBRANCH   9  12
ENDBRANCH   7   9
ENDBRANCH   5   7
BRANCH   1  19
ATOM     19  O   UNL     1       3.140   7.590  17.437  0.00  0.00    +0.000 OA
BRANCH  19  25
ATOM     20  C   UNL     1       5.419   4.734  17.396  0.00  0.00    +0.000 A 
ATOM     21  C   UNL     1       4.505   3.706  17.679  0.00  0.00    +0.000 A 
ATOM     22  C   UNL     1       3.168   4.021  17.820  0.00  0.00    +0.000 A 
ATOM     23  C   UNL     1       2.147   3.004  18.221  0.00  0.00    +0.000 C 
ATOM     24  N   UNL     1       2.721   5.278  17.654  0.00  0.00    +0.000 NA
ATOM     25  C   UNL     1       3.620   6.280  17.463  0.00  0.00    +0.000 A 
ATOM     26  C   UNL     1       4.983   6.064  17.325  0.00  0.00    +0.000 A 
BRANCH  20  27
ATOM     27  C   UNL     1       6.826   4.307  17.234  0.00  0.00    +0.000 C 
ATOM     28  O   UNL     1       7.646   4.390  18.133  0.00  0.00    +0.000 OA
BRANCH  27  29
ATOM     29  O   UNL     1       7.017   3.741  16.022  0.00  0.00    +0.000 OA
BRANCH  29  31
ATOM     30  C   UNL     1       6.105   4.083  13.794  0.00  0.00    +0.000 C 
ATOM     31  C   UNL     1       6.979   4.641  14.903  0.00  0.00    +0.000 C 
ENDBRANCH  29  31
ENDBRANCH  27  29
ENDBRANCH  20  27
BRANCH  26  32
ATOM     32  C   UNL     1       5.873   7.175  17.202  0.00  0.00    +0.000 C 
ATOM     33  N   UNL     1       6.575   8.096  17.100  0.00  0.00    +0.000 NA
ENDBRANCH  26  32
ENDBRANCH  19  25
ENDBRANCH   1  19
TORSDOF 9
ENDMDL
MODEL 7
REMARK VINA RESULT:      -7.3      2.842      3.461
REMARK  Name = 
REMARK  11 active torsions:
REMARK  status: ('A' for Active; 'I' for Inactive)
REMARK    1  A    between atoms: C_1  and  C_2
REMARK    2  A    between atoms: C_2  and  O_3
REMARK    3  A    between atoms: O_3  and  C_4
REMARK    4  A    between atoms: C_4  and  C_6
REMARK    5  A    between atoms: C_8  and  C_9
REMARK    6  A    between atoms: C_11  and  O_12
REMARK    7  A    between atoms: O_12  and  C_13
REMARK    8  A    between atoms: C_17  and  N_18
REMARK    9  A    between atoms: N_18  and  S_19
REMARK   10  A    between atoms: S_19  and  C_22
REMARK   11  A    between atoms: C_30  and  C_31
REMARK                            x       y       z     vdW  Elec       q    Type
REMARK                         _______ _______ _______ _____ _____    ______ ____
ROOT
ATOM      1  C   UNL     1       2.475   8.093  18.527  0.00  0.00    +0.000 A 
ATOM      2  C   UNL     1       2.393   7.253  19.638  0.00  0.00    +0.000 A 
ATOM      3  C   UNL     1       1.524   7.570  20.685  0.00  0.00    +0.000 A 
ATOM      4  C   UNL     1       0.755   8.733  20.624  0.00  0.00    +0.000 A 
ATOM      5  C   UNL     1       0.815   9.552  19.498  0.00  0.00    +0.000 A 
ATOM      6  C   UNL     1       1.634   9.209  18.428  0.00  0.00    +0.000 A 
ENDROOT
BRANCH   5   7
ATOM      7  N   UNL     1       0.024  10.736  19.455  0.00  0.00    +0.000 N 
ATOM      8  H   UNL     1      -0.979  10.605  19.333  0.00  0.00    +0.000 HD
BRANCH   7   9
ATOM      9  S   UNL     1       0.328  11.941  20.602  0.00  0.00    +0.000 S 
ATOM     10  O   UNL     1      -0.968  12.443  21.011  0.00  0.00    +0.000 OA
ATOM     11  O   UNL     1       1.273  11.444  21.576  0.00  0.00    +0.000 OA
BRANCH   9  12
ATOM     12  C   UNL     1       1.119  13.196  19.626  0.00  0.00    +0.000 A 
ATOM     13  C   UNL     1       2.304  12.912  18.941  0.00  0.00    +0.000 A 
ATOM     14  C   UNL     1       2.956  13.938  18.253  0.00  0.00    +0.000 A 
ATOM     15  C   UNL     1       2.421  15.228  18.255  0.00  0.00    +0.000 A 
ATOM     16 CL   UNL     1       3.255  16.501  17.455  0.00  0.00    +0.000 Cl
ATOM     17  C   UNL     1       1.220  15.500  18.914  0.00  0.00    +0.000 A 
ATOM     18  C   UNL     1       0.556  14.476  19.588  0.00  0.00    +0.000 A 
ENDBRANCH   9  12
ENDBRANCH   7   9
ENDBRANCH   5   7
BRANCH   1  19
ATOM     19  O   UNL     1       3.388   7.763  17.545  0.00  0.00    +0.000 OA
BRANCH  19  25
ATOM     20  C   UNL     1       5.521   4.807  17.298  0.00  0.00    +0.000 A 
ATOM     21  C   UNL     1       4.559   3.809  17.528  0.00  0.00    +0.000 A 
ATOM     22  C   UNL     1       3.242   4.180  17.704  0.00  0.00    +0.000 A 
ATOM     23  C   UNL     1       2.174   3.191  18.054  0.00  0.00    +0.000 C 
ATOM     24  N   UNL     1       2.856   5.466  17.623  0.00  0.00    +0.000 NA
ATOM     25  C   UNL     1       3.802   6.432  17.484  0.00  0.00    +0.000 A 
ATOM     26  C   UNL     1       5.152   6.158  17.315  0.00  0.00    +0.000 A 
BRANCH  20  27
ATOM     27  C   UNL     1       6.904   4.322  17.092  0.00  0.00    +0.000 C 
ATOM     28  O   UNL     1       7.758   4.385  17.961  0.00  0.00    +0.000 OA
BRANCH  27  29
ATOM     29  O   UNL     1       7.029   3.734  15.882  0.00  0.00    +0.000 OA
BRANCH  29  31
ATOM     30  C   UNL     1       6.044   4.030  13.678  0.00  0.00    +0.000 C 
ATOM     31  C   UNL     1       6.945   4.616  14.752  0.00  0.00    +0.000 C 
ENDBRANCH  29  31
ENDBRANCH  27  29
ENDBRANCH  20  27
BRANCH  26  32
ATOM     32  C   UNL     1       6.094   7.231  17.251  0.00  0.00    +0.000 C 
ATOM     33  N   UNL     1       6.876   8.090  17.216  0.00  0.00    +0.000 NA
ENDBRANCH  26  32
ENDBRANCH  19  25
ENDBRANCH   1  19
TORSDOF 9
ENDMDL
MODEL 8
REMARK VINA RESULT:      -7.2      1.541      1.982
REMARK  Name = 
REMARK  11 active torsions:
REMARK  status: ('A' for Active; 'I' for Inactive)
REMARK    1  A    between atoms: C_1  and  C_2
REMARK    2  A    between atoms: C_2  and  O_3
REMARK    3  A    between atoms: O_3  and  C_4
REMARK    4  A    between atoms: C_4  and  C_6
REMARK    5  A    between atoms: C_8  and  C_9
REMARK    6  A    between atoms: C_11  and  O_12
REMARK    7  A    between atoms: O_12  and  C_13
REMARK    8  A    between atoms: C_17  and  N_18
REMARK    9  A    between atoms: N_18  and  S_19
REMARK   10  A    between atoms: S_19  and  C_22
REMARK   11  A    between atoms: C_30  and  C_31
REMARK                            x       y       z     vdW  Elec       q    Type
REMARK                         _______ _______ _______ _____ _____    ______ ____
ROOT
ATOM      1  C   UNL     1       2.201   8.270  18.829  0.00  0.00    +0.000 A 
ATOM      2  C   UNL     1       2.165   7.460  19.964  0.00  0.00    +0.000 A 
ATOM      3  C   UNL     1       1.337   7.804  21.036  0.00  0.00    +0.000 A 
ATOM      4  C   UNL     1       0.564   8.964  20.975  0.00  0.00    +0.000 A 
ATOM      5  C   UNL     1       0.578   9.753  19.825  0.00  0.00    +0.000 A 
ATOM      6  C   UNL     1       1.354   9.382  18.733  0.00  0.00    +0.000 A 
ENDROOT
BRANCH   5   7
ATOM      7  N   UNL     1      -0.217  10.935  19.783  0.00  0.00    +0.000 N 
ATOM      8  H   UNL     1      -1.170  10.851  20.134  0.00  0.00    +0.000 HD
BRANCH   7   9
ATOM      9  S   UNL     1       0.480  12.385  20.303  0.00  0.00    +0.000 S 
ATOM     10  O   UNL     1       1.717  12.022  20.963  0.00  0.00    +0.000 OA
ATOM     11  O   UNL     1       0.470  13.336  19.214  0.00  0.00    +0.000 OA
BRANCH   9  12
ATOM     12  C   UNL     1      -0.667  12.926  21.546  0.00  0.00    +0.000 A 
ATOM     13  C   UNL     1      -0.366  14.030  22.349  0.00  0.00    +0.000 A 
ATOM     14  C   UNL     1      -1.241  14.382  23.378  0.00  0.00    +0.000 A 
ATOM     15  C   UNL     1      -2.402  13.635  23.593  0.00  0.00    +0.000 A 
ATOM     16 CL   UNL     1      -3.449  14.038  24.896  0.00  0.00    +0.000 Cl
ATOM     17  C   UNL     1      -2.715  12.554  22.768  0.00  0.00    +0.000 A 
ATOM     18  C   UNL     1      -1.854  12.207  21.728  0.00  0.00    +0.000 A 
ENDBRANCH   9  12
ENDBRANCH   7   9
ENDBRANCH   5   7
BRANCH   1  19
ATOM     19  O   UNL     1       3.074   7.915  17.820  0.00  0.00    +0.000 OA
BRANCH  19  25
ATOM     20  C   UNL     1       4.871   4.784  17.259  0.00  0.00    +0.000 A 
ATOM     21  C   UNL     1       3.836   3.873  17.527  0.00  0.00    +0.000 A 
ATOM     22  C   UNL     1       2.581   4.359  17.832  0.00  0.00    +0.000 A 
ATOM     23  C   UNL     1       1.452   3.461  18.228  0.00  0.00    +0.000 C 
ATOM     24  N   UNL     1       2.322   5.679  17.841  0.00  0.00    +0.000 NA
ATOM     25  C   UNL     1       3.346   6.555  17.664  0.00  0.00    +0.000 A 
ATOM     26  C   UNL     1       4.643   6.162  17.368  0.00  0.00    +0.000 A 
BRANCH  20  27
ATOM     27  C   UNL     1       6.177   4.179  16.913  0.00  0.00    +0.000 C 
ATOM     28  O   UNL     1       7.123   4.173  17.684  0.00  0.00    +0.000 OA
BRANCH  27  29
ATOM     29  O   UNL     1       6.119   3.575  15.706  0.00  0.00    +0.000 OA
BRANCH  29  31
ATOM     30  C   UNL     1       6.146   3.765  13.282  0.00  0.00    +0.000 C 
ATOM     31  C   UNL     1       6.625   4.343  14.603  0.00  0.00    +0.000 C 
ENDBRANCH  29  31
ENDBRANCH  27  29
ENDBRANCH  20  27
BRANCH  26  32
ATOM     32  C   UNL     1       5.680   7.140  17.270  0.00  0.00    +0.000 C 
ATOM     33  N   UNL     1       6.542   7.916  17.196  0.00  0.00    +0.000 NA
ENDBRANCH  26  32
ENDBRANCH  19  25
ENDBRANCH   1  19
TORSDOF 9
ENDMDL
MODEL 9
REMARK VINA RESULT:      -7.1      4.287     10.527
REMARK  Name = 
REMARK  11 active torsions:
REMARK  status: ('A' for Active; 'I' for Inactive)
REMARK    1  A    between atoms: C_1  and  C_2
REMARK    2  A    between atoms: C_2  and  O_3
REMARK    3  A    between atoms: O_3  and  C_4
REMARK    4  A    between atoms: C_4  and  C_6
REMARK    5  A    between atoms: C_8  and  C_9
REMARK    6  A    between atoms: C_11  and  O_12
REMARK    7  A    between atoms: O_12  and  C_13
REMARK    8  A    between atoms: C_17  and  N_18
REMARK    9  A    between atoms: N_18  and  S_19
REMARK   10  A    between atoms: S_19  and  C_22
REMARK   11  A    between atoms: C_30  and  C_31
REMARK                            x       y       z     vdW  Elec       q    Type
REMARK                         _______ _______ _______ _____ _____    ______ ____
ROOT
ATOM      1  C   UNL     1       0.595  10.230  19.792  0.00  0.00    +0.000 A 
ATOM      2  C   UNL     1       0.302   9.653  21.028  0.00  0.00    +0.000 A 
ATOM      3  C   UNL     1       0.805   8.387  21.340  0.00  0.00    +0.000 A 
ATOM      4  C   UNL     1       1.581   7.697  20.407  0.00  0.00    +0.000 A 
ATOM      5  C   UNL     1       1.898   8.291  19.186  0.00  0.00    +0.000 A 
ATOM      6  C   UNL     1       1.451   9.575  18.897  0.00  0.00    +0.000 A 
ENDROOT
BRANCH   5   7
ATOM      7  N   UNL     1       2.690   7.570  18.247  0.00  0.00    +0.000 N 
ATOM      8  H   UNL     1       3.553   8.020  17.945  0.00  0.00    +0.000 HD
BRANCH   7   9
ATOM      9  S   UNL     1       2.947   5.921  18.518  0.00  0.00    +0.000 S 
ATOM     10  O   UNL     1       3.635   5.824  19.789  0.00  0.00    +0.000 OA
ATOM     11  O   UNL     1       1.715   5.202  18.284  0.00  0.00    +0.000 OA
BRANCH   9  12
ATOM     12  C   UNL     1       4.103   5.506  17.235  0.00  0.00    +0.000 A 
ATOM     13  C   UNL     1       4.688   6.514  16.462  0.00  0.00    +0.000 A 
ATOM     14  C   UNL     1       5.524   6.160  15.402  0.00  0.00    +0.000 A 
ATOM     15  C   UNL     1       5.768   4.812  15.126  0.00  0.00    +0.000 A 
ATOM     16 CL   UNL     1       6.753   4.379  13.785  0.00  0.00    +0.000 Cl
ATOM     17  C   UNL     1       5.208   3.811  15.920  0.00  0.00    +0.000 A 
ATOM     18  C   UNL     1       4.386   4.158  16.991  0.00  0.00    +0.000 A 
ENDBRANCH   9  12
ENDBRANCH   7   9
ENDBRANCH   5   7
BRANCH   1  19
ATOM     19  O   UNL     1       0.031  11.459  19.513  0.00  0.00    +0.000 OA
BRANCH  19  25
ATOM     20  C   UNL     1      -3.533  12.243  19.688  0.00  0.00    +0.000 A 
ATOM     21  C   UNL     1      -3.968  11.606  18.514  0.00  0.00    +0.000 A 
ATOM     22  C   UNL     1      -3.050  10.908  17.755  0.00  0.00    +0.000 A 
ATOM     23  C   UNL     1      -3.408  10.288  16.442  0.00  0.00    +0.000 C 
ATOM     24  N   UNL     1      -1.765  10.794  18.135  0.00  0.00    +0.000 NA
ATOM     25  C   UNL     1      -1.334  11.481  19.225  0.00  0.00    +0.000 A 
ATOM     26  C   UNL     1      -2.178  12.222  20.041  0.00  0.00    +0.000 A 
BRANCH  20  27
ATOM     27  C   UNL     1      -4.585  12.945  20.457  0.00  0.00    +0.000 C 
ATOM     28  O   UNL     1      -4.838  14.128  20.296  0.00  0.00    +0.000 OA
BRANCH  27  29
ATOM     29  O   UNL     1      -5.254  12.081  21.251  0.00  0.00    +0.000 OA
BRANCH  29  31
ATOM     30  C   UNL     1      -7.201  10.951  20.331  0.00  0.00    +0.000 C 
ATOM     31  C   UNL     1      -6.686  12.123  21.147  0.00  0.00    +0.000 C 
ENDBRANCH  29  31
ENDBRANCH  27  29
ENDBRANCH  20  27
BRANCH  26  32
ATOM     32  C   UNL     1      -1.637  12.978  21.127  0.00  0.00    +0.000 C 
ATOM     33  N   UNL     1      -1.172  13.585  22.002  0.00  0.00    +0.000 NA
ENDBRANCH  26  32
ENDBRANCH  19  25
ENDBRANCH   1  19
TORSDOF 9
ENDMDL
