MODEL 1
REMARK VINA RESULT:      -8.8      0.000      0.000
REMARK  Name = 
REMARK  4 active torsions:
REMARK  status: ('A' for Active; 'I' for Inactive)
REMARK    1  A    between atoms: C_1  and  C_2
REMARK    2  A    between atoms: C_4  and  C_5
REMARK    3  A    between atoms: C_12  and  C_13
REMARK    4  A    between atoms: N_19  and  C_20
REMARK                            x       y       z     vdW  Elec       q    Type
REMARK                         _______ _______ _______ _____ _____    ______ ____
ROOT
ATOM      1  C   UNL     1       2.898   7.237  18.502  0.00  0.00    +0.000 C 
ATOM      2  O   UNL     1       3.601   7.602  17.558  0.00  0.00    +0.000 OA
ATOM      3  N   UNL     1       1.869   8.076  18.972  0.00  0.00    +0.000 N 
ATOM      4  C   UNL     1       0.914   7.743  20.036  0.00  0.00    +0.000 C 
ATOM      5  C   UNL     1       1.151   8.507  21.338  0.00  0.00    +0.000 C 
ATOM      6  C   UNL     1       1.083  10.036  21.261  0.00  0.00    +0.000 C 
ATOM      7  N   UNL     1       0.452  10.494  20.024  0.00  0.00    +0.000 N 
ATOM      8  C   UNL     1       1.348  10.573  18.855  0.00  0.00    +0.000 C 
ATOM      9  C   UNL     1       1.497   9.227  18.130  0.00  0.00    +0.000 C 
ENDROOT
BRANCH   7  10
ATOM     10  C   UNL     1      -0.754  11.181  20.002  0.00  0.00    +0.000 A 
ATOM     11  C   UNL     1      -1.674  11.050  18.952  0.00  0.00    +0.000 A 
ATOM     12  C   UNL     1      -2.885  11.751  18.950  0.00  0.00    +0.000 A 
ATOM     13 CL   UNL     1      -3.990  11.532  17.648  0.00  0.00    +0.000 Cl
ATOM     14  C   UNL     1      -3.210  12.611  19.990  0.00  0.00    +0.000 A 
ATOM     15  C   UNL     1      -2.310  12.760  21.036  0.00  0.00    +0.000 A 
ATOM     16 CL   UNL     1      -2.682  13.832  22.331  0.00  0.00    +0.000 Cl
ATOM     17  C   UNL     1      -1.104  12.053  21.047  0.00  0.00    +0.000 A 
ENDBRANCH   7  10
BRANCH   1  22
ATOM     18  C   UNL     1       2.106   3.550  21.558  0.00  0.00    +0.000 C 
ATOM     19  C   UNL     1       2.773   4.260  20.451  0.00  0.00    +0.000 A 
ATOM     20  N   UNL     1       3.764   3.851  19.697  0.00  0.00    +0.000 NA
ATOM     21  C   UNL     1       3.985   4.901  18.826  0.00  0.00    +0.000 A 
ATOM     22  C   UNL     1       3.084   5.922  19.087  0.00  0.00    +0.000 A 
ATOM     23  O   UNL     1       2.321   5.517  20.161  0.00  0.00    +0.000 OA
BRANCH  21  24
ATOM     24  C   UNL     1       5.010   4.811  17.800  0.00  0.00    +0.000 A 
ATOM     25  C   UNL     1       6.358   4.939  18.179  0.00  0.00    +0.000 A 
ATOM     26  C   UNL     1       7.393   4.756  17.256  0.00  0.00    +0.000 A 
ATOM     27  C   UNL     1       7.084   4.433  15.937  0.00  0.00    +0.000 A 
ATOM     28  C   UNL     1       5.753   4.322  15.555  0.00  0.00    +0.000 A 
ATOM     29  F   UNL     1       5.461   4.004  14.286  0.00  0.00    +0.000 F 
ATOM     30  C   UNL     1       4.717   4.507  16.466  0.00  0.00    +0.000 A 
ENDBRANCH  21  24
ENDBRANCH   1  22
TORSDOF 3
ENDMDL
MODEL 2
REMARK VINA RESULT:      -8.7      0.104      1.641
REMARK  Name = 
REMARK  4 active torsions:
REMARK  status: ('A' for Active; 'I' for Inactive)
REMARK    1  A    between atoms: C_1  and  C_2
REMARK    2  A    between atoms: C_4  and  C_5
REMARK    3  A    between atoms: C_12  and  C_13
REMARK    4  A    between atoms: N_19  and  C_20
REMARK                            x       y       z     vdW  Elec       q    Type
REMARK                         _______ _______ _______ _____ _____    ______ ____
ROOT
ATOM      1  C   UNL     1       2.882   7.229  18.575  0.00  0.00    +0.000 C 
ATOM      2  O   UNL     1       3.574   7.587  17.620  0.00  0.00    +0.000 OA
ATOM      3  N   UNL     1       1.866   8.077  19.059  0.00  0.00    +0.000 N 
ATOM      4  C   UNL     1       0.925   7.752  20.137  0.00  0.00    +0.000 C 
ATOM      5  C   UNL     1       1.187   8.518  21.434  0.00  0.00    +0.000 C 
ATOM      6  C   UNL     1       1.129  10.047  21.354  0.00  0.00    +0.000 C 
ATOM      7  N   UNL     1       0.483  10.506  20.126  0.00  0.00    +0.000 N 
ATOM      8  C   UNL     1       1.361  10.576  18.943  0.00  0.00    +0.000 C 
ATOM      9  C   UNL     1       1.490   9.228  18.219  0.00  0.00    +0.000 C 
ENDROOT
BRANCH   7  10
ATOM     10  C   UNL     1      -0.719  11.202  20.120  0.00  0.00    +0.000 A 
ATOM     11  C   UNL     1      -1.123  12.012  21.190  0.00  0.00    +0.000 A 
ATOM     12  C   UNL     1      -2.337  12.708  21.162  0.00  0.00    +0.000 A 
ATOM     13 CL   UNL     1      -2.772  13.710  22.493  0.00  0.00    +0.000 Cl
ATOM     14  C   UNL     1      -3.189  12.606  20.072  0.00  0.00    +0.000 A 
ATOM     15  C   UNL     1      -2.811  11.804  19.004  0.00  0.00    +0.000 A 
ATOM     16 CL   UNL     1      -3.856  11.649  17.644  0.00  0.00    +0.000 Cl
ATOM     17  C   UNL     1      -1.593  11.117  19.023  0.00  0.00    +0.000 A 
ENDBRANCH   7  10
BRANCH   1  22
ATOM     18  C   UNL     1       2.089   3.543  21.632  0.00  0.00    +0.000 C 
ATOM     19  C   UNL     1       2.756   4.253  20.524  0.00  0.00    +0.000 A 
ATOM     20  N   UNL     1       3.747   3.843  19.771  0.00  0.00    +0.000 NA
ATOM     21  C   UNL     1       3.968   4.893  18.900  0.00  0.00    +0.000 A 
ATOM     22  C   UNL     1       3.068   5.914  19.160  0.00  0.00    +0.000 A 
ATOM     23  O   UNL     1       2.305   5.509  20.234  0.00  0.00    +0.000 OA
BRANCH  21  24
ATOM     24  C   UNL     1       4.993   4.801  17.873  0.00  0.00    +0.000 A 
ATOM     25  C   UNL     1       6.341   4.918  18.253  0.00  0.00    +0.000 A 
ATOM     26  C   UNL     1       7.375   4.733  17.330  0.00  0.00    +0.000 A 
ATOM     27  C   UNL     1       7.065   4.421  16.008  0.00  0.00    +0.000 A 
ATOM     28  C   UNL     1       5.734   4.322  15.625  0.00  0.00    +0.000 A 
ATOM     29  F   UNL     1       5.439   4.014  14.354  0.00  0.00    +0.000 F 
ATOM     30  C   UNL     1       4.699   4.508  16.537  0.00  0.00    +0.000 A 
ENDBRANCH  21  24
ENDBRANCH   1  22
TORSDOF 3
ENDMDL
MODEL 3
REMARK VINA RESULT:      -8.6      1.253      2.258
REMARK  Name = 
REMARK  4 active torsions:
REMARK  status: ('A' for Active; 'I' for Inactive)
REMARK    1  A    between atoms: C_1  and  C_2
REMARK    2  A    between atoms: C_4  and  C_5
REMARK    3  A    between atoms: C_12  and  C_13
REMARK    4  A    between atoms: N_19  and  C_20
REMARK                            x       y       z     vdW  Elec       q    Type
REMARK                         _______ _______ _______ _____ _____    ______ ____
ROOT
ATOM      1  C   UNL     1       2.729   7.073  18.772  0.00  0.00    +0.000 C 
ATOM      2  O   UNL     1       3.421   7.373  17.797  0.00  0.00    +0.000 OA
ATOM      3  N   UNL     1       1.770   7.986  19.255  0.00  0.00    +0.000 N 
ATOM      4  C   UNL     1       0.832   7.736  20.356  0.00  0.00    +0.000 C 
ATOM      5  C   UNL     1       1.160   8.513  21.632  0.00  0.00    +0.000 C 
ATOM      6  C   UNL     1       1.184  10.041  21.520  0.00  0.00    +0.000 C 
ATOM      7  N   UNL     1       0.541  10.509  20.293  0.00  0.00    +0.000 N 
ATOM      8  C   UNL     1       1.400  10.506  19.094  0.00  0.00    +0.000 C 
ATOM      9  C   UNL     1       1.441   9.138  18.397  0.00  0.00    +0.000 C 
ENDROOT
BRANCH   7  10
ATOM     10  C   UNL     1      -0.621  11.270  20.293  0.00  0.00    +0.000 A 
ATOM     11  C   UNL     1      -0.936  12.160  21.329  0.00  0.00    +0.000 A 
ATOM     12  C   UNL     1      -2.111  12.920  21.308  0.00  0.00    +0.000 A 
ATOM     13 CL   UNL     1      -2.435  14.018  22.594  0.00  0.00    +0.000 Cl
ATOM     14  C   UNL     1      -3.012  12.804  20.259  0.00  0.00    +0.000 A 
ATOM     15  C   UNL     1      -2.723  11.924  19.226  0.00  0.00    +0.000 A 
ATOM     16 CL   UNL     1      -3.831  11.751  17.920  0.00  0.00    +0.000 Cl
ATOM     17  C   UNL     1      -1.544  11.172  19.238  0.00  0.00    +0.000 A 
ENDBRANCH   7  10
BRANCH   1  22
ATOM     18  C   UNL     1       1.409   3.240  21.441  0.00  0.00    +0.000 C 
ATOM     19  C   UNL     1       2.306   4.040  20.586  0.00  0.00    +0.000 A 
ATOM     20  N   UNL     1       3.510   3.742  20.163  0.00  0.00    +0.000 NA
ATOM     21  C   UNL     1       3.882   4.833  19.401  0.00  0.00    +0.000 A 
ATOM     22  C   UNL     1       2.854   5.763  19.383  0.00  0.00    +0.000 A 
ATOM     23  O   UNL     1       1.846   5.260  20.178  0.00  0.00    +0.000 OA
BRANCH  21  24
ATOM     24  C   UNL     1       5.170   4.864  18.728  0.00  0.00    +0.000 A 
ATOM     25  C   UNL     1       5.273   4.307  17.442  0.00  0.00    +0.000 A 
ATOM     26  C   UNL     1       6.456   4.400  16.702  0.00  0.00    +0.000 A 
ATOM     27  C   UNL     1       7.553   5.064  17.246  0.00  0.00    +0.000 A 
ATOM     28  C   UNL     1       7.461   5.600  18.524  0.00  0.00    +0.000 A 
ATOM     29  F   UNL     1       8.517   6.244  19.041  0.00  0.00    +0.000 F 
ATOM     30  C   UNL     1       6.288   5.508  19.268  0.00  0.00    +0.000 A 
ENDBRANCH  21  24
ENDBRANCH   1  22
TORSDOF 3
ENDMDL
MODEL 4
REMARK VINA RESULT:      -8.6      1.253      1.552
REMARK  Name = 
REMARK  4 active torsions:
REMARK  status: ('A' for Active; 'I' for Inactive)
REMARK    1  A    between atoms: C_1  and  C_2
REMARK    2  A    between atoms: C_4  and  C_5
REMARK    3  A    between atoms: C_12  and  C_13
REMARK    4  A    between atoms: N_19  and  C_20
REMARK                            x       y       z     vdW  Elec       q    Type
REMARK                         _______ _______ _______ _____ _____    ______ ____
ROOT
ATOM      1  C   UNL     1       2.740   7.075  18.769  0.00  0.00    +0.000 C 
ATOM      2  O   UNL     1       3.442   7.380  17.803  0.00  0.00    +0.000 OA
ATOM      3  N   UNL     1       1.773   7.984  19.244  0.00  0.00    +0.000 N 
ATOM      4  C   UNL     1       0.825   7.728  20.335  0.00  0.00    +0.000 C 
ATOM      5  C   UNL     1       1.137   8.501  21.616  0.00  0.00    +0.000 C 
ATOM      6  C   UNL     1       1.158  10.029  21.510  0.00  0.00    +0.000 C 
ATOM      7  N   UNL     1       0.527  10.500  20.278  0.00  0.00    +0.000 N 
ATOM      8  C   UNL     1       1.399  10.504  19.088  0.00  0.00    +0.000 C 
ATOM      9  C   UNL     1       1.451   9.139  18.387  0.00  0.00    +0.000 C 
ENDROOT
BRANCH   7  10
ATOM     10  C   UNL     1      -0.636  11.258  20.268  0.00  0.00    +0.000 A 
ATOM     11  C   UNL     1      -1.579  11.174  19.234  0.00  0.00    +0.000 A 
ATOM     12  C   UNL     1      -2.746  11.945  19.244  0.00  0.00    +0.000 A 
ATOM     13 CL   UNL     1      -3.883  11.782  17.961  0.00  0.00    +0.000 Cl
ATOM     14  C   UNL     1      -3.003  12.831  20.281  0.00  0.00    +0.000 A 
ATOM     15  C   UNL     1      -2.080  12.935  21.312  0.00  0.00    +0.000 A 
ATOM     16 CL   UNL     1      -2.367  14.037  22.604  0.00  0.00    +0.000 Cl
ATOM     17  C   UNL     1      -0.917  12.157  21.311  0.00  0.00    +0.000 A 
ENDBRANCH   7  10
BRANCH   1  22
ATOM     18  C   UNL     1       1.408   3.237  21.425  0.00  0.00    +0.000 C 
ATOM     19  C   UNL     1       2.308   4.038  20.573  0.00  0.00    +0.000 A 
ATOM     20  N   UNL     1       3.513   3.739  20.152  0.00  0.00    +0.000 NA
ATOM     21  C   UNL     1       3.888   4.832  19.393  0.00  0.00    +0.000 A 
ATOM     22  C   UNL     1       2.861   5.763  19.376  0.00  0.00    +0.000 A 
ATOM     23  O   UNL     1       1.852   5.260  20.168  0.00  0.00    +0.000 OA
BRANCH  21  24
ATOM     24  C   UNL     1       5.177   4.862  18.723  0.00  0.00    +0.000 A 
ATOM     25  C   UNL     1       5.281   4.308  17.435  0.00  0.00    +0.000 A 
ATOM     26  C   UNL     1       6.465   4.401  16.697  0.00  0.00    +0.000 A 
ATOM     27  C   UNL     1       7.563   5.061  17.245  0.00  0.00    +0.000 A 
ATOM     28  C   UNL     1       7.470   5.595  18.524  0.00  0.00    +0.000 A 
ATOM     29  F   UNL     1       8.526   6.236  19.045  0.00  0.00    +0.000 F 
ATOM     30  C   UNL     1       6.295   5.503  19.266  0.00  0.00    +0.000 A 
ENDBRANCH  21  24
ENDBRANCH   1  22
TORSDOF 3
ENDMDL
MODEL 5
REMARK VINA RESULT:      -8.2      2.673      4.384
REMARK  Name = 
REMARK  4 active torsions:
REMARK  status: ('A' for Active; 'I' for Inactive)
REMARK    1  A    between atoms: C_1  and  C_2
REMARK    2  A    between atoms: C_4  and  C_5
REMARK    3  A    between atoms: C_12  and  C_13
REMARK    4  A    between atoms: N_19  and  C_20
REMARK                            x       y       z     vdW  Elec       q    Type
REMARK                         _______ _______ _______ _____ _____    ______ ____
ROOT
ATOM      1  C   UNL     1       1.910   7.608  20.027  0.00  0.00    +0.000 C 
ATOM      2  O   UNL     1       1.780   7.090  21.138  0.00  0.00    +0.000 OA
ATOM      3  N   UNL     1       1.375   8.889  19.786  0.00  0.00    +0.000 N 
ATOM      4  C   UNL     1       1.516   9.654  18.541  0.00  0.00    +0.000 C 
ATOM      5  C   UNL     1       0.225   9.750  17.728  0.00  0.00    +0.000 C 
ATOM      6  C   UNL     1      -0.975  10.406  18.419  0.00  0.00    +0.000 C 
ATOM      7  N   UNL     1      -0.579  11.149  19.614  0.00  0.00    +0.000 N 
ATOM      8  C   UNL     1      -0.442  10.339  20.840  0.00  0.00    +0.000 C 
ATOM      9  C   UNL     1       0.934   9.669  20.957  0.00  0.00    +0.000 C 
ENDROOT
BRANCH   7  10
ATOM     10  C   UNL     1      -0.707  12.527  19.724  0.00  0.00    +0.000 A 
ATOM     11  C   UNL     1      -1.803  13.132  20.356  0.00  0.00    +0.000 A 
ATOM     12  C   UNL     1      -1.912  14.523  20.458  0.00  0.00    +0.000 A 
ATOM     13 CL   UNL     1      -3.266  15.212  21.268  0.00  0.00    +0.000 Cl
ATOM     14  C   UNL     1      -0.937  15.353  19.921  0.00  0.00    +0.000 A 
ATOM     15  C   UNL     1       0.153  14.775  19.286  0.00  0.00    +0.000 A 
ATOM     16 CL   UNL     1       1.370  15.782  18.600  0.00  0.00    +0.000 Cl
ATOM     17  C   UNL     1       0.271  13.384  19.193  0.00  0.00    +0.000 A 
ENDBRANCH   7  10
BRANCH   1  22
ATOM     18  C   UNL     1       5.008   7.174  16.316  0.00  0.00    +0.000 C 
ATOM     19  C   UNL     1       4.029   6.704  17.314  0.00  0.00    +0.000 A 
ATOM     20  N   UNL     1       3.571   5.490  17.499  0.00  0.00    +0.000 NA
ATOM     21  C   UNL     1       2.692   5.616  18.557  0.00  0.00    +0.000 A 
ATOM     22  C   UNL     1       2.667   6.933  18.989  0.00  0.00    +0.000 A 
ATOM     23  O   UNL     1       3.510   7.641  18.161  0.00  0.00    +0.000 OA
BRANCH  21  24
ATOM     24  C   UNL     1       1.993   4.455  19.083  0.00  0.00    +0.000 A 
ATOM     25  C   UNL     1       1.368   3.577  18.179  0.00  0.00    +0.000 A 
ATOM     26  C   UNL     1       0.771   2.390  18.614  0.00  0.00    +0.000 A 
ATOM     27  C   UNL     1       0.801   2.065  19.968  0.00  0.00    +0.000 A 
ATOM     28  C   UNL     1       1.402   2.938  20.866  0.00  0.00    +0.000 A 
ATOM     29  F   UNL     1       1.435   2.618  22.168  0.00  0.00    +0.000 F 
ATOM     30  C   UNL     1       1.995   4.124  20.441  0.00  0.00    +0.000 A 
ENDBRANCH  21  24
ENDBRANCH   1  22
TORSDOF 3
ENDMDL
MODEL 6
REMARK VINA RESULT:      -8.2      2.661      4.330
REMARK  Name = 
REMARK  4 active torsions:
REMARK  status: ('A' for Active; 'I' for Inactive)
REMARK    1  A    between atoms: C_1  and  C_2
REMARK    2  A    between atoms: C_4  and  C_5
REMARK    3  A    between atoms: C_12  and  C_13
REMARK    4  A    between atoms: N_19  and  C_20
REMARK                            x       y       z     vdW  Elec       q    Type
REMARK                         _______ _______ _______ _____ _____    ______ ____
ROOT
ATOM      1  C   UNL     1       1.870   7.657  20.058  0.00  0.00    +0.000 C 
ATOM      2  O   UNL     1       1.727   7.135  21.166  0.00  0.00    +0.000 OA
ATOM      3  N   UNL     1       1.337   8.939  19.816  0.00  0.00    +0.000 N 
ATOM      4  C   UNL     1       1.491   9.707  18.575  0.00  0.00    +0.000 C 
ATOM      5  C   UNL     1       0.209   9.805  17.748  0.00  0.00    +0.000 C 
ATOM      6  C   UNL     1      -1.000  10.458  18.427  0.00  0.00    +0.000 C 
ATOM      7  N   UNL     1      -0.618  11.197  19.630  0.00  0.00    +0.000 N 
ATOM      8  C   UNL     1      -0.494  10.383  20.854  0.00  0.00    +0.000 C 
ATOM      9  C   UNL     1       0.882   9.714  20.985  0.00  0.00    +0.000 C 
ENDROOT
BRANCH   7  10
ATOM     10  C   UNL     1      -0.749  12.575  19.742  0.00  0.00    +0.000 A 
ATOM     11  C   UNL     1       0.180  13.466  19.186  0.00  0.00    +0.000 A 
ATOM     12  C   UNL     1       0.027  14.851  19.309  0.00  0.00    +0.000 A 
ATOM     13 CL   UNL     1       1.184  15.900  18.583  0.00  0.00    +0.000 Cl
ATOM     14  C   UNL     1      -1.049  15.389  20.000  0.00  0.00    +0.000 A 
ATOM     15  C   UNL     1      -1.977  14.525  20.564  0.00  0.00    +0.000 A 
ATOM     16 CL   UNL     1      -3.314  15.165  21.439  0.00  0.00    +0.000 Cl
ATOM     17  C   UNL     1      -1.834  13.139  20.434  0.00  0.00    +0.000 A 
ENDBRANCH   7  10
BRANCH   1  22
ATOM     18  C   UNL     1       4.990   7.243  16.364  0.00  0.00    +0.000 C 
ATOM     19  C   UNL     1       4.012   6.765  17.359  0.00  0.00    +0.000 A 
ATOM     20  N   UNL     1       3.566   5.547  17.546  0.00  0.00    +0.000 NA
ATOM     21  C   UNL     1       2.681   5.667  18.601  0.00  0.00    +0.000 A 
ATOM     22  C   UNL     1       2.639   6.986  19.027  0.00  0.00    +0.000 A 
ATOM     23  O   UNL     1       3.478   7.700  18.199  0.00  0.00    +0.000 OA
BRANCH  21  24
ATOM     24  C   UNL     1       1.992   4.501  19.127  0.00  0.00    +0.000 A 
ATOM     25  C   UNL     1       1.354   3.631  18.227  0.00  0.00    +0.000 A 
ATOM     26  C   UNL     1       0.765   2.439  18.661  0.00  0.00    +0.000 A 
ATOM     27  C   UNL     1       0.819   2.102  20.012  0.00  0.00    +0.000 A 
ATOM     28  C   UNL     1       1.433   2.968  20.908  0.00  0.00    +0.000 A 
ATOM     29  F   UNL     1       1.488   2.637  22.205  0.00  0.00    +0.000 F 
ATOM     30  C   UNL     1       2.017   4.158  20.483  0.00  0.00    +0.000 A 
ENDBRANCH  21  24
ENDBRANCH   1  22
TORSDOF 3
ENDMDL
MODEL 7
REMARK VINA RESULT:      -8.1      4.552      8.672
REMARK  Name = 
REMARK  4 active torsions:
REMARK  status: ('A' for Active; 'I' for Inactive)
REMARK    1  A    between atoms: C_1  and  C_2
REMARK    2  A    between atoms: C_4  and  C_5
REMARK    3  A    between atoms: C_12  and  C_13
REMARK    4  A    between atoms: N_19  and  C_20
REMARK                            x       y       z     vdW  Elec       q    Type
REMARK                         _______ _______ _______ _____ _____    ______ ____
ROOT
ATOM      1  C   UNL     1       0.413  10.224  20.961  0.00  0.00    +0.000 C 
ATOM      2  O   UNL     1       0.668  10.221  22.167  0.00  0.00    +0.000 OA
ATOM      3  N   UNL     1       0.844   9.152  20.153  0.00  0.00    +0.000 N 
ATOM      4  C   UNL     1       0.552   8.989  18.724  0.00  0.00    +0.000 C 
ATOM      5  C   UNL     1       1.763   9.216  17.819  0.00  0.00    +0.000 C 
ATOM      6  C   UNL     1       2.971   8.301  18.045  0.00  0.00    +0.000 C 
ATOM      7  N   UNL     1       2.629   7.132  18.854  0.00  0.00    +0.000 N 
ATOM      8  C   UNL     1       2.646   7.352  20.313  0.00  0.00    +0.000 C 
ATOM      9  C   UNL     1       1.329   7.941  20.839  0.00  0.00    +0.000 C 
ENDROOT
BRANCH   7  10
ATOM     10  C   UNL     1       2.678   5.834  18.363  0.00  0.00    +0.000 A 
ATOM     11  C   UNL     1       1.726   4.865  18.708  0.00  0.00    +0.000 A 
ATOM     12  C   UNL     1       1.792   3.562  18.200  0.00  0.00    +0.000 A 
ATOM     13 CL   UNL     1       0.582   2.419  18.636  0.00  0.00    +0.000 Cl
ATOM     14  C   UNL     1       2.816   3.186  17.342  0.00  0.00    +0.000 A 
ATOM     15  C   UNL     1       3.772   4.129  16.992  0.00  0.00    +0.000 A 
ATOM     16 CL   UNL     1       5.061   3.685  15.940  0.00  0.00    +0.000 Cl
ATOM     17  C   UNL     1       3.703   5.435  17.489  0.00  0.00    +0.000 A 
ENDBRANCH   7  10
BRANCH   1  22
ATOM     18  C   UNL     1      -3.608  12.521  19.509  0.00  0.00    +0.000 C 
ATOM     19  C   UNL     1      -2.157  12.340  19.702  0.00  0.00    +0.000 A 
ATOM     20  N   UNL     1      -1.181  13.146  19.361  0.00  0.00    +0.000 NA
ATOM     21  C   UNL     1      -0.038  12.491  19.779  0.00  0.00    +0.000 A 
ATOM     22  C   UNL     1      -0.381  11.292  20.384  0.00  0.00    +0.000 A 
ATOM     23  O   UNL     1      -1.753  11.182  20.304  0.00  0.00    +0.000 OA
BRANCH  21  24
ATOM     24  C   UNL     1       1.271  13.095  19.596  0.00  0.00    +0.000 A 
ATOM     25  C   UNL     1       1.705  13.385  18.291  0.00  0.00    +0.000 A 
ATOM     26  C   UNL     1       2.907  14.061  18.058  0.00  0.00    +0.000 A 
ATOM     27  C   UNL     1       3.687  14.462  19.139  0.00  0.00    +0.000 A 
ATOM     28  C   UNL     1       3.270  14.163  20.430  0.00  0.00    +0.000 A 
ATOM     29  F   UNL     1       4.021  14.558  21.468  0.00  0.00    +0.000 F 
ATOM     30  C   UNL     1       2.077  13.487  20.670  0.00  0.00    +0.000 A 
ENDBRANCH  21  24
ENDBRANCH   1  22
TORSDOF 3
ENDMDL
MODEL 8
REMARK VINA RESULT:      -8.0      4.595      8.673
REMARK  Name = 
REMARK  4 active torsions:
REMARK  status: ('A' for Active; 'I' for Inactive)
REMARK    1  A    between atoms: C_1  and  C_2
REMARK    2  A    between atoms: C_4  and  C_5
REMARK    3  A    between atoms: C_12  and  C_13
REMARK    4  A    between atoms: N_19  and  C_20
REMARK                            x       y       z     vdW  Elec       q    Type
REMARK                         _______ _______ _______ _____ _____    ______ ____
ROOT
ATOM      1  C   UNL     1       0.389  10.231  20.968  0.00  0.00    +0.000 C 
ATOM      2  O   UNL     1       0.641  10.224  22.175  0.00  0.00    +0.000 OA
ATOM      3  N   UNL     1       0.828   9.165  20.158  0.00  0.00    +0.000 N 
ATOM      4  C   UNL     1       0.542   9.006  18.727  0.00  0.00    +0.000 C 
ATOM      5  C   UNL     1       1.754   9.243  17.826  0.00  0.00    +0.000 C 
ATOM      6  C   UNL     1       2.967   8.334  18.053  0.00  0.00    +0.000 C 
ATOM      7  N   UNL     1       2.629   7.160  18.856  0.00  0.00    +0.000 N 
ATOM      8  C   UNL     1       2.640   7.374  20.315  0.00  0.00    +0.000 C 
ATOM      9  C   UNL     1       1.319   7.954  20.840  0.00  0.00    +0.000 C 
ENDROOT
BRANCH   7  10
ATOM     10  C   UNL     1       2.686   5.864  18.360  0.00  0.00    +0.000 A 
ATOM     11  C   UNL     1       3.690   5.442  17.478  0.00  0.00    +0.000 A 
ATOM     12  C   UNL     1       3.732   4.130  16.992  0.00  0.00    +0.000 A 
ATOM     13 CL   UNL     1       5.003   3.657  15.932  0.00  0.00    +0.000 Cl
ATOM     14  C   UNL     1       2.765   3.205  17.362  0.00  0.00    +0.000 A 
ATOM     15  C   UNL     1       1.759   3.605  18.229  0.00  0.00    +0.000 A 
ATOM     16 CL   UNL     1       0.539   2.480  18.693  0.00  0.00    +0.000 Cl
ATOM     17  C   UNL     1       1.721   4.911  18.726  0.00  0.00    +0.000 A 
ENDBRANCH   7  10
BRANCH   1  22
ATOM     18  C   UNL     1      -3.640  12.507  19.506  0.00  0.00    +0.000 C 
ATOM     19  C   UNL     1      -2.189  12.336  19.707  0.00  0.00    +0.000 A 
ATOM     20  N   UNL     1      -1.217  13.151  19.378  0.00  0.00    +0.000 NA
ATOM     21  C   UNL     1      -0.072  12.502  19.798  0.00  0.00    +0.000 A 
ATOM     22  C   UNL     1      -0.410  11.296  20.393  0.00  0.00    +0.000 A 
ATOM     23  O   UNL     1      -1.780  11.177  20.304  0.00  0.00    +0.000 OA
BRANCH  21  24
ATOM     24  C   UNL     1       1.234  13.117  19.627  0.00  0.00    +0.000 A 
ATOM     25  C   UNL     1       1.879  12.999  18.384  0.00  0.00    +0.000 A 
ATOM     26  C   UNL     1       3.086  13.656  18.125  0.00  0.00    +0.000 A 
ATOM     27  C   UNL     1       3.658  14.450  19.116  0.00  0.00    +0.000 A 
ATOM     28  C   UNL     1       3.033  14.555  20.352  0.00  0.00    +0.000 A 
ATOM     29  F   UNL     1       3.584  15.326  21.300  0.00  0.00    +0.000 F 
ATOM     30  C   UNL     1       1.834  13.901  20.618  0.00  0.00    +0.000 A 
ENDBRANCH  21  24
ENDBRANCH   1  22
TORSDOF 3
ENDMDL
MODEL 9
REMARK VINA RESULT:      -8.0      4.178      8.877
REMARK  Name = 
REMARK  4 active torsions:
REMARK  status: ('A' for Active; 'I' for Inactive)
REMARK    1  A    between atoms: C_1  and  C_2
REMARK    2  A    between atoms: C_4  and  C_5
REMARK    3  A    between atoms: C_12  and  C_13
REMARK    4  A    between atoms: N_19  and  C_20
REMARK                            x       y       z     vdW  Elec       q    Type
REMARK                         _______ _______ _______ _____ _____    ______ ____
ROOT
ATOM      1  C   UNL     1       0.608  10.575  20.221  0.00  0.00    +0.000 C 
ATOM      2  O   UNL     1       0.336  10.535  21.423  0.00  0.00    +0.000 OA
ATOM      3  N   UNL     1       1.075   9.416  19.571  0.00  0.00    +0.000 N 
ATOM      4  C   UNL     1       1.368   9.300  18.137  0.00  0.00    +0.000 C 
ATOM      5  C   UNL     1       2.861   9.208  17.819  0.00  0.00    +0.000 C 
ATOM      6  C   UNL     1       3.625   8.033  18.438  0.00  0.00    +0.000 C 
ATOM      7  N   UNL     1       2.722   6.998  18.941  0.00  0.00    +0.000 N 
ATOM      8  C   UNL     1       2.188   7.235  20.295  0.00  0.00    +0.000 C 
ATOM      9  C   UNL     1       0.944   8.137  20.292  0.00  0.00    +0.000 C 
ENDROOT
BRANCH   7  10
ATOM     10  C   UNL     1       2.670   5.718  18.406  0.00  0.00    +0.000 A 
ATOM     11  C   UNL     1       1.689   4.788  18.777  0.00  0.00    +0.000 A 
ATOM     12  C   UNL     1       1.653   3.503  18.224  0.00  0.00    +0.000 A 
ATOM     13 CL   UNL     1       0.409   2.410  18.696  0.00  0.00    +0.000 Cl
ATOM     14  C   UNL     1       2.602   3.104  17.294  0.00  0.00    +0.000 A 
ATOM     15  C   UNL     1       3.586   4.006  16.917  0.00  0.00    +0.000 A 
ATOM     16 CL   UNL     1       4.784   3.532  15.775  0.00  0.00    +0.000 Cl
ATOM     17  C   UNL     1       3.619   5.295  17.459  0.00  0.00    +0.000 A 
ENDBRANCH   7  10
BRANCH   1  22
ATOM     18  C   UNL     1       1.547  15.037  18.557  0.00  0.00    +0.000 C 
ATOM     19  C   UNL     1       0.765  13.796  18.714  0.00  0.00    +0.000 A 
ATOM     20  N   UNL     1      -0.394  13.489  18.185  0.00  0.00    +0.000 NA
ATOM     21  C   UNL     1      -0.657  12.217  18.658  0.00  0.00    +0.000 A 
ATOM     22  C   UNL     1       0.389  11.792  19.463  0.00  0.00    +0.000 A 
ATOM     23  O   UNL     1       1.294  12.830  19.523  0.00  0.00    +0.000 OA
BRANCH  21  24
ATOM     24  C   UNL     1      -1.865  11.513  18.260  0.00  0.00    +0.000 A 
ATOM     25  C   UNL     1      -3.085  11.876  18.857  0.00  0.00    +0.000 A 
ATOM     26  C   UNL     1      -4.294  11.310  18.441  0.00  0.00    +0.000 A 
ATOM     27  C   UNL     1      -4.292  10.373  17.410  0.00  0.00    +0.000 A 
ATOM     28  C   UNL     1      -3.087   9.999  16.830  0.00  0.00    +0.000 A 
ATOM     29  F   UNL     1      -3.091   9.102  15.834  0.00  0.00    +0.000 F 
ATOM     30  C   UNL     1      -1.879  10.555  17.241  0.00  0.00    +0.000 A 
ENDBRANCH  21  24
ENDBRANCH   1  22
TORSDOF 3
ENDMDL
