MODEL 1
REMARK VINA RESULT:      -7.5      0.000      0.000
REMARK  Name = 
REMARK  1 active torsions:
REMARK  status: ('A' for Active; 'I' for Inactive)
REMARK    1  A    between atoms: C_2  and  C_3
REMARK                            x       y       z     vdW  Elec       q    Type
REMARK                         _______ _______ _______ _____ _____    ______ ____
ROOT
ATOM      1  C   UNL     1       4.746   4.046  18.132  0.00  0.00    +0.000 A 
ATOM      2  C   UNL     1       4.774   5.144  17.292  0.00  0.00    +0.000 A 
ATOM      3  C   UNL     1       5.926   5.911  17.582  0.00  0.00    +0.000 A 
ATOM      4  C   UNL     1       6.456   7.096  17.048  0.00  0.00    +0.000 A 
ATOM      5  C   UNL     1       7.630   7.627  17.596  0.00  0.00    +0.000 A 
ATOM      6  C   UNL     1       8.265   6.982  18.657  0.00  0.00    +0.000 A 
ATOM      7  C   UNL     1       7.756   5.799  19.200  0.00  0.00    +0.000 A 
ATOM      8  C   UNL     1       6.578   5.285  18.641  0.00  0.00    +0.000 A 
ATOM      9  N   UNL     1       5.834   4.174  18.970  0.00  0.00    +0.000 N 
ATOM     10  H   UNL     1       6.041   3.536  19.727  0.00  0.00    +0.000 HD
ENDROOT
BRANCH   1  12
ATOM     11  O   UNL     1       3.819   1.987  17.546  0.00  0.00    +0.000 OA
ATOM     12  C   UNL     1       3.769   2.981  18.266  0.00  0.00    +0.000 C 
ATOM     13  N   UNL     1       2.787   3.136  19.236  0.00  0.00    +0.000 N 
ATOM     14  C   UNL     1       1.872   2.059  19.560  0.00  0.00    +0.000 C 
ATOM     15  C   UNL     1       0.542   2.755  19.792  0.00  0.00    +0.000 C 
ATOM     16  C   UNL     1       0.951   4.089  20.398  0.00  0.00    +0.000 C 
ATOM     17  C   UNL     1       2.269   4.415  19.707  0.00  0.00    +0.000 C 
ENDBRANCH   1  12
TORSDOF 1
ENDMDL
MODEL 2
REMARK VINA RESULT:      -7.2      1.905      2.528
REMARK  Name = 
REMARK  1 active torsions:
REMARK  status: ('A' for Active; 'I' for Inactive)
REMARK    1  A    between atoms: C_2  and  C_3
REMARK                            x       y       z     vdW  Elec       q    Type
REMARK                         _______ _______ _______ _____ _____    ______ ____
ROOT
ATOM      1  C   UNL     1       4.973   3.526  18.658  0.00  0.00    +0.000 A 
ATOM      2  C   UNL     1       5.826   4.612  18.578  0.00  0.00    +0.000 A 
ATOM      3  C   UNL     1       6.156   4.832  17.221  0.00  0.00    +0.000 A 
ATOM      4  C   UNL     1       6.956   5.779  16.563  0.00  0.00    +0.000 A 
ATOM      5  C   UNL     1       7.105   5.702  15.174  0.00  0.00    +0.000 A 
ATOM      6  C   UNL     1       6.463   4.696  14.452  0.00  0.00    +0.000 A 
ATOM      7  C   UNL     1       5.658   3.745  15.088  0.00  0.00    +0.000 A 
ATOM      8  C   UNL     1       5.524   3.837  16.479  0.00  0.00    +0.000 A 
ATOM      9  N   UNL     1       4.834   3.047  17.372  0.00  0.00    +0.000 N 
ATOM     10  H   UNL     1       4.303   2.221  17.132  0.00  0.00    +0.000 HD
ENDROOT
BRANCH   1  12
ATOM     11  O   UNL     1       4.931   1.913  20.344  0.00  0.00    +0.000 OA
ATOM     12  C   UNL     1       4.379   2.872  19.810  0.00  0.00    +0.000 C 
ATOM     13  N   UNL     1       3.172   3.377  20.277  0.00  0.00    +0.000 N 
ATOM     14  C   UNL     1       2.586   2.903  21.516  0.00  0.00    +0.000 C 
ATOM     15  C   UNL     1       1.095   2.849  21.229  0.00  0.00    +0.000 C 
ATOM     16  C   UNL     1       0.885   4.013  20.272  0.00  0.00    +0.000 C 
ATOM     17  C   UNL     1       2.172   4.051  19.456  0.00  0.00    +0.000 C 
ENDBRANCH   1  12
TORSDOF 1
ENDMDL
MODEL 3
REMARK VINA RESULT:      -7.1      1.858      2.371
REMARK  Name = 
REMARK  1 active torsions:
REMARK  status: ('A' for Active; 'I' for Inactive)
REMARK    1  A    between atoms: C_2  and  C_3
REMARK                            x       y       z     vdW  Elec       q    Type
REMARK                         _______ _______ _______ _____ _____    ______ ____
ROOT
ATOM      1  C   UNL     1       4.848   3.264  18.583  0.00  0.00    +0.000 A 
ATOM      2  C   UNL     1       4.334   3.237  17.300  0.00  0.00    +0.000 A 
ATOM      3  C   UNL     1       5.221   3.924  16.439  0.00  0.00    +0.000 A 
ATOM      4  C   UNL     1       5.213   4.196  15.062  0.00  0.00    +0.000 A 
ATOM      5  C   UNL     1       6.254   4.949  14.508  0.00  0.00    +0.000 A 
ATOM      6  C   UNL     1       7.288   5.421  15.316  0.00  0.00    +0.000 A 
ATOM      7  C   UNL     1       7.317   5.158  16.690  0.00  0.00    +0.000 A 
ATOM      8  C   UNL     1       6.264   4.405  17.226  0.00  0.00    +0.000 A 
ATOM      9  N   UNL     1       6.005   4.013  18.521  0.00  0.00    +0.000 N 
ATOM     10  H   UNL     1       6.571   4.244  19.325  0.00  0.00    +0.000 HD
ENDROOT
BRANCH   1  12
ATOM     11  O   UNL     1       4.902   1.856  20.443  0.00  0.00    +0.000 OA
ATOM     12  C   UNL     1       4.314   2.743  19.829  0.00  0.00    +0.000 C 
ATOM     13  N   UNL     1       3.122   3.288  20.288  0.00  0.00    +0.000 N 
ATOM     14  C   UNL     1       2.598   2.955  21.599  0.00  0.00    +0.000 C 
ATOM     15  C   UNL     1       1.097   2.857  21.388  0.00  0.00    +0.000 C 
ATOM     16  C   UNL     1       0.830   3.901  20.314  0.00  0.00    +0.000 C 
ATOM     17  C   UNL     1       2.079   3.855  19.442  0.00  0.00    +0.000 C 
ENDBRANCH   1  12
TORSDOF 1
ENDMDL
MODEL 4
REMARK VINA RESULT:      -7.1      3.505      4.635
REMARK  Name = 
REMARK  1 active torsions:
REMARK  status: ('A' for Active; 'I' for Inactive)
REMARK    1  A    between atoms: C_2  and  C_3
REMARK                            x       y       z     vdW  Elec       q    Type
REMARK                         _______ _______ _______ _____ _____    ______ ____
ROOT
ATOM      1  C   UNL     1       3.307   6.264  19.161  0.00  0.00    +0.000 A 
ATOM      2  C   UNL     1       3.053   7.099  18.089  0.00  0.00    +0.000 A 
ATOM      3  C   UNL     1       2.192   8.138  18.513  0.00  0.00    +0.000 A 
ATOM      4  C   UNL     1       1.626   9.247  17.867  0.00  0.00    +0.000 A 
ATOM      5  C   UNL     1       0.768  10.090  18.581  0.00  0.00    +0.000 A 
ATOM      6  C   UNL     1       0.481   9.830  19.922  0.00  0.00    +0.000 A 
ATOM      7  C   UNL     1       1.038   8.732  20.585  0.00  0.00    +0.000 A 
ATOM      8  C   UNL     1       1.892   7.899  19.852  0.00  0.00    +0.000 A 
ATOM      9  N   UNL     1       2.559   6.749  20.214  0.00  0.00    +0.000 N 
ATOM     10  H   UNL     1       2.508   6.305  21.121  0.00  0.00    +0.000 HD
ENDROOT
BRANCH   1  12
ATOM     11  O   UNL     1       5.307   5.088  19.402  0.00  0.00    +0.000 OA
ATOM     12  C   UNL     1       4.089   5.044  19.247  0.00  0.00    +0.000 C 
ATOM     13  N   UNL     1       3.404   3.840  19.148  0.00  0.00    +0.000 N 
ATOM     14  C   UNL     1       4.069   2.574  19.389  0.00  0.00    +0.000 C 
ATOM     15  C   UNL     1       3.475   1.636  18.351  0.00  0.00    +0.000 C 
ATOM     16  C   UNL     1       2.043   2.134  18.215  0.00  0.00    +0.000 C 
ATOM     17  C   UNL     1       2.161   3.640  18.411  0.00  0.00    +0.000 C 
ENDBRANCH   1  12
TORSDOF 1
ENDMDL
MODEL 5
REMARK VINA RESULT:      -7.0      2.298      5.621
REMARK  Name = 
REMARK  1 active torsions:
REMARK  status: ('A' for Active; 'I' for Inactive)
REMARK    1  A    between atoms: C_2  and  C_3
REMARK                            x       y       z     vdW  Elec       q    Type
REMARK                         _______ _______ _______ _____ _____    ______ ____
ROOT
ATOM      1  C   UNL     1       5.154   4.717  18.641  0.00  0.00    +0.000 A 
ATOM      2  C   UNL     1       3.999   5.433  18.897  0.00  0.00    +0.000 A 
ATOM      3  C   UNL     1       3.159   4.659  19.732  0.00  0.00    +0.000 A 
ATOM      4  C   UNL     1       1.897   4.882  20.305  0.00  0.00    +0.000 A 
ATOM      5  C   UNL     1       1.311   3.874  21.078  0.00  0.00    +0.000 A 
ATOM      6  C   UNL     1       1.975   2.664  21.279  0.00  0.00    +0.000 A 
ATOM      7  C   UNL     1       3.234   2.424  20.720  0.00  0.00    +0.000 A 
ATOM      8  C   UNL     1       3.804   3.444  19.947  0.00  0.00    +0.000 A 
ATOM      9  N   UNL     1       4.996   3.494  19.258  0.00  0.00    +0.000 N 
ATOM     10  H   UNL     1       5.668   2.741  19.199  0.00  0.00    +0.000 HD
ENDROOT
BRANCH   1  12
ATOM     11  O   UNL     1       7.222   5.729  18.262  0.00  0.00    +0.000 OA
ATOM     12  C   UNL     1       6.305   5.041  17.818  0.00  0.00    +0.000 C 
ATOM     13  N   UNL     1       6.323   4.543  16.522  0.00  0.00    +0.000 N 
ATOM     14  C   UNL     1       7.498   4.669  15.683  0.00  0.00    +0.000 C 
ATOM     15  C   UNL     1       6.941   4.960  14.299  0.00  0.00    +0.000 C 
ATOM     16  C   UNL     1       5.638   4.174  14.280  0.00  0.00    +0.000 C 
ATOM     17  C   UNL     1       5.140   4.259  15.717  0.00  0.00    +0.000 C 
ENDBRANCH   1  12
TORSDOF 1
ENDMDL
MODEL 6
REMARK VINA RESULT:      -6.8      3.226      6.260
REMARK  Name = 
REMARK  1 active torsions:
REMARK  status: ('A' for Active; 'I' for Inactive)
REMARK    1  A    between atoms: C_2  and  C_3
REMARK                            x       y       z     vdW  Elec       q    Type
REMARK                         _______ _______ _______ _____ _____    ______ ____
ROOT
ATOM      1  C   UNL     1       5.341   4.701  16.450  0.00  0.00    +0.000 A 
ATOM      2  C   UNL     1       4.218   5.358  16.918  0.00  0.00    +0.000 A 
ATOM      3  C   UNL     1       3.403   4.431  17.610  0.00  0.00    +0.000 A 
ATOM      4  C   UNL     1       2.178   4.539  18.285  0.00  0.00    +0.000 A 
ATOM      5  C   UNL     1       1.607   3.395  18.852  0.00  0.00    +0.000 A 
ATOM      6  C   UNL     1       2.251   2.162  18.749  0.00  0.00    +0.000 A 
ATOM      7  C   UNL     1       3.475   2.034  18.084  0.00  0.00    +0.000 A 
ATOM      8  C   UNL     1       4.029   3.190  17.521  0.00  0.00    +0.000 A 
ATOM      9  N   UNL     1       5.186   3.375  16.795  0.00  0.00    +0.000 N 
ATOM     10  H   UNL     1       5.835   2.645  16.537  0.00  0.00    +0.000 HD
ENDROOT
BRANCH   1  12
ATOM     11  O   UNL     1       7.146   6.123  16.044  0.00  0.00    +0.000 OA
ATOM     12  C   UNL     1       6.457   5.182  15.656  0.00  0.00    +0.000 C 
ATOM     13  N   UNL     1       6.707   4.538  14.452  0.00  0.00    +0.000 N 
ATOM     14  C   UNL     1       7.893   4.832  13.671  0.00  0.00    +0.000 C 
ATOM     15  C   UNL     1       7.413   4.796  12.231  0.00  0.00    +0.000 C 
ATOM     16  C   UNL     1       6.333   3.724  12.254  0.00  0.00    +0.000 C 
ATOM     17  C   UNL     1       5.700   3.873  13.632  0.00  0.00    +0.000 C 
ENDBRANCH   1  12
TORSDOF 1
ENDMDL
MODEL 7
REMARK VINA RESULT:      -6.8      0.951      1.591
REMARK  Name = 
REMARK  1 active torsions:
REMARK  status: ('A' for Active; 'I' for Inactive)
REMARK    1  A    between atoms: C_2  and  C_3
REMARK                            x       y       z     vdW  Elec       q    Type
REMARK                         _______ _______ _______ _____ _____    ______ ____
ROOT
ATOM      1  C   UNL     1       4.422   4.517  18.085  0.00  0.00    +0.000 A 
ATOM      2  C   UNL     1       5.542   4.400  18.887  0.00  0.00    +0.000 A 
ATOM      3  C   UNL     1       6.409   5.485  18.620  0.00  0.00    +0.000 A 
ATOM      4  C   UNL     1       7.656   5.874  19.136  0.00  0.00    +0.000 A 
ATOM      5  C   UNL     1       8.281   7.015  18.622  0.00  0.00    +0.000 A 
ATOM      6  C   UNL     1       7.671   7.758  17.611  0.00  0.00    +0.000 A 
ATOM      7  C   UNL     1       6.427   7.390  17.087  0.00  0.00    +0.000 A 
ATOM      8  C   UNL     1       5.818   6.243  17.613  0.00  0.00    +0.000 A 
ATOM      9  N   UNL     1       4.630   5.624  17.290  0.00  0.00    +0.000 N 
ATOM     10  H   UNL     1       3.994   5.926  16.565  0.00  0.00    +0.000 HD
ENDROOT
BRANCH   1  12
ATOM     11  O   UNL     1       2.889   3.279  16.836  0.00  0.00    +0.000 OA
ATOM     12  C   UNL     1       3.264   3.653  17.945  0.00  0.00    +0.000 C 
ATOM     13  N   UNL     1       2.608   3.273  19.108  0.00  0.00    +0.000 N 
ATOM     14  C   UNL     1       1.549   2.283  19.087  0.00  0.00    +0.000 C 
ATOM     15  C   UNL     1       0.532   2.800  20.091  0.00  0.00    +0.000 C 
ATOM     16  C   UNL     1       1.399   3.481  21.140  0.00  0.00    +0.000 C 
ATOM     17  C   UNL     1       2.558   4.058  20.337  0.00  0.00    +0.000 C 
ENDBRANCH   1  12
TORSDOF 1
ENDMDL
MODEL 8
REMARK VINA RESULT:      -6.8      3.443      4.343
REMARK  Name = 
REMARK  1 active torsions:
REMARK  status: ('A' for Active; 'I' for Inactive)
REMARK    1  A    between atoms: C_2  and  C_3
REMARK                            x       y       z     vdW  Elec       q    Type
REMARK                         _______ _______ _______ _____ _____    ______ ____
ROOT
ATOM      1  C   UNL     1       6.307   4.539  16.368  0.00  0.00    +0.000 A 
ATOM      2  C   UNL     1       5.737   3.687  15.440  0.00  0.00    +0.000 A 
ATOM      3  C   UNL     1       6.298   3.956  14.170  0.00  0.00    +0.000 A 
ATOM      4  C   UNL     1       6.107   3.404  12.894  0.00  0.00    +0.000 A 
ATOM      5  C   UNL     1       6.815   3.931  11.809  0.00  0.00    +0.000 A 
ATOM      6  C   UNL     1       7.702   4.991  11.995  0.00  0.00    +0.000 A 
ATOM      7  C   UNL     1       7.910   5.553  13.259  0.00  0.00    +0.000 A 
ATOM      8  C   UNL     1       7.190   5.014  14.332  0.00  0.00    +0.000 A 
ATOM      9  N   UNL     1       7.159   5.364  15.664  0.00  0.00    +0.000 N 
ATOM     10  H   UNL     1       7.679   6.124  16.080  0.00  0.00    +0.000 HD
ENDROOT
BRANCH   1  12
ATOM     11  O   UNL     1       6.939   4.477  18.613  0.00  0.00    +0.000 OA
ATOM     12  C   UNL     1       6.054   4.697  17.789  0.00  0.00    +0.000 C 
ATOM     13  N   UNL     1       4.782   5.104  18.169  0.00  0.00    +0.000 N 
ATOM     14  C   UNL     1       4.481   5.450  19.544  0.00  0.00    +0.000 C 
ATOM     15  C   UNL     1       3.084   4.897  19.773  0.00  0.00    +0.000 C 
ATOM     16  C   UNL     1       2.421   5.060  18.414  0.00  0.00    +0.000 C 
ATOM     17  C   UNL     1       3.557   4.832  17.424  0.00  0.00    +0.000 C 
ENDBRANCH   1  12
TORSDOF 1
ENDMDL
MODEL 9
REMARK VINA RESULT:      -6.7      2.274      5.810
REMARK  Name = 
REMARK  1 active torsions:
REMARK  status: ('A' for Active; 'I' for Inactive)
REMARK    1  A    between atoms: C_2  and  C_3
REMARK                            x       y       z     vdW  Elec       q    Type
REMARK                         _______ _______ _______ _____ _____    ______ ____
ROOT
ATOM      1  C   UNL     1       4.992   4.575  18.590  0.00  0.00    +0.000 A 
ATOM      2  C   UNL     1       4.785   3.413  19.309  0.00  0.00    +0.000 A 
ATOM      3  C   UNL     1       3.503   3.468  19.904  0.00  0.00    +0.000 A 
ATOM      4  C   UNL     1       2.777   2.583  20.716  0.00  0.00    +0.000 A 
ATOM      5  C   UNL     1       1.511   2.960  21.176  0.00  0.00    +0.000 A 
ATOM      6  C   UNL     1       0.976   4.201  20.828  0.00  0.00    +0.000 A 
ATOM      7  C   UNL     1       1.682   5.095  20.017  0.00  0.00    +0.000 A 
ATOM      8  C   UNL     1       2.949   4.701  19.569  0.00  0.00    +0.000 A 
ATOM      9  N   UNL     1       3.877   5.361  18.794  0.00  0.00    +0.000 N 
ATOM     10  H   UNL     1       3.772   6.296  18.427  0.00  0.00    +0.000 HD
ENDROOT
BRANCH   1  12
ATOM     11  O   UNL     1       6.947   5.822  18.324  0.00  0.00    +0.000 OA
ATOM     12  C   UNL     1       6.146   5.028  17.834  0.00  0.00    +0.000 C 
ATOM     13  N   UNL     1       6.303   4.526  16.549  0.00  0.00    +0.000 N 
ATOM     14  C   UNL     1       7.505   4.785  15.780  0.00  0.00    +0.000 C 
ATOM     15  C   UNL     1       7.005   4.998  14.362  0.00  0.00    +0.000 C 
ATOM     16  C   UNL     1       5.807   4.064  14.274  0.00  0.00    +0.000 C 
ATOM     17  C   UNL     1       5.214   4.099  15.677  0.00  0.00    +0.000 C 
ENDBRANCH   1  12
TORSDOF 1
ENDMDL
