MODEL 1
REMARK VINA RESULT:      -7.5      0.000      0.000
REMARK  Name = 
REMARK  4 active torsions:
REMARK  status: ('A' for Active; 'I' for Inactive)
REMARK    1  A    between atoms: C_1  and  C_2
REMARK    2  A    between atoms: C_6  and  C_7
REMARK    3  A    between atoms: N_9  and  C_10
REMARK    4  A    between atoms: N_9  and  C_11
REMARK                            x       y       z     vdW  Elec       q    Type
REMARK                         _______ _______ _______ _____ _____    ______ ____
ROOT
ATOM      1  C   UNL     1       2.607   6.422  19.630  0.00  0.00    +0.000 C 
ATOM      2  O   UNL     1       2.325   5.439  20.325  0.00  0.00    +0.000 OA
ATOM      3  N   UNL     1       3.554   6.336  18.573  0.00  0.00    +0.000 N 
ATOM      4  C   UNL     1       3.642   7.366  17.541  0.00  0.00    +0.000 C 
ENDROOT
BRANCH   1  10
ATOM      5  C   UNL     1      -0.319  11.302  21.065  0.00  0.00    +0.000 C 
ATOM      6  C   UNL     1       0.429  10.058  20.666  0.00  0.00    +0.000 A 
ATOM      7  C   UNL     1       0.853   9.832  19.351  0.00  0.00    +0.000 A 
ATOM      8 CL   UNL     1       0.446  10.894  18.046  0.00  0.00    +0.000 Cl
ATOM      9  C   UNL     1       1.617   8.706  19.016  0.00  0.00    +0.000 A 
ATOM     10  C   UNL     1       1.878   7.702  19.950  0.00  0.00    +0.000 A 
ATOM     11  C   UNL     1       1.476   7.925  21.273  0.00  0.00    +0.000 A 
ATOM     12  C   UNL     1       0.784   9.094  21.629  0.00  0.00    +0.000 A 
ATOM     13 CL   UNL     1       0.391   9.308  23.300  0.00  0.00    +0.000 Cl
ENDBRANCH   1  10
BRANCH   3  14
ATOM     14  C   UNL     1       4.246   5.024  18.358  0.00  0.00    +0.000 C 
ATOM     15  C   UNL     1       5.565   4.880  19.152  0.00  0.00    +0.000 C 
ATOM     16  C   UNL     1       6.618   5.883  18.721  0.00  0.00    +0.000 C 
ATOM     17  S   UNL     1       7.091   5.657  17.022  0.00  0.00    +0.000 S 
ATOM     18  O   UNL     1       7.717   6.886  16.570  0.00  0.00    +0.000 OA
ATOM     19  O   UNL     1       7.773   4.388  16.911  0.00  0.00    +0.000 OA
ATOM     20  C   UNL     1       5.540   5.507  16.163  0.00  0.00    +0.000 C 
ATOM     21  C   UNL     1       4.535   4.620  16.890  0.00  0.00    +0.000 C 
ENDBRANCH   3  14
TORSDOF 2
ENDMDL
MODEL 2
REMARK VINA RESULT:      -7.4      0.160      1.990
REMARK  Name = 
REMARK  4 active torsions:
REMARK  status: ('A' for Active; 'I' for Inactive)
REMARK    1  A    between atoms: C_1  and  C_2
REMARK    2  A    between atoms: C_6  and  C_7
REMARK    3  A    between atoms: N_9  and  C_10
REMARK    4  A    between atoms: N_9  and  C_11
REMARK                            x       y       z     vdW  Elec       q    Type
REMARK                         _______ _______ _______ _____ _____    ______ ____
ROOT
ATOM      1  C   UNL     1       2.629   6.343  19.660  0.00  0.00    +0.000 C 
ATOM      2  O   UNL     1       2.368   5.344  20.340  0.00  0.00    +0.000 OA
ATOM      3  N   UNL     1       3.555   6.283  18.581  0.00  0.00    +0.000 N 
ATOM      4  C   UNL     1       3.615   7.334  17.568  0.00  0.00    +0.000 C 
ENDROOT
BRANCH   1  10
ATOM      5  C   UNL     1      -0.104  11.389  20.887  0.00  0.00    +0.000 C 
ATOM      6  C   UNL     1       0.596  10.086  20.603  0.00  0.00    +0.000 A 
ATOM      7  C   UNL     1       0.735   9.086  21.574  0.00  0.00    +0.000 A 
ATOM      8 CL   UNL     1       0.232   9.307  23.216  0.00  0.00    +0.000 Cl
ATOM      9  C   UNL     1       1.319   7.850  21.267  0.00  0.00    +0.000 A 
ATOM     10  C   UNL     1       1.899   7.612  20.020  0.00  0.00    +0.000 A 
ATOM     11  C   UNL     1       1.751   8.595  19.035  0.00  0.00    +0.000 A 
ATOM     12  C   UNL     1       1.090   9.803  19.315  0.00  0.00    +0.000 A 
ATOM     13 CL   UNL     1       0.897  10.925  18.013  0.00  0.00    +0.000 Cl
ENDBRANCH   1  10
BRANCH   3  14
ATOM     14  C   UNL     1       4.249   4.980  18.327  0.00  0.00    +0.000 C 
ATOM     15  C   UNL     1       5.568   4.814  19.117  0.00  0.00    +0.000 C 
ATOM     16  C   UNL     1       6.620   5.832  18.719  0.00  0.00    +0.000 C 
ATOM     17  S   UNL     1       7.094   5.661  17.013  0.00  0.00    +0.000 S 
ATOM     18  O   UNL     1       7.718   6.904  16.601  0.00  0.00    +0.000 OA
ATOM     19  O   UNL     1       7.780   4.397  16.863  0.00  0.00    +0.000 OA
ATOM     20  C   UNL     1       5.544   5.534  16.149  0.00  0.00    +0.000 C 
ATOM     21  C   UNL     1       4.541   4.623  16.847  0.00  0.00    +0.000 C 
ENDBRANCH   3  14
TORSDOF 2
ENDMDL
MODEL 3
REMARK VINA RESULT:      -7.1      2.562      3.969
REMARK  Name = 
REMARK  4 active torsions:
REMARK  status: ('A' for Active; 'I' for Inactive)
REMARK    1  A    between atoms: C_1  and  C_2
REMARK    2  A    between atoms: C_6  and  C_7
REMARK    3  A    between atoms: N_9  and  C_10
REMARK    4  A    between atoms: N_9  and  C_11
REMARK                            x       y       z     vdW  Elec       q    Type
REMARK                         _______ _______ _______ _____ _____    ______ ____
ROOT
ATOM      1  C   UNL     1       2.440   7.630  18.921  0.00  0.00    +0.000 C 
ATOM      2  O   UNL     1       3.141   8.098  18.015  0.00  0.00    +0.000 OA
ATOM      3  N   UNL     1       2.554   6.268  19.317  0.00  0.00    +0.000 N 
ATOM      4  C   UNL     1       2.004   5.795  20.585  0.00  0.00    +0.000 C 
ENDROOT
BRANCH   1  10
ATOM      5  C   UNL     1      -1.256  11.485  21.352  0.00  0.00    +0.000 C 
ATOM      6  C   UNL     1      -0.299  10.486  20.757  0.00  0.00    +0.000 A 
ATOM      7  C   UNL     1       0.346   9.516  21.535  0.00  0.00    +0.000 A 
ATOM      8 CL   UNL     1       0.205   9.461  23.259  0.00  0.00    +0.000 Cl
ATOM      9  C   UNL     1       1.172   8.546  20.951  0.00  0.00    +0.000 A 
ATOM     10  C   UNL     1       1.484   8.583  19.591  0.00  0.00    +0.000 A 
ATOM     11  C   UNL     1       0.830   9.534  18.799  0.00  0.00    +0.000 A 
ATOM     12  C   UNL     1      -0.065  10.455  19.369  0.00  0.00    +0.000 A 
ATOM     13 CL   UNL     1      -0.874  11.546  18.298  0.00  0.00    +0.000 Cl
ENDBRANCH   1  10
BRANCH   3  14
ATOM     14  C   UNL     1       3.514   5.398  18.565  0.00  0.00    +0.000 C 
ATOM     15  C   UNL     1       2.870   4.648  17.375  0.00  0.00    +0.000 C 
ATOM     16  C   UNL     1       1.805   3.661  17.815  0.00  0.00    +0.000 C 
ATOM     17  S   UNL     1       2.477   2.377  18.845  0.00  0.00    +0.000 S 
ATOM     18  O   UNL     1       1.378   1.775  19.576  0.00  0.00    +0.000 OA
ATOM     19  O   UNL     1       3.365   1.572  18.037  0.00  0.00    +0.000 OA
ATOM     20  C   UNL     1       3.479   3.255  20.025  0.00  0.00    +0.000 C 
ATOM     21  C   UNL     1       4.315   4.363  19.395  0.00  0.00    +0.000 C 
ENDBRANCH   3  14
TORSDOF 2
ENDMDL
MODEL 4
REMARK VINA RESULT:      -7.1      2.764      3.673
REMARK  Name = 
REMARK  4 active torsions:
REMARK  status: ('A' for Active; 'I' for Inactive)
REMARK    1  A    between atoms: C_1  and  C_2
REMARK    2  A    between atoms: C_6  and  C_7
REMARK    3  A    between atoms: N_9  and  C_10
REMARK    4  A    between atoms: N_9  and  C_11
REMARK                            x       y       z     vdW  Elec       q    Type
REMARK                         _______ _______ _______ _____ _____    ______ ____
ROOT
ATOM      1  C   UNL     1       2.303   7.675  19.135  0.00  0.00    +0.000 C 
ATOM      2  O   UNL     1       3.074   8.050  18.243  0.00  0.00    +0.000 OA
ATOM      3  N   UNL     1       2.318   6.335  19.611  0.00  0.00    +0.000 N 
ATOM      4  C   UNL     1       1.678   5.967  20.872  0.00  0.00    +0.000 C 
ENDROOT
BRANCH   1  10
ATOM      5  C   UNL     1      -1.367  11.589  21.512  0.00  0.00    +0.000 C 
ATOM      6  C   UNL     1      -0.433  10.595  20.873  0.00  0.00    +0.000 A 
ATOM      7  C   UNL     1      -0.144  10.617  19.503  0.00  0.00    +0.000 A 
ATOM      8 CL   UNL     1      -0.928  11.700  18.403  0.00  0.00    +0.000 Cl
ATOM      9  C   UNL     1       0.788   9.734  18.942  0.00  0.00    +0.000 A 
ATOM     10  C   UNL     1       1.371   8.717  19.699  0.00  0.00    +0.000 A 
ATOM     11  C   UNL     1       1.105   8.695  21.073  0.00  0.00    +0.000 A 
ATOM     12  C   UNL     1       0.236   9.634  21.654  0.00  0.00    +0.000 A 
ATOM     13 CL   UNL     1       0.026   9.568  23.370  0.00  0.00    +0.000 Cl
ENDBRANCH   1  10
BRANCH   3  14
ATOM     14  C   UNL     1       3.262   5.371  18.961  0.00  0.00    +0.000 C 
ATOM     15  C   UNL     1       2.818   4.923  17.549  0.00  0.00    +0.000 C 
ATOM     16  C   UNL     1       1.514   4.147  17.566  0.00  0.00    +0.000 C 
ATOM     17  S   UNL     1       1.656   2.636  18.493  0.00  0.00    +0.000 S 
ATOM     18  O   UNL     1       0.315   2.207  18.846  0.00  0.00    +0.000 OA
ATOM     19  O   UNL     1       2.558   1.757  17.783  0.00  0.00    +0.000 OA
ATOM     20  C   UNL     1       2.466   3.132  19.998  0.00  0.00    +0.000 C 
ATOM     21  C   UNL     1       3.623   4.097  19.766  0.00  0.00    +0.000 C 
ENDBRANCH   3  14
TORSDOF 2
ENDMDL
MODEL 5
REMARK VINA RESULT:      -7.1      3.026      4.103
REMARK  Name = 
REMARK  4 active torsions:
REMARK  status: ('A' for Active; 'I' for Inactive)
REMARK    1  A    between atoms: C_1  and  C_2
REMARK    2  A    between atoms: C_6  and  C_7
REMARK    3  A    between atoms: N_9  and  C_10
REMARK    4  A    between atoms: N_9  and  C_11
REMARK                            x       y       z     vdW  Elec       q    Type
REMARK                         _______ _______ _______ _____ _____    ______ ____
ROOT
ATOM      1  C   UNL     1       2.132   8.384  18.133  0.00  0.00    +0.000 C 
ATOM      2  O   UNL     1       2.829   8.479  17.116  0.00  0.00    +0.000 OA
ATOM      3  N   UNL     1       2.299   7.308  19.049  0.00  0.00    +0.000 N 
ATOM      4  C   UNL     1       1.744   7.363  20.399  0.00  0.00    +0.000 C 
ENDROOT
BRANCH   1  10
ATOM      5  C   UNL     1      -1.679  12.721  19.183  0.00  0.00    +0.000 C 
ATOM      6  C   UNL     1      -0.725  11.590  18.903  0.00  0.00    +0.000 A 
ATOM      7  C   UNL     1      -1.120  10.431  18.224  0.00  0.00    +0.000 A 
ATOM      8 CL   UNL     1      -2.763  10.138  17.761  0.00  0.00    +0.000 Cl
ATOM      9  C   UNL     1      -0.199   9.425  17.904  0.00  0.00    +0.000 A 
ATOM     10  C   UNL     1       1.119   9.478  18.358  0.00  0.00    +0.000 A 
ATOM     11  C   UNL     1       1.533  10.640  19.021  0.00  0.00    +0.000 A 
ATOM     12  C   UNL     1       0.631  11.688  19.269  0.00  0.00    +0.000 A 
ATOM     13 CL   UNL     1       1.254  13.109  20.034  0.00  0.00    +0.000 Cl
ENDBRANCH   1  10
BRANCH   3  14
ATOM     14  C   UNL     1       3.313   6.257  18.715  0.00  0.00    +0.000 C 
ATOM     15  C   UNL     1       2.896   5.342  17.540  0.00  0.00    +0.000 C 
ATOM     16  C   UNL     1       1.658   4.520  17.851  0.00  0.00    +0.000 C 
ATOM     17  S   UNL     1       1.926   3.408  19.213  0.00  0.00    +0.000 S 
ATOM     18  O   UNL     1       0.627   3.021  19.729  0.00  0.00    +0.000 OA
ATOM     19  O   UNL     1       2.891   2.415  18.797  0.00  0.00    +0.000 OA
ATOM     20  C   UNL     1       2.705   4.425  20.448  0.00  0.00    +0.000 C 
ATOM     21  C   UNL     1       3.780   5.344  19.878  0.00  0.00    +0.000 C 
ENDBRANCH   3  14
TORSDOF 2
ENDMDL
MODEL 6
REMARK VINA RESULT:      -7.1      3.059      4.227
REMARK  Name = 
REMARK  4 active torsions:
REMARK  status: ('A' for Active; 'I' for Inactive)
REMARK    1  A    between atoms: C_1  and  C_2
REMARK    2  A    between atoms: C_6  and  C_7
REMARK    3  A    between atoms: N_9  and  C_10
REMARK    4  A    between atoms: N_9  and  C_11
REMARK                            x       y       z     vdW  Elec       q    Type
REMARK                         _______ _______ _______ _____ _____    ______ ____
ROOT
ATOM      1  C   UNL     1       2.259   8.317  18.042  0.00  0.00    +0.000 C 
ATOM      2  O   UNL     1       2.954   8.378  17.021  0.00  0.00    +0.000 OA
ATOM      3  N   UNL     1       2.394   7.245  18.968  0.00  0.00    +0.000 N 
ATOM      4  C   UNL     1       1.849   7.332  20.321  0.00  0.00    +0.000 C 
ENDROOT
BRANCH   1  10
ATOM      5  C   UNL     1      -1.666  12.624  18.730  0.00  0.00    +0.000 C 
ATOM      6  C   UNL     1      -0.636  11.539  18.562  0.00  0.00    +0.000 A 
ATOM      7  C   UNL     1       0.694  11.705  18.967  0.00  0.00    +0.000 A 
ATOM      8 CL   UNL     1       1.303  13.208  19.573  0.00  0.00    +0.000 Cl
ATOM      9  C   UNL     1       1.619  10.656  18.874  0.00  0.00    +0.000 A 
ATOM     10  C   UNL     1       1.286   9.447  18.261  0.00  0.00    +0.000 A 
ATOM     11  C   UNL     1      -0.046   9.261  17.870  0.00  0.00    +0.000 A 
ATOM     12  C   UNL     1      -0.996  10.282  18.039  0.00  0.00    +0.000 A 
ATOM     13 CL   UNL     1      -2.629   9.932  17.588  0.00  0.00    +0.000 Cl
ENDBRANCH   1  10
BRANCH   3  14
ATOM     14  C   UNL     1       3.370   6.156  18.640  0.00  0.00    +0.000 C 
ATOM     15  C   UNL     1       2.888   5.209  17.517  0.00  0.00    +0.000 C 
ATOM     16  C   UNL     1       1.644   4.431  17.902  0.00  0.00    +0.000 C 
ATOM     17  S   UNL     1       1.934   3.365  19.295  0.00  0.00    +0.000 S 
ATOM     18  O   UNL     1       0.645   3.030  19.872  0.00  0.00    +0.000 OA
ATOM     19  O   UNL     1       2.858   2.332  18.885  0.00  0.00    +0.000 OA
ATOM     20  C   UNL     1       2.781   4.407  20.462  0.00  0.00    +0.000 C 
ATOM     21  C   UNL     1       3.856   5.276  19.820  0.00  0.00    +0.000 C 
ENDBRANCH   3  14
TORSDOF 2
ENDMDL
MODEL 7
REMARK VINA RESULT:      -6.9      1.566      2.725
REMARK  Name = 
REMARK  4 active torsions:
REMARK  status: ('A' for Active; 'I' for Inactive)
REMARK    1  A    between atoms: C_1  and  C_2
REMARK    2  A    between atoms: C_6  and  C_7
REMARK    3  A    between atoms: N_9  and  C_10
REMARK    4  A    between atoms: N_9  and  C_11
REMARK                            x       y       z     vdW  Elec       q    Type
REMARK                         _______ _______ _______ _____ _____    ______ ____
ROOT
ATOM      1  C   UNL     1       2.749   7.683  17.865  0.00  0.00    +0.000 C 
ATOM      2  O   UNL     1       3.186   8.246  16.854  0.00  0.00    +0.000 OA
ATOM      3  N   UNL     1       3.121   6.349  18.189  0.00  0.00    +0.000 N 
ATOM      4  C   UNL     1       2.903   5.799  19.525  0.00  0.00    +0.000 C 
ENDROOT
BRANCH   1  10
ATOM      5  C   UNL     1      -0.872  10.984  21.093  0.00  0.00    +0.000 C 
ATOM      6  C   UNL     1       0.072  10.128  20.291  0.00  0.00    +0.000 A 
ATOM      7  C   UNL     1       0.967   9.236  20.896  0.00  0.00    +0.000 A 
ATOM      8 CL   UNL     1       1.160   9.133  22.613  0.00  0.00    +0.000 Cl
ATOM      9  C   UNL     1       1.781   8.392  20.130  0.00  0.00    +0.000 A 
ATOM     10  C   UNL     1       1.825   8.492  18.739  0.00  0.00    +0.000 A 
ATOM     11  C   UNL     1       0.922   9.365  18.121  0.00  0.00    +0.000 A 
ATOM     12  C   UNL     1       0.043  10.152  18.884  0.00  0.00    +0.000 A 
ATOM     13 CL   UNL     1      -1.081  11.148  18.026  0.00  0.00    +0.000 Cl
ENDBRANCH   1  10
BRANCH   3  14
ATOM     14  C   UNL     1       4.021   5.622  17.236  0.00  0.00    +0.000 C 
ATOM     15  C   UNL     1       4.435   4.214  17.724  0.00  0.00    +0.000 C 
ATOM     16  C   UNL     1       5.264   4.257  18.994  0.00  0.00    +0.000 C 
ATOM     17  S   UNL     1       6.801   5.118  18.752  0.00  0.00    +0.000 S 
ATOM     18  O   UNL     1       7.298   5.511  20.058  0.00  0.00    +0.000 OA
ATOM     19  O   UNL     1       7.615   4.337  17.848  0.00  0.00    +0.000 OA
ATOM     20  C   UNL     1       6.328   6.605  17.897  0.00  0.00    +0.000 C 
ATOM     21  C   UNL     1       5.308   6.362  16.790  0.00  0.00    +0.000 C 
ENDBRANCH   3  14
TORSDOF 2
ENDMDL
MODEL 8
REMARK VINA RESULT:      -6.7      1.212      1.340
REMARK  Name = 
REMARK  4 active torsions:
REMARK  status: ('A' for Active; 'I' for Inactive)
REMARK    1  A    between atoms: C_1  and  C_2
REMARK    2  A    between atoms: C_6  and  C_7
REMARK    3  A    between atoms: N_9  and  C_10
REMARK    4  A    between atoms: N_9  and  C_11
REMARK                            x       y       z     vdW  Elec       q    Type
REMARK                         _______ _______ _______ _____ _____    ______ ____
ROOT
ATOM      1  C   UNL     1       2.585   6.446  18.211  0.00  0.00    +0.000 C 
ATOM      2  O   UNL     1       2.007   5.353  18.227  0.00  0.00    +0.000 OA
ATOM      3  N   UNL     1       3.879   6.591  17.638  0.00  0.00    +0.000 N 
ATOM      4  C   UNL     1       4.420   7.906  17.300  0.00  0.00    +0.000 C 
ENDROOT
BRANCH   1  10
ATOM      5  C   UNL     1      -0.329  10.870  20.735  0.00  0.00    +0.000 C 
ATOM      6  C   UNL     1       0.405   9.741  20.060  0.00  0.00    +0.000 A 
ATOM      7  C   UNL     1       0.370   9.554  18.672  0.00  0.00    +0.000 A 
ATOM      8 CL   UNL     1      -0.618  10.517  17.627  0.00  0.00    +0.000 Cl
ATOM      9  C   UNL     1       1.123   8.545  18.056  0.00  0.00    +0.000 A 
ATOM     10  C   UNL     1       1.836   7.611  18.807  0.00  0.00    +0.000 A 
ATOM     11  C   UNL     1       1.895   7.798  20.193  0.00  0.00    +0.000 A 
ATOM     12  C   UNL     1       1.210   8.860  20.806  0.00  0.00    +0.000 A 
ATOM     13 CL   UNL     1       1.400   9.048  22.516  0.00  0.00    +0.000 Cl
ENDBRANCH   1  10
BRANCH   3  14
ATOM     14  C   UNL     1       4.548   5.364  17.100  0.00  0.00    +0.000 C 
ATOM     15  C   UNL     1       5.007   4.375  18.198  0.00  0.00    +0.000 C 
ATOM     16  C   UNL     1       6.073   4.963  19.104  0.00  0.00    +0.000 C 
ATOM     17  S   UNL     1       7.557   5.360  18.208  0.00  0.00    +0.000 S 
ATOM     18  O   UNL     1       8.315   6.305  19.007  0.00  0.00    +0.000 OA
ATOM     19  O   UNL     1       8.151   4.123  17.753  0.00  0.00    +0.000 OA
ATOM     20  C   UNL     1       6.970   6.232  16.773  0.00  0.00    +0.000 C 
ATOM     21  C   UNL     1       5.744   5.585  16.139  0.00  0.00    +0.000 C 
ENDBRANCH   3  14
TORSDOF 2
ENDMDL
MODEL 9
REMARK VINA RESULT:      -6.6      2.450      3.815
REMARK  Name = 
REMARK  4 active torsions:
REMARK  status: ('A' for Active; 'I' for Inactive)
REMARK    1  A    between atoms: C_1  and  C_2
REMARK    2  A    between atoms: C_6  and  C_7
REMARK    3  A    between atoms: N_9  and  C_10
REMARK    4  A    between atoms: N_9  and  C_11
REMARK                            x       y       z     vdW  Elec       q    Type
REMARK                         _______ _______ _______ _____ _____    ______ ____
ROOT
ATOM      1  C   UNL     1       2.029   8.199  18.461  0.00  0.00    +0.000 C 
ATOM      2  O   UNL     1       2.348   8.550  17.319  0.00  0.00    +0.000 OA
ATOM      3  N   UNL     1       2.269   6.875  18.924  0.00  0.00    +0.000 N 
ATOM      4  C   UNL     1       2.222   6.544  20.346  0.00  0.00    +0.000 C 
ENDROOT
BRANCH   1  10
ATOM      5  C   UNL     1      -0.325  12.456  21.743  0.00  0.00    +0.000 C 
ATOM      6  C   UNL     1       0.278  11.344  20.925  0.00  0.00    +0.000 A 
ATOM      7  C   UNL     1       0.375  10.033  21.407  0.00  0.00    +0.000 A 
ATOM      8 CL   UNL     1      -0.068   9.600  23.024  0.00  0.00    +0.000 Cl
ATOM      9  C   UNL     1       0.867   8.997  20.602  0.00  0.00    +0.000 A 
ATOM     10  C   UNL     1       1.396   9.251  19.336  0.00  0.00    +0.000 A 
ATOM     11  C   UNL     1       1.288  10.554  18.835  0.00  0.00    +0.000 A 
ATOM     12  C   UNL     1       0.717  11.578  19.608  0.00  0.00    +0.000 A 
ATOM     13 CL   UNL     1       0.566  13.138  18.875  0.00  0.00    +0.000 Cl
ENDBRANCH   1  10
BRANCH   3  14
ATOM     14  C   UNL     1       2.875   5.898  17.964  0.00  0.00    +0.000 C 
ATOM     15  C   UNL     1       1.982   4.667  17.683  0.00  0.00    +0.000 C 
ATOM     16  C   UNL     1       1.754   3.817  18.920  0.00  0.00    +0.000 C 
ATOM     17  S   UNL     1       3.274   3.136  19.544  0.00  0.00    +0.000 S 
ATOM     18  O   UNL     1       3.050   2.749  20.924  0.00  0.00    +0.000 OA
ATOM     19  O   UNL     1       3.772   2.187  18.574  0.00  0.00    +0.000 OA
ATOM     20  C   UNL     1       4.389   4.522  19.557  0.00  0.00    +0.000 C 
ATOM     21  C   UNL     1       4.297   5.379  18.300  0.00  0.00    +0.000 C 
ENDBRANCH   3  14
TORSDOF 2
ENDMDL
