MODEL 1
REMARK VINA RESULT:      -7.1      0.000      0.000
REMARK  Name = 
REMARK  5 active torsions:
REMARK  status: ('A' for Active; 'I' for Inactive)
REMARK    1  A    between atoms: C_2  and  C_3
REMARK    2  A    between atoms: C_3  and  O_4
REMARK    3  A    between atoms: N_5  and  C_6
REMARK    4  A    between atoms: C_17  and  C_18
REMARK    5  A    between atoms: C_25  and  C_26
REMARK                            x       y       z     vdW  Elec       q    Type
REMARK                         _______ _______ _______ _____ _____    ______ ____
ROOT
ATOM      1  C   UNL     1       2.917  14.924  19.429  0.00  0.00    +0.000 C 
ATOM      2  C   UNL     1       2.611  16.276  18.782  0.00  0.00    +0.000 C 
ATOM      3  C   UNL     1       1.131  16.660  18.949  0.00  0.00    +0.000 C 
ATOM      4  C   UNL     1       0.651  16.788  20.415  0.00  0.00    +0.000 C 
ATOM      5  C   UNL     1      -0.792  17.283  20.508  0.00  0.00    +0.000 C 
ATOM      6  C   UNL     1      -0.951  18.631  19.825  0.00  0.00    +0.000 C 
ATOM      7  C   UNL     1      -0.499  18.569  18.372  0.00  0.00    +0.000 C 
ATOM      8  C   UNL     1       0.921  18.019  18.235  0.00  0.00    +0.000 C 
ATOM      9  O   UNL     1       0.318  15.679  18.286  0.00  0.00    +0.000 OA
ATOM     10  C   UNL     1       0.603  14.375  18.578  0.00  0.00    +0.000 A 
ATOM     11  N   UNL     1      -0.418  13.540  18.334  0.00  0.00    +0.000 NA
ATOM     12  C   UNL     1      -0.262  12.199  18.499  0.00  0.00    +0.000 A 
ATOM     13  C   UNL     1       0.971  11.648  18.943  0.00  0.00    +0.000 A 
ATOM     14  C   UNL     1       2.003  12.573  19.234  0.00  0.00    +0.000 A 
ATOM     15  C   UNL     1       1.829  13.946  19.064  0.00  0.00    +0.000 A 
ENDROOT
BRANCH  12  16
ATOM     16  C   UNL     1      -1.518  11.437  18.233  0.00  0.00    +0.000 A 
ATOM     17  C   UNL     1      -1.556  10.450  17.221  0.00  0.00    +0.000 A 
ATOM     18  C   UNL     1      -2.732   9.773  16.875  0.00  0.00    +0.000 A 
ATOM     19  C   UNL     1      -3.894   9.991  17.599  0.00  0.00    +0.000 A 
ATOM     20  C   UNL     1      -3.882  10.899  18.652  0.00  0.00    +0.000 A 
ATOM     21  C   UNL     1      -2.721  11.634  18.954  0.00  0.00    +0.000 A 
ATOM     22 CL   UNL     1      -2.906  12.815  20.211  0.00  0.00    +0.000 Cl
ENDBRANCH  12  16
BRANCH  13  23
ATOM     23  C   UNL     1       1.239  10.199  19.152  0.00  0.00    +0.000 A 
ATOM     24  C   UNL     1       0.926   9.543  20.358  0.00  0.00    +0.000 A 
ATOM     25  C   UNL     1       1.318   8.220  20.594  0.00  0.00    +0.000 A 
ATOM     26  C   UNL     1       1.954   7.497  19.593  0.00  0.00    +0.000 A 
ATOM     27 CL   UNL     1       2.452   5.879  19.886  0.00  0.00    +0.000 Cl
ATOM     28  C   UNL     1       2.198   8.085  18.357  0.00  0.00    +0.000 A 
ATOM     29  C   UNL     1       1.857   9.425  18.146  0.00  0.00    +0.000 A 
ENDBRANCH  13  23
BRANCH   1  32
ATOM     30  O   UNL     1       5.366  14.907  20.959  0.00  0.00    +0.000 OA
ATOM     31  C   UNL     1       4.284  15.025  21.524  0.00  0.00    +0.000 C 
ATOM     32  N   UNL     1       3.068  15.009  20.878  0.00  0.00    +0.000 N 
ATOM     33  H   UNL     1       2.246  15.116  21.467  0.00  0.00    +0.000 HD
BRANCH  31  34
ATOM     34  C   UNL     1       4.160  15.193  23.042  0.00  0.00    +0.000 C 
BRANCH  34  35
ATOM     35  O   UNL     1       4.878  14.201  23.768  0.00  0.00    +0.000 OA
ATOM     36  H   UNL     1       5.135  13.516  23.123  0.00  0.00    +0.000 HD
ENDBRANCH  34  35
ENDBRANCH  31  34
ENDBRANCH   1  32
TORSDOF 5
ENDMDL
MODEL 2
REMARK VINA RESULT:      -7.1      2.067      5.395
REMARK  Name = 
REMARK  5 active torsions:
REMARK  status: ('A' for Active; 'I' for Inactive)
REMARK    1  A    between atoms: C_2  and  C_3
REMARK    2  A    between atoms: C_3  and  O_4
REMARK    3  A    between atoms: N_5  and  C_6
REMARK    4  A    between atoms: C_17  and  C_18
REMARK    5  A    between atoms: C_25  and  C_26
REMARK                            x       y       z     vdW  Elec       q    Type
REMARK                         _______ _______ _______ _____ _____    ______ ____
ROOT
ATOM      1  C   UNL     1       1.135  16.755  19.673  0.00  0.00    +0.000 C 
ATOM      2  C   UNL     1       2.411  17.193  20.393  0.00  0.00    +0.000 C 
ATOM      3  C   UNL     1       3.629  16.373  19.936  0.00  0.00    +0.000 C 
ATOM      4  C   UNL     1       3.955  16.473  18.427  0.00  0.00    +0.000 C 
ATOM      5  C   UNL     1       5.239  15.730  18.064  0.00  0.00    +0.000 C 
ATOM      6  C   UNL     1       6.421  16.266  18.853  0.00  0.00    +0.000 C 
ATOM      7  C   UNL     1       6.164  16.189  20.352  0.00  0.00    +0.000 C 
ATOM      8  C   UNL     1       4.853  16.870  20.745  0.00  0.00    +0.000 C 
ATOM      9  O   UNL     1       3.410  14.992  20.266  0.00  0.00    +0.000 OA
ATOM     10  C   UNL     1       2.202  14.476  19.888  0.00  0.00    +0.000 A 
ATOM     11  N   UNL     1       2.206  13.138  19.783  0.00  0.00    +0.000 NA
ATOM     12  C   UNL     1       1.057  12.470  19.493  0.00  0.00    +0.000 A 
ATOM     13  C   UNL     1      -0.167  13.162  19.283  0.00  0.00    +0.000 A 
ATOM     14  C   UNL     1      -0.110  14.575  19.357  0.00  0.00    +0.000 A 
ATOM     15  C   UNL     1       1.076  15.248  19.651  0.00  0.00    +0.000 A 
ENDROOT
BRANCH  12  16
ATOM     16  C   UNL     1       1.265  10.997  19.365  0.00  0.00    +0.000 A 
ATOM     17  C   UNL     1       1.845  10.455  18.195  0.00  0.00    +0.000 A 
ATOM     18  C   UNL     1       1.979   9.076  17.992  0.00  0.00    +0.000 A 
ATOM     19  C   UNL     1       1.627   8.191  18.999  0.00  0.00    +0.000 A 
ATOM     20  C   UNL     1       1.122   8.686  20.197  0.00  0.00    +0.000 A 
ATOM     21  C   UNL     1       0.918  10.066  20.374  0.00  0.00    +0.000 A 
ATOM     22 CL   UNL     1       0.165  10.510  21.873  0.00  0.00    +0.000 Cl
ENDBRANCH  12  16
BRANCH  13  23
ATOM     23  C   UNL     1      -1.473  12.522  18.964  0.00  0.00    +0.000 A 
ATOM     24  C   UNL     1      -1.700  11.843  17.752  0.00  0.00    +0.000 A 
ATOM     25  C   UNL     1      -2.973  11.375  17.402  0.00  0.00    +0.000 A 
ATOM     26  C   UNL     1      -4.026  11.501  18.299  0.00  0.00    +0.000 A 
ATOM     27 CL   UNL     1      -5.593  10.944  17.866  0.00  0.00    +0.000 Cl
ATOM     28  C   UNL     1      -3.817  12.085  19.543  0.00  0.00    +0.000 A 
ATOM     29  C   UNL     1      -2.557  12.602  19.864  0.00  0.00    +0.000 A 
ENDBRANCH  13  23
BRANCH   1  32
ATOM     30  O   UNL     1      -1.038  18.275  18.531  0.00  0.00    +0.000 OA
ATOM     31  C   UNL     1      -0.034  18.038  17.868  0.00  0.00    +0.000 C 
ATOM     32  N   UNL     1       1.033  17.294  18.320  0.00  0.00    +0.000 N 
ATOM     33  H   UNL     1       1.803  17.172  17.667  0.00  0.00    +0.000 HD
BRANCH  31  34
ATOM     34  C   UNL     1       0.145  18.541  16.432  0.00  0.00    +0.000 C 
BRANCH  34  35
ATOM     35  O   UNL     1       1.455  18.307  15.924  0.00  0.00    +0.000 OA
ATOM     36  H   UNL     1       1.577  18.922  15.177  0.00  0.00    +0.000 HD
ENDBRANCH  34  35
ENDBRANCH  31  34
ENDBRANCH   1  32
TORSDOF 5
ENDMDL
MODEL 3
REMARK VINA RESULT:      -7.1      2.384      5.439
REMARK  Name = 
REMARK  5 active torsions:
REMARK  status: ('A' for Active; 'I' for Inactive)
REMARK    1  A    between atoms: C_2  and  C_3
REMARK    2  A    between atoms: C_3  and  O_4
REMARK    3  A    between atoms: N_5  and  C_6
REMARK    4  A    between atoms: C_17  and  C_18
REMARK    5  A    between atoms: C_25  and  C_26
REMARK                            x       y       z     vdW  Elec       q    Type
REMARK                         _______ _______ _______ _____ _____    ______ ____
ROOT
ATOM      1  C   UNL     1       0.791  16.743  20.670  0.00  0.00    +0.000 C 
ATOM      2  C   UNL     1       1.776  17.208  21.744  0.00  0.00    +0.000 C 
ATOM      3  C   UNL     1       2.959  16.236  21.886  0.00  0.00    +0.000 C 
ATOM      4  C   UNL     1       3.807  16.049  20.605  0.00  0.00    +0.000 C 
ATOM      5  C   UNL     1       5.029  15.164  20.846  0.00  0.00    +0.000 C 
ATOM      6  C   UNL     1       5.915  15.743  21.936  0.00  0.00    +0.000 C 
ATOM      7  C   UNL     1       5.137  15.945  23.230  0.00  0.00    +0.000 C 
ATOM      8  C   UNL     1       3.872  16.777  23.014  0.00  0.00    +0.000 C 
ATOM      9  O   UNL     1       2.460  14.952  22.295  0.00  0.00    +0.000 OA
ATOM     10  C   UNL     1       1.408  14.466  21.571  0.00  0.00    +0.000 A 
ATOM     11  N   UNL     1       1.275  13.133  21.657  0.00  0.00    +0.000 NA
ATOM     12  C   UNL     1       0.226  12.509  21.056  0.00  0.00    +0.000 A 
ATOM     13  C   UNL     1      -0.744  13.240  20.317  0.00  0.00    +0.000 A 
ATOM     14  C   UNL     1      -0.533  14.636  20.215  0.00  0.00    +0.000 A 
ATOM     15  C   UNL     1       0.548  15.264  20.832  0.00  0.00    +0.000 A 
ENDROOT
BRANCH  12  16
ATOM     16  C   UNL     1       0.273  11.026  21.215  0.00  0.00    +0.000 A 
ATOM     17  C   UNL     1       1.103  10.242  20.380  0.00  0.00    +0.000 A 
ATOM     18  C   UNL     1       1.114   8.843  20.432  0.00  0.00    +0.000 A 
ATOM     19  C   UNL     1       0.366   8.180  21.392  0.00  0.00    +0.000 A 
ATOM     20  C   UNL     1      -0.407   8.916  22.283  0.00  0.00    +0.000 A 
ATOM     21  C   UNL     1      -0.477  10.317  22.186  0.00  0.00    +0.000 A 
ATOM     22 CL   UNL     1      -1.581  11.076  23.288  0.00  0.00    +0.000 Cl
ENDBRANCH  12  16
BRANCH  13  23
ATOM     23  C   UNL     1      -1.924  12.649  19.628  0.00  0.00    +0.000 A 
ATOM     24  C   UNL     1      -1.814  11.971  18.399  0.00  0.00    +0.000 A 
ATOM     25  C   UNL     1      -2.947  11.551  17.692  0.00  0.00    +0.000 A 
ATOM     26  C   UNL     1      -4.211  11.725  18.243  0.00  0.00    +0.000 A 
ATOM     27 CL   UNL     1      -5.604  11.226  17.368  0.00  0.00    +0.000 Cl
ATOM     28  C   UNL     1      -4.350  12.309  19.496  0.00  0.00    +0.000 A 
ATOM     29  C   UNL     1      -3.220  12.779  20.172  0.00  0.00    +0.000 A 
ENDBRANCH  13  23
BRANCH   1  32
ATOM     30  O   UNL     1      -0.686  18.039  18.555  0.00  0.00    +0.000 OA
ATOM     31  C   UNL     1       0.478  17.698  18.376  0.00  0.00    +0.000 C 
ATOM     32  N   UNL     1       1.245  17.045  19.316  0.00  0.00    +0.000 N 
ATOM     33  H   UNL     1       2.196  16.818  19.038  0.00  0.00    +0.000 HD
BRANCH  31  34
ATOM     34  C   UNL     1       1.220  17.952  17.060  0.00  0.00    +0.000 C 
BRANCH  34  35
ATOM     35  O   UNL     1       2.589  17.565  17.115  0.00  0.00    +0.000 OA
ATOM     36  H   UNL     1       2.966  17.989  17.908  0.00  0.00    +0.000 HD
ENDBRANCH  34  35
ENDBRANCH  31  34
ENDBRANCH   1  32
TORSDOF 5
ENDMDL
MODEL 4
REMARK VINA RESULT:      -7.0      2.272      5.566
REMARK  Name = 
REMARK  5 active torsions:
REMARK  status: ('A' for Active; 'I' for Inactive)
REMARK    1  A    between atoms: C_2  and  C_3
REMARK    2  A    between atoms: C_3  and  O_4
REMARK    3  A    between atoms: N_5  and  C_6
REMARK    4  A    between atoms: C_17  and  C_18
REMARK    5  A    between atoms: C_25  and  C_26
REMARK                            x       y       z     vdW  Elec       q    Type
REMARK                         _______ _______ _______ _____ _____    ______ ____
ROOT
ATOM      1  C   UNL     1       0.844  16.760  20.594  0.00  0.00    +0.000 C 
ATOM      2  C   UNL     1       1.858  17.232  21.637  0.00  0.00    +0.000 C 
ATOM      3  C   UNL     1       3.015  16.231  21.794  0.00  0.00    +0.000 C 
ATOM      4  C   UNL     1       3.837  15.975  20.508  0.00  0.00    +0.000 C 
ATOM      5  C   UNL     1       5.037  15.064  20.762  0.00  0.00    +0.000 C 
ATOM      6  C   UNL     1       5.956  15.653  21.818  0.00  0.00    +0.000 C 
ATOM      7  C   UNL     1       5.205  15.923  23.115  0.00  0.00    +0.000 C 
ATOM      8  C   UNL     1       3.961  16.783  22.889  0.00  0.00    +0.000 C 
ATOM      9  O   UNL     1       2.486  14.977  22.255  0.00  0.00    +0.000 OA
ATOM     10  C   UNL     1       1.408  14.497  21.564  0.00  0.00    +0.000 A 
ATOM     11  N   UNL     1       1.239  13.173  21.698  0.00  0.00    +0.000 NA
ATOM     12  C   UNL     1       0.162  12.560  21.135  0.00  0.00    +0.000 A 
ATOM     13  C   UNL     1      -0.798  13.293  20.386  0.00  0.00    +0.000 A 
ATOM     14  C   UNL     1      -0.549  14.678  20.232  0.00  0.00    +0.000 A 
ATOM     15  C   UNL     1       0.561  15.294  20.811  0.00  0.00    +0.000 A 
ENDROOT
BRANCH  12  16
ATOM     16  C   UNL     1       0.170  11.082  21.345  0.00  0.00    +0.000 A 
ATOM     17  C   UNL     1      -0.378  10.522  22.522  0.00  0.00    +0.000 A 
ATOM     18  C   UNL     1      -0.315   9.152  22.802  0.00  0.00    +0.000 A 
ATOM     19  C   UNL     1       0.213   8.277  21.865  0.00  0.00    +0.000 A 
ATOM     20  C   UNL     1       0.695   8.777  20.660  0.00  0.00    +0.000 A 
ATOM     21  C   UNL     1       0.699  10.161  20.407  0.00  0.00    +0.000 A 
ATOM     22 CL   UNL     1       1.448  10.632  18.915  0.00  0.00    +0.000 Cl
ENDBRANCH  12  16
BRANCH  13  23
ATOM     23  C   UNL     1      -2.005  12.714  19.735  0.00  0.00    +0.000 A 
ATOM     24  C   UNL     1      -1.937  12.007  18.520  0.00  0.00    +0.000 A 
ATOM     25  C   UNL     1      -3.094  11.598  17.846  0.00  0.00    +0.000 A 
ATOM     26  C   UNL     1      -4.341  11.811  18.420  0.00  0.00    +0.000 A 
ATOM     27 CL   UNL     1      -5.764  11.325  17.587  0.00  0.00    +0.000 Cl
ATOM     28  C   UNL     1      -4.440  12.425  19.663  0.00  0.00    +0.000 A 
ATOM     29  C   UNL     1      -3.285  12.884  20.304  0.00  0.00    +0.000 A 
ENDBRANCH  13  23
BRANCH   1  32
ATOM     30  O   UNL     1      -0.296  18.579  18.663  0.00  0.00    +0.000 OA
ATOM     31  C   UNL     1       0.696  17.916  18.378  0.00  0.00    +0.000 C 
ATOM     32  N   UNL     1       1.284  17.002  19.224  0.00  0.00    +0.000 N 
ATOM     33  H   UNL     1       2.102  16.519  18.862  0.00  0.00    +0.000 HD
BRANCH  31  34
ATOM     34  C   UNL     1       1.399  18.023  17.020  0.00  0.00    +0.000 C 
BRANCH  34  35
ATOM     35  O   UNL     1       2.733  17.528  17.049  0.00  0.00    +0.000 OA
ATOM     36  H   UNL     1       2.892  17.106  16.185  0.00  0.00    +0.000 HD
ENDBRANCH  34  35
ENDBRANCH  31  34
ENDBRANCH   1  32
TORSDOF 5
ENDMDL
MODEL 5
REMARK VINA RESULT:      -6.8      2.635      5.860
REMARK  Name = 
REMARK  5 active torsions:
REMARK  status: ('A' for Active; 'I' for Inactive)
REMARK    1  A    between atoms: C_2  and  C_3
REMARK    2  A    between atoms: C_3  and  O_4
REMARK    3  A    between atoms: N_5  and  C_6
REMARK    4  A    between atoms: C_17  and  C_18
REMARK    5  A    between atoms: C_25  and  C_26
REMARK                            x       y       z     vdW  Elec       q    Type
REMARK                         _______ _______ _______ _____ _____    ______ ____
ROOT
ATOM      1  C   UNL     1       1.317  16.984  20.064  0.00  0.00    +0.000 C 
ATOM      2  C   UNL     1       2.811  17.182  20.324  0.00  0.00    +0.000 C 
ATOM      3  C   UNL     1       3.635  15.981  19.832  0.00  0.00    +0.000 C 
ATOM      4  C   UNL     1       3.519  15.685  18.318  0.00  0.00    +0.000 C 
ATOM      5  C   UNL     1       4.450  14.556  17.877  0.00  0.00    +0.000 C 
ATOM      6  C   UNL     1       5.897  14.886  18.198  0.00  0.00    +0.000 C 
ATOM      7  C   UNL     1       6.080  15.182  19.682  0.00  0.00    +0.000 C 
ATOM      8  C   UNL     1       5.120  16.266  20.172  0.00  0.00    +0.000 C 
ATOM      9  O   UNL     1       3.231  14.810  20.559  0.00  0.00    +0.000 OA
ATOM     10  C   UNL     1       1.884  14.587  20.624  0.00  0.00    +0.000 A 
ATOM     11  N   UNL     1       1.568  13.308  20.880  0.00  0.00    +0.000 NA
ATOM     12  C   UNL     1       0.269  12.945  21.054  0.00  0.00    +0.000 A 
ATOM     13  C   UNL     1      -0.784  13.894  20.958  0.00  0.00    +0.000 A 
ATOM     14  C   UNL     1      -0.404  15.221  20.638  0.00  0.00    +0.000 A 
ATOM     15  C   UNL     1       0.931  15.580  20.458  0.00  0.00    +0.000 A 
ENDROOT
BRANCH  12  16
ATOM     16  C   UNL     1       0.109  11.477  21.278  0.00  0.00    +0.000 A 
ATOM     17  C   UNL     1      -0.362  10.988  22.518  0.00  0.00    +0.000 A 
ATOM     18  C   UNL     1      -0.444   9.620  22.804  0.00  0.00    +0.000 A 
ATOM     19  C   UNL     1      -0.151   8.688  21.821  0.00  0.00    +0.000 A 
ATOM     20  C   UNL     1       0.244   9.127  20.561  0.00  0.00    +0.000 A 
ATOM     21  C   UNL     1       0.398  10.499  20.294  0.00  0.00    +0.000 A 
ATOM     22 CL   UNL     1       1.017  10.875  18.718  0.00  0.00    +0.000 Cl
ENDBRANCH  12  16
BRANCH  13  23
ATOM     23  C   UNL     1      -2.231  13.595  21.133  0.00  0.00    +0.000 A 
ATOM     24  C   UNL     1      -2.907  13.838  22.344  0.00  0.00    +0.000 A 
ATOM     25  C   UNL     1      -4.227  13.416  22.543  0.00  0.00    +0.000 A 
ATOM     26  C   UNL     1      -4.927  12.820  21.501  0.00  0.00    +0.000 A 
ATOM     27 CL   UNL     1      -6.542  12.285  21.747  0.00  0.00    +0.000 Cl
ATOM     28  C   UNL     1      -4.320  12.647  20.263  0.00  0.00    +0.000 A 
ATOM     29  C   UNL     1      -2.983  13.017  20.088  0.00  0.00    +0.000 A 
ENDBRANCH  13  23
BRANCH   1  32
ATOM     30  O   UNL     1      -0.850  18.631  19.101  0.00  0.00    +0.000 OA
ATOM     31  C   UNL     1      -0.094  18.080  18.309  0.00  0.00    +0.000 C 
ATOM     32  N   UNL     1       0.942  17.251  18.679  0.00  0.00    +0.000 N 
ATOM     33  H   UNL     1       1.493  16.857  17.920  0.00  0.00    +0.000 HD
BRANCH  31  34
ATOM     34  C   UNL     1      -0.226  18.242  16.791  0.00  0.00    +0.000 C 
BRANCH  34  35
ATOM     35  O   UNL     1       1.031  18.385  16.140  0.00  0.00    +0.000 OA
ATOM     36  H   UNL     1       1.364  19.273  16.368  0.00  0.00    +0.000 HD
ENDBRANCH  34  35
ENDBRANCH  31  34
ENDBRANCH   1  32
TORSDOF 5
ENDMDL
MODEL 6
REMARK VINA RESULT:      -6.7      4.211      7.087
REMARK  Name = 
REMARK  5 active torsions:
REMARK  status: ('A' for Active; 'I' for Inactive)
REMARK    1  A    between atoms: C_2  and  C_3
REMARK    2  A    between atoms: C_3  and  O_4
REMARK    3  A    between atoms: N_5  and  C_6
REMARK    4  A    between atoms: C_17  and  C_18
REMARK    5  A    between atoms: C_25  and  C_26
REMARK                            x       y       z     vdW  Elec       q    Type
REMARK                         _______ _______ _______ _____ _____    ______ ____
ROOT
ATOM      1  C   UNL     1      -5.001  13.445  22.554  0.00  0.00    +0.000 C 
ATOM      2  C   UNL     1      -4.558  13.718  23.992  0.00  0.00    +0.000 C 
ATOM      3  C   UNL     1      -3.300  14.600  24.039  0.00  0.00    +0.000 C 
ATOM      4  C   UNL     1      -3.455  15.994  23.386  0.00  0.00    +0.000 C 
ATOM      5  C   UNL     1      -2.209  16.859  23.570  0.00  0.00    +0.000 C 
ATOM      6  C   UNL     1      -1.886  17.045  25.042  0.00  0.00    +0.000 C 
ATOM      7  C   UNL     1      -1.715  15.704  25.743  0.00  0.00    +0.000 C 
ATOM      8  C   UNL     1      -2.920  14.787  25.529  0.00  0.00    +0.000 C 
ATOM      9  O   UNL     1      -2.222  13.908  23.389  0.00  0.00    +0.000 OA
ATOM     10  C   UNL     1      -2.507  13.389  22.157  0.00  0.00    +0.000 A 
ATOM     11  N   UNL     1      -1.417  13.177  21.405  0.00  0.00    +0.000 NA
ATOM     12  C   UNL     1      -1.531  12.589  20.183  0.00  0.00    +0.000 A 
ATOM     13  C   UNL     1      -2.795  12.197  19.666  0.00  0.00    +0.000 A 
ATOM     14  C   UNL     1      -3.920  12.486  20.476  0.00  0.00    +0.000 A 
ATOM     15  C   UNL     1      -3.791  13.093  21.725  0.00  0.00    +0.000 A 
ENDROOT
BRANCH  12  16
ATOM     16  C   UNL     1      -0.222  12.483  19.473  0.00  0.00    +0.000 A 
ATOM     17  C   UNL     1       0.483  11.258  19.446  0.00  0.00    +0.000 A 
ATOM     18  C   UNL     1       1.753  11.133  18.870  0.00  0.00    +0.000 A 
ATOM     19  C   UNL     1       2.322  12.211  18.209  0.00  0.00    +0.000 A 
ATOM     20  C   UNL     1       1.630  13.415  18.146  0.00  0.00    +0.000 A 
ATOM     21  C   UNL     1       0.387  13.564  18.787  0.00  0.00    +0.000 A 
ATOM     22 CL   UNL     1      -0.287  15.161  18.722  0.00  0.00    +0.000 Cl
ENDBRANCH  12  16
BRANCH  13  23
ATOM     23  C   UNL     1      -3.021  11.548  18.346  0.00  0.00    +0.000 A 
ATOM     24  C   UNL     1      -2.096  10.647  17.784  0.00  0.00    +0.000 A 
ATOM     25  C   UNL     1      -2.250  10.159  16.481  0.00  0.00    +0.000 A 
ATOM     26  C   UNL     1      -3.379  10.495  15.745  0.00  0.00    +0.000 A 
ATOM     27 CL   UNL     1      -3.561   9.912  14.138  0.00  0.00    +0.000 Cl
ATOM     28  C   UNL     1      -4.358  11.309  16.302  0.00  0.00    +0.000 A 
ATOM     29  C   UNL     1      -4.172  11.841  17.583  0.00  0.00    +0.000 A 
ENDBRANCH  13  23
BRANCH   1  32
ATOM     30  O   UNL     1      -7.525  13.382  21.153  0.00  0.00    +0.000 OA
ATOM     31  C   UNL     1      -6.945  14.447  21.334  0.00  0.00    +0.000 C 
ATOM     32  N   UNL     1      -5.723  14.565  21.960  0.00  0.00    +0.000 N 
ATOM     33  H   UNL     1      -5.352  15.508  22.043  0.00  0.00    +0.000 HD
BRANCH  31  34
ATOM     34  C   UNL     1      -7.515  15.789  20.863  0.00  0.00    +0.000 C 
BRANCH  34  35
ATOM     35  O   UNL     1      -6.785  16.905  21.363  0.00  0.00    +0.000 OA
ATOM     36  H   UNL     1      -5.842  16.660  21.324  0.00  0.00    +0.000 HD
ENDBRANCH  34  35
ENDBRANCH  31  34
ENDBRANCH   1  32
TORSDOF 5
ENDMDL
MODEL 7
REMARK VINA RESULT:      -6.6      4.089      6.511
REMARK  Name = 
REMARK  5 active torsions:
REMARK  status: ('A' for Active; 'I' for Inactive)
REMARK    1  A    between atoms: C_2  and  C_3
REMARK    2  A    between atoms: C_3  and  O_4
REMARK    3  A    between atoms: N_5  and  C_6
REMARK    4  A    between atoms: C_17  and  C_18
REMARK    5  A    between atoms: C_25  and  C_26
REMARK                            x       y       z     vdW  Elec       q    Type
REMARK                         _______ _______ _______ _____ _____    ______ ____
ROOT
ATOM      1  C   UNL     1      -3.917  13.489  23.547  0.00  0.00    +0.000 C 
ATOM      2  C   UNL     1      -4.150  14.861  24.182  0.00  0.00    +0.000 C 
ATOM      3  C   UNL     1      -3.771  16.001  23.222  0.00  0.00    +0.000 C 
ATOM      4  C   UNL     1      -4.562  16.025  21.892  0.00  0.00    +0.000 C 
ATOM      5  C   UNL     1      -4.218  17.245  21.038  0.00  0.00    +0.000 C 
ATOM      6  C   UNL     1      -4.497  18.533  21.792  0.00  0.00    +0.000 C 
ATOM      7  C   UNL     1      -3.740  18.574  23.113  0.00  0.00    +0.000 C 
ATOM      8  C   UNL     1      -4.012  17.336  23.969  0.00  0.00    +0.000 C 
ATOM      9  O   UNL     1      -2.370  15.907  22.919  0.00  0.00    +0.000 OA
ATOM     10  C   UNL     1      -1.926  14.672  22.539  0.00  0.00    +0.000 A 
ATOM     11  N   UNL     1      -0.781  14.711  21.840  0.00  0.00    +0.000 NA
ATOM     12  C   UNL     1      -0.171  13.556  21.460  0.00  0.00    +0.000 A 
ATOM     13  C   UNL     1      -0.726  12.287  21.777  0.00  0.00    +0.000 A 
ATOM     14  C   UNL     1      -1.959  12.299  22.473  0.00  0.00    +0.000 A 
ATOM     15  C   UNL     1      -2.577  13.490  22.854  0.00  0.00    +0.000 A 
ENDROOT
BRANCH  12  16
ATOM     16  C   UNL     1       1.058  13.797  20.647  0.00  0.00    +0.000 A 
ATOM     17  C   UNL     1       2.306  14.006  21.279  0.00  0.00    +0.000 A 
ATOM     18  C   UNL     1       3.467  14.323  20.564  0.00  0.00    +0.000 A 
ATOM     19  C   UNL     1       3.442  14.345  19.179  0.00  0.00    +0.000 A 
ATOM     20  C   UNL     1       2.252  14.072  18.513  0.00  0.00    +0.000 A 
ATOM     21  C   UNL     1       1.068  13.825  19.231  0.00  0.00    +0.000 A 
ATOM     22 CL   UNL     1      -0.353  13.627  18.256  0.00  0.00    +0.000 Cl
ENDBRANCH  12  16
BRANCH  13  23
ATOM     23  C   UNL     1      -0.134  10.972  21.407  0.00  0.00    +0.000 A 
ATOM     24  C   UNL     1       0.373  10.080  22.371  0.00  0.00    +0.000 A 
ATOM     25  C   UNL     1       1.059   8.917  22.002  0.00  0.00    +0.000 A 
ATOM     26  C   UNL     1       1.174   8.578  20.659  0.00  0.00    +0.000 A 
ATOM     27 CL   UNL     1       2.030   7.160  20.202  0.00  0.00    +0.000 Cl
ATOM     28  C   UNL     1       0.605   9.389  19.685  0.00  0.00    +0.000 A 
ATOM     29  C   UNL     1      -0.028  10.580  20.056  0.00  0.00    +0.000 A 
ENDBRANCH  13  23
BRANCH   1  32
ATOM     30  O   UNL     1      -6.445  12.240  24.165  0.00  0.00    +0.000 OA
ATOM     31  C   UNL     1      -6.170  12.539  23.008  0.00  0.00    +0.000 C 
ATOM     32  N   UNL     1      -4.976  13.105  22.619  0.00  0.00    +0.000 N 
ATOM     33  H   UNL     1      -4.877  13.303  21.627  0.00  0.00    +0.000 HD
BRANCH  31  34
ATOM     34  C   UNL     1      -7.135  12.301  21.841  0.00  0.00    +0.000 C 
BRANCH  34  35
ATOM     35  O   UNL     1      -6.874  11.084  21.150  0.00  0.00    +0.000 OA
ATOM     36  H   UNL     1      -7.616  10.484  21.352  0.00  0.00    +0.000 HD
ENDBRANCH  34  35
ENDBRANCH  31  34
ENDBRANCH   1  32
TORSDOF 5
ENDMDL
MODEL 8
REMARK VINA RESULT:      -6.6      4.154      6.617
REMARK  Name = 
REMARK  5 active torsions:
REMARK  status: ('A' for Active; 'I' for Inactive)
REMARK    1  A    between atoms: C_2  and  C_3
REMARK    2  A    between atoms: C_3  and  O_4
REMARK    3  A    between atoms: N_5  and  C_6
REMARK    4  A    between atoms: C_17  and  C_18
REMARK    5  A    between atoms: C_25  and  C_26
REMARK                            x       y       z     vdW  Elec       q    Type
REMARK                         _______ _______ _______ _____ _____    ______ ____
ROOT
ATOM      1  C   UNL     1      -3.462  12.742  23.601  0.00  0.00    +0.000 C 
ATOM      2  C   UNL     1      -3.632  13.839  24.653  0.00  0.00    +0.000 C 
ATOM      3  C   UNL     1      -3.279  15.225  24.089  0.00  0.00    +0.000 C 
ATOM      4  C   UNL     1      -4.137  15.677  22.883  0.00  0.00    +0.000 C 
ATOM      5  C   UNL     1      -3.812  17.105  22.446  0.00  0.00    +0.000 C 
ATOM      6  C   UNL     1      -4.023  18.085  23.588  0.00  0.00    +0.000 C 
ATOM      7  C   UNL     1      -3.198  17.697  24.808  0.00  0.00    +0.000 C 
ATOM      8  C   UNL     1      -3.452  16.251  25.236  0.00  0.00    +0.000 C 
ATOM      9  O   UNL     1      -1.898  15.228  23.694  0.00  0.00    +0.000 OA
ATOM     10  C   UNL     1      -1.500  14.178  22.914  0.00  0.00    +0.000 A 
ATOM     11  N   UNL     1      -0.393  14.435  22.201  0.00  0.00    +0.000 NA
ATOM     12  C   UNL     1       0.172  13.461  21.438  0.00  0.00    +0.000 A 
ATOM     13  C   UNL     1      -0.394  12.160  21.363  0.00  0.00    +0.000 A 
ATOM     14  C   UNL     1      -1.588  11.952  22.094  0.00  0.00    +0.000 A 
ATOM     15  C   UNL     1      -2.160  12.960  22.870  0.00  0.00    +0.000 A 
ENDROOT
BRANCH  12  16
ATOM     16  C   UNL     1       1.362  13.945  20.678  0.00  0.00    +0.000 A 
ATOM     17  C   UNL     1       2.665  13.774  21.201  0.00  0.00    +0.000 A 
ATOM     18  C   UNL     1       3.802  14.290  20.568  0.00  0.00    +0.000 A 
ATOM     19  C   UNL     1       3.687  14.911  19.335  0.00  0.00    +0.000 A 
ATOM     20  C   UNL     1       2.432  15.034  18.748  0.00  0.00    +0.000 A 
ATOM     21  C   UNL     1       1.279  14.582  19.415  0.00  0.00    +0.000 A 
ATOM     22 CL   UNL     1      -0.218  14.922  18.607  0.00  0.00    +0.000 Cl
ENDBRANCH  12  16
BRANCH  13  23
ATOM     23  C   UNL     1       0.150  11.030  20.560  0.00  0.00    +0.000 A 
ATOM     24  C   UNL     1       0.707   9.884  21.158  0.00  0.00    +0.000 A 
ATOM     25  C   UNL     1       1.347   8.899  20.395  0.00  0.00    +0.000 A 
ATOM     26  C   UNL     1       1.365   8.999  19.010  0.00  0.00    +0.000 A 
ATOM     27 CL   UNL     1       2.165   7.801  18.073  0.00  0.00    +0.000 Cl
ATOM     28  C   UNL     1       0.745  10.072  18.381  0.00  0.00    +0.000 A 
ATOM     29  C   UNL     1       0.158  11.083  19.150  0.00  0.00    +0.000 A 
ENDBRANCH  13  23
BRANCH   1  32
ATOM     30  O   UNL     1      -6.234  12.172  24.173  0.00  0.00    +0.000 OA
ATOM     31  C   UNL     1      -5.879  12.430  23.028  0.00  0.00    +0.000 C 
ATOM     32  N   UNL     1      -4.576  12.680  22.660  0.00  0.00    +0.000 N 
ATOM     33  H   UNL     1      -4.419  12.879  21.675  0.00  0.00    +0.000 HD
BRANCH  31  34
ATOM     34  C   UNL     1      -6.862  12.492  21.853  0.00  0.00    +0.000 C 
BRANCH  34  35
ATOM     35  O   UNL     1      -7.305  13.816  21.574  0.00  0.00    +0.000 OA
ATOM     36  H   UNL     1      -8.010  14.015  22.217  0.00  0.00    +0.000 HD
ENDBRANCH  34  35
ENDBRANCH  31  34
ENDBRANCH   1  32
TORSDOF 5
ENDMDL
MODEL 9
REMARK VINA RESULT:      -6.6      4.485      6.827
REMARK  Name = 
REMARK  5 active torsions:
REMARK  status: ('A' for Active; 'I' for Inactive)
REMARK    1  A    between atoms: C_2  and  C_3
REMARK    2  A    between atoms: C_3  and  O_4
REMARK    3  A    between atoms: N_5  and  C_6
REMARK    4  A    between atoms: C_17  and  C_18
REMARK    5  A    between atoms: C_25  and  C_26
REMARK                            x       y       z     vdW  Elec       q    Type
REMARK                         _______ _______ _______ _____ _____    ______ ____
ROOT
ATOM      1  C   UNL     1      -3.427  13.514  24.150  0.00  0.00    +0.000 C 
ATOM      2  C   UNL     1      -2.789  14.073  25.423  0.00  0.00    +0.000 C 
ATOM      3  C   UNL     1      -1.925  15.309  25.127  0.00  0.00    +0.000 C 
ATOM      4  C   UNL     1      -2.684  16.499  24.492  0.00  0.00    +0.000 C 
ATOM      5  C   UNL     1      -1.795  17.731  24.331  0.00  0.00    +0.000 C 
ATOM      6  C   UNL     1      -1.230  18.174  25.670  0.00  0.00    +0.000 C 
ATOM      7  C   UNL     1      -0.463  17.045  26.346  0.00  0.00    +0.000 C 
ATOM      8  C   UNL     1      -1.304  15.773  26.468  0.00  0.00    +0.000 C 
ATOM      9  O   UNL     1      -0.854  14.929  24.248  0.00  0.00    +0.000 OA
ATOM     10  C   UNL     1      -1.218  14.212  23.143  0.00  0.00    +0.000 A 
ATOM     11  N   UNL     1      -0.320  14.276  22.149  0.00  0.00    +0.000 NA
ATOM     12  C   UNL     1      -0.502  13.550  21.013  0.00  0.00    +0.000 A 
ATOM     13  C   UNL     1      -1.643  12.720  20.841  0.00  0.00    +0.000 A 
ATOM     14  C   UNL     1      -2.586  12.724  21.898  0.00  0.00    +0.000 A 
ATOM     15  C   UNL     1      -2.389  13.476  23.056  0.00  0.00    +0.000 A 
ENDROOT
BRANCH  12  16
ATOM     16  C   UNL     1       0.569  13.789  20.001  0.00  0.00    +0.000 A 
ATOM     17  C   UNL     1       1.653  12.889  19.878  0.00  0.00    +0.000 A 
ATOM     18  C   UNL     1       2.724  13.118  19.006  0.00  0.00    +0.000 A 
ATOM     19  C   UNL     1       2.701  14.209  18.152  0.00  0.00    +0.000 A 
ATOM     20  C   UNL     1       1.617  15.079  18.186  0.00  0.00    +0.000 A 
ATOM     21  C   UNL     1       0.575  14.892  19.112  0.00  0.00    +0.000 A 
ATOM     22 CL   UNL     1      -0.638  16.133  19.113  0.00  0.00    +0.000 Cl
ENDBRANCH  12  16
BRANCH  13  23
ATOM     23  C   UNL     1      -1.930  11.889  19.640  0.00  0.00    +0.000 A 
ATOM     24  C   UNL     1      -1.034  10.907  19.175  0.00  0.00    +0.000 A 
ATOM     25  C   UNL     1      -1.246  10.238  17.964  0.00  0.00    +0.000 A 
ATOM     26  C   UNL     1      -2.406  10.476  17.236  0.00  0.00    +0.000 A 
ATOM     27 CL   UNL     1      -2.661   9.669  15.740  0.00  0.00    +0.000 Cl
ATOM     28  C   UNL     1      -3.355  11.372  17.711  0.00  0.00    +0.000 A 
ATOM     29  C   UNL     1      -3.111  12.081  18.892  0.00  0.00    +0.000 A 
ENDBRANCH  13  23
BRANCH   1  32
ATOM     30  O   UNL     1      -6.058  12.503  23.523  0.00  0.00    +0.000 OA
ATOM     31  C   UNL     1      -5.830  13.707  23.473  0.00  0.00    +0.000 C 
ATOM     32  N   UNL     1      -4.599  14.271  23.722  0.00  0.00    +0.000 N 
ATOM     33  H   UNL     1      -4.547  15.284  23.645  0.00  0.00    +0.000 HD
BRANCH  31  34
ATOM     34  C   UNL     1      -6.905  14.736  23.109  0.00  0.00    +0.000 C 
BRANCH  34  35
ATOM     35  O   UNL     1      -6.742  15.972  23.797  0.00  0.00    +0.000 OA
ATOM     36  H   UNL     1      -5.790  16.059  23.990  0.00  0.00    +0.000 HD
ENDBRANCH  34  35
ENDBRANCH  31  34
ENDBRANCH   1  32
TORSDOF 5
ENDMDL
