MODEL 1
REMARK VINA RESULT:      -8.6      0.000      0.000
REMARK  Name = 
REMARK  11 active torsions:
REMARK  status: ('A' for Active; 'I' for Inactive)
REMARK    1  A    between atoms: C_1  and  C_2
REMARK    2  A    between atoms: C_2  and  C_3
REMARK    3  A    between atoms: C_2  and  C_4
REMARK    4  A    between atoms: C_4  and  N_5
REMARK    5  A    between atoms: C_8  and  C_9
REMARK    6  A    between atoms: C_9  and  C_10
REMARK    7  A    between atoms: C_10  and  C_11
REMARK    8  A    between atoms: N_23  and  C_24
REMARK    9  A    between atoms: C_24  and  C_25
REMARK   10  A    between atoms: C_25  and  C_26
REMARK   11  A    between atoms: C_25  and  C_27
REMARK                            x       y       z     vdW  Elec       q    Type
REMARK                         _______ _______ _______ _____ _____    ______ ____
ROOT
ATOM      1  N   UNL     1       4.967   6.764  16.379  0.00  0.00    +0.000 N 
ATOM      2  C   UNL     1       4.054   6.959  17.440  0.00  0.00    +0.000 A 
ATOM      3  C   UNL     1       3.366   8.159  17.505  0.00  0.00    +0.000 A 
ATOM      4  C   UNL     1       2.444   8.304  18.509  0.00  0.00    +0.000 A 
ATOM      5  N   UNL     1       2.221   7.323  19.400  0.00  0.00    +0.000 NA
ATOM      6  C   UNL     1       2.986   6.226  19.335  0.00  0.00    +0.000 A 
ATOM      7  N   UNL     1       2.847   5.271  20.304  0.00  0.00    +0.000 N 
ATOM      8  N   UNL     1       3.910   6.020  18.390  0.00  0.00    +0.000 NA
ATOM      9  H   UNL     1       4.673   7.298  15.567  0.00  0.00    +0.000 HD
ATOM     10  H   UNL     1       3.616   4.628  20.382  0.00  0.00    +0.000 HD
ENDROOT
BRANCH   1  11
ATOM     11  C   UNL     1       5.187   5.357  16.034  0.00  0.00    +0.000 C 
BRANCH  11  13
ATOM     12  C   UNL     1       7.410   4.511  16.895  0.00  0.00    +0.000 C 
ATOM     13  C   UNL     1       6.676   5.121  15.700  0.00  0.00    +0.000 C 
ATOM     14  C   UNL     1       6.825   4.204  14.482  0.00  0.00    +0.000 C 
ENDBRANCH  11  13
ENDBRANCH   1  11
BRANCH   4  15
ATOM     15  C   UNL     1       1.573   9.524  18.582  0.00  0.00    +0.000 C 
BRANCH  15  16
ATOM     16  C   UNL     1       0.216   9.336  17.880  0.00  0.00    +0.000 C 
BRANCH  16  17
ATOM     17  C   UNL     1      -0.804  10.311  18.398  0.00  0.00    +0.000 A 
ATOM     18  C   UNL     1      -0.525  10.952  19.628  0.00  0.00    +0.000 A 
ATOM     19  C   UNL     1      -1.429  11.851  20.182  0.00  0.00    +0.000 A 
ATOM     20  C   UNL     1      -2.631  12.113  19.526  0.00  0.00    +0.000 A 
ATOM     21  C   UNL     1      -2.943  11.494  18.308  0.00  0.00    +0.000 A 
ATOM     22  C   UNL     1      -4.158  11.775  17.657  0.00  0.00    +0.000 A 
ATOM     23  C   UNL     1      -4.474  11.181  16.435  0.00  0.00    +0.000 A 
ATOM     24  C   UNL     1      -3.590  10.295  15.850  0.00  0.00    +0.000 A 
ATOM     25  C   UNL     1      -2.387   9.995  16.489  0.00  0.00    +0.000 A 
ATOM     26  C   UNL     1      -2.030  10.579  17.727  0.00  0.00    +0.000 A 
ENDBRANCH  16  17
ENDBRANCH  15  16
ENDBRANCH   4  15
BRANCH   7  27
ATOM     27  C   UNL     1       1.557   5.043  20.908  0.00  0.00    +0.000 C 
BRANCH  27  28
ATOM     28  C   UNL     1       1.074   3.604  20.664  0.00  0.00    +0.000 C 
ATOM     29  C   UNL     1       1.182   3.215  19.188  0.00  0.00    +0.000 C 
ATOM     30  C   UNL     1       1.890   2.624  21.512  0.00  0.00    +0.000 C 
ENDBRANCH  27  28
ENDBRANCH   7  27
TORSDOF 7
ENDMDL
MODEL 2
REMARK VINA RESULT:      -8.5      0.836      1.164
REMARK  Name = 
REMARK  11 active torsions:
REMARK  status: ('A' for Active; 'I' for Inactive)
REMARK    1  A    between atoms: C_1  and  C_2
REMARK    2  A    between atoms: C_2  and  C_3
REMARK    3  A    between atoms: C_2  and  C_4
REMARK    4  A    between atoms: C_4  and  N_5
REMARK    5  A    between atoms: C_8  and  C_9
REMARK    6  A    between atoms: C_9  and  C_10
REMARK    7  A    between atoms: C_10  and  C_11
REMARK    8  A    between atoms: N_23  and  C_24
REMARK    9  A    between atoms: C_24  and  C_25
REMARK   10  A    between atoms: C_25  and  C_26
REMARK   11  A    between atoms: C_25  and  C_27
REMARK                            x       y       z     vdW  Elec       q    Type
REMARK                         _______ _______ _______ _____ _____    ______ ____
ROOT
ATOM      1  N   UNL     1       5.826   5.893  16.652  0.00  0.00    +0.000 N 
ATOM      2  C   UNL     1       4.758   6.285  17.492  0.00  0.00    +0.000 A 
ATOM      3  C   UNL     1       4.158   7.511  17.265  0.00  0.00    +0.000 A 
ATOM      4  C   UNL     1       3.088   7.846  18.054  0.00  0.00    +0.000 A 
ATOM      5  N   UNL     1       2.643   7.019  19.015  0.00  0.00    +0.000 NA
ATOM      6  C   UNL     1       3.327   5.890  19.242  0.00  0.00    +0.000 A 
ATOM      7  N   UNL     1       2.953   5.097  20.291  0.00  0.00    +0.000 N 
ATOM      8  N   UNL     1       4.385   5.504  18.519  0.00  0.00    +0.000 NA
ATOM      9  H   UNL     1       5.717   6.314  15.734  0.00  0.00    +0.000 HD
ATOM     10  H   UNL     1       3.648   4.437  20.596  0.00  0.00    +0.000 HD
ENDROOT
BRANCH   1  11
ATOM     11  C   UNL     1       6.001   4.441  16.550  0.00  0.00    +0.000 C 
BRANCH  11  13
ATOM     12  C   UNL     1       5.131   4.085  14.201  0.00  0.00    +0.000 C 
ATOM     13  C   UNL     1       6.367   4.054  15.101  0.00  0.00    +0.000 C 
ATOM     14  C   UNL     1       7.437   4.994  14.537  0.00  0.00    +0.000 C 
ENDBRANCH  11  13
ENDBRANCH   1  11
BRANCH   4  15
ATOM     15  C   UNL     1       2.308   9.102  17.798  0.00  0.00    +0.000 C 
BRANCH  15  16
ATOM     16  C   UNL     1       0.791   8.860  17.706  0.00  0.00    +0.000 C 
BRANCH  16  17
ATOM     17  C   UNL     1       0.026   9.903  18.470  0.00  0.00    +0.000 A 
ATOM     18  C   UNL     1       0.640  10.445  19.625  0.00  0.00    +0.000 A 
ATOM     19  C   UNL     1      -0.013  11.399  20.396  0.00  0.00    +0.000 A 
ATOM     20  C   UNL     1      -1.293  11.817  20.036  0.00  0.00    +0.000 A 
ATOM     21  C   UNL     1      -1.934  11.301  18.902  0.00  0.00    +0.000 A 
ATOM     22  C   UNL     1      -3.224  11.740  18.550  0.00  0.00    +0.000 A 
ATOM     23  C   UNL     1      -3.867  11.250  17.414  0.00  0.00    +0.000 A 
ATOM     24  C   UNL     1      -3.238  10.312  16.617  0.00  0.00    +0.000 A 
ATOM     25  C   UNL     1      -1.964   9.856  16.960  0.00  0.00    +0.000 A 
ATOM     26  C   UNL     1      -1.280  10.332  18.102  0.00  0.00    +0.000 A 
ENDBRANCH  16  17
ENDBRANCH  15  16
ENDBRANCH   4  15
BRANCH   7  27
ATOM     27  C   UNL     1       1.565   5.021  20.675  0.00  0.00    +0.000 C 
BRANCH  27  28
ATOM     28  C   UNL     1       1.067   3.566  20.678  0.00  0.00    +0.000 C 
ATOM     29  C   UNL     1       1.047   2.973  19.268  0.00  0.00    +0.000 C 
ATOM     30  C   UNL     1       1.956   2.707  21.583  0.00  0.00    +0.000 C 
ENDBRANCH  27  28
ENDBRANCH   7  27
TORSDOF 7
ENDMDL
MODEL 3
REMARK VINA RESULT:      -8.5      2.258      3.894
REMARK  Name = 
REMARK  11 active torsions:
REMARK  status: ('A' for Active; 'I' for Inactive)
REMARK    1  A    between atoms: C_1  and  C_2
REMARK    2  A    between atoms: C_2  and  C_3
REMARK    3  A    between atoms: C_2  and  C_4
REMARK    4  A    between atoms: C_4  and  N_5
REMARK    5  A    between atoms: C_8  and  C_9
REMARK    6  A    between atoms: C_9  and  C_10
REMARK    7  A    between atoms: C_10  and  C_11
REMARK    8  A    between atoms: N_23  and  C_24
REMARK    9  A    between atoms: C_24  and  C_25
REMARK   10  A    between atoms: C_25  and  C_26
REMARK   11  A    between atoms: C_25  and  C_27
REMARK                            x       y       z     vdW  Elec       q    Type
REMARK                         _______ _______ _______ _____ _____    ______ ____
ROOT
ATOM      1  N   UNL     1       6.062   5.307  14.624  0.00  0.00    +0.000 N 
ATOM      2  C   UNL     1       5.459   5.417  15.897  0.00  0.00    +0.000 A 
ATOM      3  C   UNL     1       4.827   6.603  16.227  0.00  0.00    +0.000 A 
ATOM      4  C   UNL     1       4.201   6.668  17.444  0.00  0.00    +0.000 A 
ATOM      5  N   UNL     1       4.205   5.622  18.288  0.00  0.00    +0.000 NA
ATOM      6  C   UNL     1       4.913   4.538  17.947  0.00  0.00    +0.000 A 
ATOM      7  N   UNL     1       5.020   3.514  18.845  0.00  0.00    +0.000 N 
ATOM      8  N   UNL     1       5.557   4.409  16.780  0.00  0.00    +0.000 NA
ATOM      9  H   UNL     1       5.573   5.898  13.957  0.00  0.00    +0.000 HD
ATOM     10  H   UNL     1       5.775   2.872  18.673  0.00  0.00    +0.000 HD
ENDROOT
BRANCH   1  11
ATOM     11  C   UNL     1       6.167   3.931  14.131  0.00  0.00    +0.000 C 
BRANCH  11  13
ATOM     12  C   UNL     1       7.449   4.612  12.060  0.00  0.00    +0.000 C 
ATOM     13  C   UNL     1       6.191   3.922  12.588  0.00  0.00    +0.000 C 
ATOM     14  C   UNL     1       6.125   2.490  12.048  0.00  0.00    +0.000 C 
ENDBRANCH  11  13
ENDBRANCH   1  11
BRANCH   4  15
ATOM     15  C   UNL     1       3.393   7.873  17.830  0.00  0.00    +0.000 C 
BRANCH  15  16
ATOM     16  C   UNL     1       2.403   7.592  18.974  0.00  0.00    +0.000 C 
BRANCH  16  17
ATOM     17  C   UNL     1       1.372   8.680  19.081  0.00  0.00    +0.000 A 
ATOM     18  C   UNL     1       0.911   9.261  17.876  0.00  0.00    +0.000 A 
ATOM     19  C   UNL     1      -0.026  10.287  17.894  0.00  0.00    +0.000 A 
ATOM     20  C   UNL     1      -0.506  10.761  19.114  0.00  0.00    +0.000 A 
ATOM     21  C   UNL     1      -0.070  10.212  20.328  0.00  0.00    +0.000 A 
ATOM     22  C   UNL     1      -0.571  10.699  21.551  0.00  0.00    +0.000 A 
ATOM     23  C   UNL     1      -0.161  10.151  22.765  0.00  0.00    +0.000 A 
ATOM     24  C   UNL     1       0.758   9.119  22.781  0.00  0.00    +0.000 A 
ATOM     25  C   UNL     1       1.275   8.635  21.579  0.00  0.00    +0.000 A 
ATOM     26  C   UNL     1       0.881   9.162  20.327  0.00  0.00    +0.000 A 
ENDBRANCH  16  17
ENDBRANCH  15  16
ENDBRANCH   4  15
BRANCH   7  27
ATOM     27  C   UNL     1       3.929   3.233  19.747  0.00  0.00    +0.000 C 
BRANCH  27  28
ATOM     28  C   UNL     1       3.009   2.138  19.182  0.00  0.00    +0.000 C 
ATOM     29  C   UNL     1       1.784   2.733  18.485  0.00  0.00    +0.000 C 
ATOM     30  C   UNL     1       3.782   1.257  18.196  0.00  0.00    +0.000 C 
ENDBRANCH  27  28
ENDBRANCH   7  27
TORSDOF 7
ENDMDL
MODEL 4
REMARK VINA RESULT:      -8.4      2.630      3.531
REMARK  Name = 
REMARK  11 active torsions:
REMARK  status: ('A' for Active; 'I' for Inactive)
REMARK    1  A    between atoms: C_1  and  C_2
REMARK    2  A    between atoms: C_2  and  C_3
REMARK    3  A    between atoms: C_2  and  C_4
REMARK    4  A    between atoms: C_4  and  N_5
REMARK    5  A    between atoms: C_8  and  C_9
REMARK    6  A    between atoms: C_9  and  C_10
REMARK    7  A    between atoms: C_10  and  C_11
REMARK    8  A    between atoms: N_23  and  C_24
REMARK    9  A    between atoms: C_24  and  C_25
REMARK   10  A    between atoms: C_25  and  C_26
REMARK   11  A    between atoms: C_25  and  C_27
REMARK                            x       y       z     vdW  Elec       q    Type
REMARK                         _______ _______ _______ _____ _____    ______ ____
ROOT
ATOM      1  N   UNL     1       6.052   5.530  15.351  0.00  0.00    +0.000 N 
ATOM      2  C   UNL     1       4.995   5.619  16.285  0.00  0.00    +0.000 A 
ATOM      3  C   UNL     1       4.557   6.876  16.666  0.00  0.00    +0.000 A 
ATOM      4  C   UNL     1       3.495   6.939  17.529  0.00  0.00    +0.000 A 
ATOM      5  N   UNL     1       2.904   5.824  17.993  0.00  0.00    +0.000 NA
ATOM      6  C   UNL     1       3.437   4.642  17.658  0.00  0.00    +0.000 A 
ATOM      7  N   UNL     1       2.917   3.507  18.215  0.00  0.00    +0.000 N 
ATOM      8  N   UNL     1       4.478   4.505  16.829  0.00  0.00    +0.000 NA
ATOM      9  H   UNL     1       6.043   6.340  14.738  0.00  0.00    +0.000 HD
ATOM     10  H   UNL     1       3.512   2.698  18.168  0.00  0.00    +0.000 HD
ENDROOT
BRANCH   1  11
ATOM     11  C   UNL     1       6.059   4.285  14.577  0.00  0.00    +0.000 C 
BRANCH  11  13
ATOM     12  C   UNL     1       7.897   5.110  13.047  0.00  0.00    +0.000 C 
ATOM     13  C   UNL     1       6.467   4.573  13.116  0.00  0.00    +0.000 C 
ATOM     14  C   UNL     1       6.350   3.310  12.257  0.00  0.00    +0.000 C 
ENDBRANCH  11  13
ENDBRANCH   1  11
BRANCH   4  15
ATOM     15  C   UNL     1       2.883   8.259  17.900  0.00  0.00    +0.000 C 
BRANCH  15  16
ATOM     16  C   UNL     1       1.922   8.161  19.098  0.00  0.00    +0.000 C 
BRANCH  16  17
ATOM     17  C   UNL     1       1.327   9.501  19.428  0.00  0.00    +0.000 A 
ATOM     18  C   UNL     1       1.493  10.538  18.481  0.00  0.00    +0.000 A 
ATOM     19  C   UNL     1       0.989  11.810  18.724  0.00  0.00    +0.000 A 
ATOM     20  C   UNL     1       0.326  12.072  19.922  0.00  0.00    +0.000 A 
ATOM     21  C   UNL     1       0.145  11.070  20.885  0.00  0.00    +0.000 A 
ATOM     22  C   UNL     1      -0.533  11.350  22.087  0.00  0.00    +0.000 A 
ATOM     23  C   UNL     1      -0.736  10.360  23.046  0.00  0.00    +0.000 A 
ATOM     24  C   UNL     1      -0.262   9.080  22.828  0.00  0.00    +0.000 A 
ATOM     25  C   UNL     1       0.425   8.789  21.648  0.00  0.00    +0.000 A 
ATOM     26  C   UNL     1       0.648   9.766  20.650  0.00  0.00    +0.000 A 
ENDBRANCH  16  17
ENDBRANCH  15  16
ENDBRANCH   4  15
BRANCH   7  27
ATOM     27  C   UNL     1       1.510   3.441  18.531  0.00  0.00    +0.000 C 
BRANCH  27  28
ATOM     28  C   UNL     1       1.284   3.385  20.051  0.00  0.00    +0.000 C 
ATOM     29  C   UNL     1       2.403   2.620  20.761  0.00  0.00    +0.000 C 
ATOM     30  C   UNL     1       1.190   4.802  20.623  0.00  0.00    +0.000 C 
ENDBRANCH  27  28
ENDBRANCH   7  27
TORSDOF 7
ENDMDL
MODEL 5
REMARK VINA RESULT:      -8.4      2.036      3.395
REMARK  Name = 
REMARK  11 active torsions:
REMARK  status: ('A' for Active; 'I' for Inactive)
REMARK    1  A    between atoms: C_1  and  C_2
REMARK    2  A    between atoms: C_2  and  C_3
REMARK    3  A    between atoms: C_2  and  C_4
REMARK    4  A    between atoms: C_4  and  N_5
REMARK    5  A    between atoms: C_8  and  C_9
REMARK    6  A    between atoms: C_9  and  C_10
REMARK    7  A    between atoms: C_10  and  C_11
REMARK    8  A    between atoms: N_23  and  C_24
REMARK    9  A    between atoms: C_24  and  C_25
REMARK   10  A    between atoms: C_25  and  C_26
REMARK   11  A    between atoms: C_25  and  C_27
REMARK                            x       y       z     vdW  Elec       q    Type
REMARK                         _______ _______ _______ _____ _____    ______ ____
ROOT
ATOM      1  N   UNL     1       6.619   6.426  16.617  0.00  0.00    +0.000 N 
ATOM      2  C   UNL     1       5.390   6.130  17.249  0.00  0.00    +0.000 A 
ATOM      3  C   UNL     1       4.480   7.157  17.434  0.00  0.00    +0.000 A 
ATOM      4  C   UNL     1       3.273   6.836  17.998  0.00  0.00    +0.000 A 
ATOM      5  N   UNL     1       2.985   5.575  18.362  0.00  0.00    +0.000 NA
ATOM      6  C   UNL     1       3.943   4.649  18.240  0.00  0.00    +0.000 A 
ATOM      7  N   UNL     1       3.702   3.389  18.713  0.00  0.00    +0.000 N 
ATOM      8  N   UNL     1       5.147   4.891  17.709  0.00  0.00    +0.000 NA
ATOM      9  H   UNL     1       6.500   7.206  15.977  0.00  0.00    +0.000 HD
ATOM     10  H   UNL     1       4.521   2.825  18.864  0.00  0.00    +0.000 HD
ENDROOT
BRANCH   1  11
ATOM     11  C   UNL     1       7.233   5.279  15.943  0.00  0.00    +0.000 C 
BRANCH  11  13
ATOM     12  C   UNL     1       7.775   5.263  13.472  0.00  0.00    +0.000 C 
ATOM     13  C   UNL     1       6.664   5.138  14.515  0.00  0.00    +0.000 C 
ATOM     14  C   UNL     1       5.946   3.796  14.342  0.00  0.00    +0.000 C 
ENDBRANCH  11  13
ENDBRANCH   1  11
BRANCH   4  15
ATOM     15  C   UNL     1       2.187   7.865  18.127  0.00  0.00    +0.000 C 
BRANCH  15  16
ATOM     16  C   UNL     1       1.872   8.228  19.589  0.00  0.00    +0.000 C 
BRANCH  16  17
ATOM     17  C   UNL     1       0.932   9.397  19.668  0.00  0.00    +0.000 A 
ATOM     18  C   UNL     1       0.713  10.138  18.483  0.00  0.00    +0.000 A 
ATOM     19  C   UNL     1      -0.127  11.245  18.482  0.00  0.00    +0.000 A 
ATOM     20  C   UNL     1      -0.749  11.641  19.665  0.00  0.00    +0.000 A 
ATOM     21  C   UNL     1      -0.553  10.934  20.859  0.00  0.00    +0.000 A 
ATOM     22  C   UNL     1      -1.194  11.343  22.044  0.00  0.00    +0.000 A 
ATOM     23  C   UNL     1      -1.023  10.639  23.235  0.00  0.00    +0.000 A 
ATOM     24  C   UNL     1      -0.207   9.524  23.266  0.00  0.00    +0.000 A 
ATOM     25  C   UNL     1       0.447   9.113  22.104  0.00  0.00    +0.000 A 
ATOM     26  C   UNL     1       0.296   9.799  20.876  0.00  0.00    +0.000 A 
ENDBRANCH  16  17
ENDBRANCH  15  16
ENDBRANCH   4  15
BRANCH   7  27
ATOM     27  C   UNL     1       2.365   2.849  18.669  0.00  0.00    +0.000 C 
BRANCH  27  28
ATOM     28  C   UNL     1       1.744   2.785  20.074  0.00  0.00    +0.000 C 
ATOM     29  C   UNL     1       2.816   2.708  21.163  0.00  0.00    +0.000 C 
ATOM     30  C   UNL     1       0.857   4.010  20.315  0.00  0.00    +0.000 C 
ENDBRANCH  27  28
ENDBRANCH   7  27
TORSDOF 7
ENDMDL
MODEL 6
REMARK VINA RESULT:      -8.4      1.078      2.636
REMARK  Name = 
REMARK  11 active torsions:
REMARK  status: ('A' for Active; 'I' for Inactive)
REMARK    1  A    between atoms: C_1  and  C_2
REMARK    2  A    between atoms: C_2  and  C_3
REMARK    3  A    between atoms: C_2  and  C_4
REMARK    4  A    between atoms: C_4  and  N_5
REMARK    5  A    between atoms: C_8  and  C_9
REMARK    6  A    between atoms: C_9  and  C_10
REMARK    7  A    between atoms: C_10  and  C_11
REMARK    8  A    between atoms: N_23  and  C_24
REMARK    9  A    between atoms: C_24  and  C_25
REMARK   10  A    between atoms: C_25  and  C_26
REMARK   11  A    between atoms: C_25  and  C_27
REMARK                            x       y       z     vdW  Elec       q    Type
REMARK                         _______ _______ _______ _____ _____    ______ ____
ROOT
ATOM      1  N   UNL     1       4.970   6.173  16.216  0.00  0.00    +0.000 N 
ATOM      2  C   UNL     1       4.081   6.458  17.277  0.00  0.00    +0.000 A 
ATOM      3  C   UNL     1       3.490   7.710  17.322  0.00  0.00    +0.000 A 
ATOM      4  C   UNL     1       2.589   7.945  18.327  0.00  0.00    +0.000 A 
ATOM      5  N   UNL     1       2.294   7.002  19.237  0.00  0.00    +0.000 NA
ATOM      6  C   UNL     1       2.970   5.847  19.189  0.00  0.00    +0.000 A 
ATOM      7  N   UNL     1       2.762   4.924  20.176  0.00  0.00    +0.000 N 
ATOM      8  N   UNL     1       3.870   5.551  18.244  0.00  0.00    +0.000 NA
ATOM      9  H   UNL     1       4.715   6.713  15.394  0.00  0.00    +0.000 HD
ATOM     10  H   UNL     1       3.478   4.224  20.264  0.00  0.00    +0.000 HD
ENDROOT
BRANCH   1  11
ATOM     11  C   UNL     1       5.077   4.746  15.896  0.00  0.00    +0.000 C 
BRANCH  11  13
ATOM     12  C   UNL     1       7.139   4.865  14.437  0.00  0.00    +0.000 C 
ATOM     13  C   UNL     1       6.561   4.346  15.753  0.00  0.00    +0.000 C 
ATOM     14  C   UNL     1       7.388   4.883  16.925  0.00  0.00    +0.000 C 
ENDBRANCH  11  13
ENDBRANCH   1  11
BRANCH   4  15
ATOM     15  C   UNL     1       1.816   9.232  18.379  0.00  0.00    +0.000 C 
BRANCH  15  16
ATOM     16  C   UNL     1       0.979   9.378  19.662  0.00  0.00    +0.000 C 
BRANCH  16  17
ATOM     17  C   UNL     1      -0.225  10.246  19.430  0.00  0.00    +0.000 A 
ATOM     18  C   UNL     1      -0.749  10.294  18.116  0.00  0.00    +0.000 A 
ATOM     19  C   UNL     1      -1.849  11.089  17.818  0.00  0.00    +0.000 A 
ATOM     20  C   UNL     1      -2.434  11.860  18.820  0.00  0.00    +0.000 A 
ATOM     21  C   UNL     1      -1.941  11.841  20.132  0.00  0.00    +0.000 A 
ATOM     22  C   UNL     1      -2.549  12.621  21.134  0.00  0.00    +0.000 A 
ATOM     23  C   UNL     1      -2.082  12.598  22.447  0.00  0.00    +0.000 A 
ATOM     24  C   UNL     1      -1.000  11.806  22.780  0.00  0.00    +0.000 A 
ATOM     25  C   UNL     1      -0.377  11.037  21.796  0.00  0.00    +0.000 A 
ATOM     26  C   UNL     1      -0.824  11.031  20.454  0.00  0.00    +0.000 A 
ENDBRANCH  16  17
ENDBRANCH  15  16
ENDBRANCH   4  15
BRANCH   7  27
ATOM     27  C   UNL     1       1.461   4.810  20.790  0.00  0.00    +0.000 C 
BRANCH  27  28
ATOM     28  C   UNL     1       0.972   3.352  20.791  0.00  0.00    +0.000 C 
ATOM     29  C   UNL     1       0.983   2.752  19.384  0.00  0.00    +0.000 C 
ATOM     30  C   UNL     1       1.849   2.503  21.716  0.00  0.00    +0.000 C 
ENDBRANCH  27  28
ENDBRANCH   7  27
TORSDOF 7
ENDMDL
MODEL 7
REMARK VINA RESULT:      -8.3      3.019      9.080
REMARK  Name = 
REMARK  11 active torsions:
REMARK  status: ('A' for Active; 'I' for Inactive)
REMARK    1  A    between atoms: C_1  and  C_2
REMARK    2  A    between atoms: C_2  and  C_3
REMARK    3  A    between atoms: C_2  and  C_4
REMARK    4  A    between atoms: C_4  and  N_5
REMARK    5  A    between atoms: C_8  and  C_9
REMARK    6  A    between atoms: C_9  and  C_10
REMARK    7  A    between atoms: C_10  and  C_11
REMARK    8  A    between atoms: N_23  and  C_24
REMARK    9  A    between atoms: C_24  and  C_25
REMARK   10  A    between atoms: C_25  and  C_26
REMARK   11  A    between atoms: C_25  and  C_27
REMARK                            x       y       z     vdW  Elec       q    Type
REMARK                         _______ _______ _______ _____ _____    ______ ____
ROOT
ATOM      1  N   UNL     1      -2.043  10.360  18.417  0.00  0.00    +0.000 N 
ATOM      2  C   UNL     1      -0.644  10.559  18.438  0.00  0.00    +0.000 A 
ATOM      3  C   UNL     1       0.178   9.490  18.124  0.00  0.00    +0.000 A 
ATOM      4  C   UNL     1       1.529   9.720  18.095  0.00  0.00    +0.000 A 
ATOM      5  N   UNL     1       2.037  10.935  18.366  0.00  0.00    +0.000 NA
ATOM      6  C   UNL     1       1.193  11.899  18.752  0.00  0.00    +0.000 A 
ATOM      7  N   UNL     1       1.708  13.105  19.141  0.00  0.00    +0.000 N 
ATOM      8  N   UNL     1      -0.135  11.745  18.813  0.00  0.00    +0.000 NA
ATOM      9  H   UNL     1      -2.280   9.636  17.746  0.00  0.00    +0.000 HD
ATOM     10  H   UNL     1       1.086  13.680  19.683  0.00  0.00    +0.000 HD
ENDROOT
BRANCH   1  11
ATOM     11  C   UNL     1      -2.814  11.581  18.170  0.00  0.00    +0.000 C 
BRANCH  11  13
ATOM     12  C   UNL     1      -3.340  10.165  16.141  0.00  0.00    +0.000 C 
ATOM     13  C   UNL     1      -3.773  11.369  16.979  0.00  0.00    +0.000 C 
ATOM     14  C   UNL     1      -5.212  11.166  17.465  0.00  0.00    +0.000 C 
ENDBRANCH  11  13
ENDBRANCH   1  11
BRANCH   4  15
ATOM     15  C   UNL     1       2.482   8.649  17.651  0.00  0.00    +0.000 C 
BRANCH  15  16
ATOM     16  C   UNL     1       2.548   7.461  18.627  0.00  0.00    +0.000 C 
BRANCH  16  17
ATOM     17  C   UNL     1       3.201   6.268  17.988  0.00  0.00    +0.000 A 
ATOM     18  C   UNL     1       4.339   6.503  17.181  0.00  0.00    +0.000 A 
ATOM     19  C   UNL     1       4.986   5.453  16.540  0.00  0.00    +0.000 A 
ATOM     20  C   UNL     1       4.499   4.154  16.681  0.00  0.00    +0.000 A 
ATOM     21  C   UNL     1       3.372   3.884  17.469  0.00  0.00    +0.000 A 
ATOM     22  C   UNL     1       2.898   2.565  17.606  0.00  0.00    +0.000 A 
ATOM     23  C   UNL     1       1.790   2.277  18.401  0.00  0.00    +0.000 A 
ATOM     24  C   UNL     1       1.134   3.297  19.065  0.00  0.00    +0.000 A 
ATOM     25  C   UNL     1       1.583   4.611  18.929  0.00  0.00    +0.000 A 
ATOM     26  C   UNL     1       2.705   4.942  18.134  0.00  0.00    +0.000 A 
ENDBRANCH  16  17
ENDBRANCH  15  16
ENDBRANCH   4  15
BRANCH   7  27
ATOM     27  C   UNL     1       2.915  13.602  18.526  0.00  0.00    +0.000 C 
BRANCH  27  28
ATOM     28  C   UNL     1       2.980  15.137  18.589  0.00  0.00    +0.000 C 
ATOM     29  C   UNL     1       3.560  15.731  17.304  0.00  0.00    +0.000 C 
ATOM     30  C   UNL     1       1.582  15.714  18.834  0.00  0.00    +0.000 C 
ENDBRANCH  27  28
ENDBRANCH   7  27
TORSDOF 7
ENDMDL
MODEL 8
REMARK VINA RESULT:      -8.2      2.451      8.712
REMARK  Name = 
REMARK  11 active torsions:
REMARK  status: ('A' for Active; 'I' for Inactive)
REMARK    1  A    between atoms: C_1  and  C_2
REMARK    2  A    between atoms: C_2  and  C_3
REMARK    3  A    between atoms: C_2  and  C_4
REMARK    4  A    between atoms: C_4  and  N_5
REMARK    5  A    between atoms: C_8  and  C_9
REMARK    6  A    between atoms: C_9  and  C_10
REMARK    7  A    between atoms: C_10  and  C_11
REMARK    8  A    between atoms: N_23  and  C_24
REMARK    9  A    between atoms: C_24  and  C_25
REMARK   10  A    between atoms: C_25  and  C_26
REMARK   11  A    between atoms: C_25  and  C_27
REMARK                            x       y       z     vdW  Elec       q    Type
REMARK                         _______ _______ _______ _____ _____    ______ ____
ROOT
ATOM      1  N   UNL     1       1.109  11.356  21.196  0.00  0.00    +0.000 N 
ATOM      2  C   UNL     1       0.806  10.780  19.941  0.00  0.00    +0.000 A 
ATOM      3  C   UNL     1       1.626   9.772  19.464  0.00  0.00    +0.000 A 
ATOM      4  C   UNL     1       1.281   9.188  18.273  0.00  0.00    +0.000 A 
ATOM      5  N   UNL     1       0.193   9.583  17.591  0.00  0.00    +0.000 NA
ATOM      6  C   UNL     1      -0.504  10.625  18.063  0.00  0.00    +0.000 A 
ATOM      7  N   UNL     1      -1.544  11.108  17.320  0.00  0.00    +0.000 N 
ATOM      8  N   UNL     1      -0.220  11.249  19.212  0.00  0.00    +0.000 NA
ATOM      9  H   UNL     1       1.579  10.675  21.786  0.00  0.00    +0.000 HD
ATOM     10  H   UNL     1      -1.842  12.039  17.558  0.00  0.00    +0.000 HD
ENDROOT
BRANCH   1  11
ATOM     11  C   UNL     1      -0.050  11.936  21.880  0.00  0.00    +0.000 C 
BRANCH  11  13
ATOM     12  C   UNL     1      -0.157   9.789  23.213  0.00  0.00    +0.000 C 
ATOM     13  C   UNL     1      -0.964  10.814  22.415  0.00  0.00    +0.000 C 
ATOM     14  C   UNL     1      -2.078  11.388  23.295  0.00  0.00    +0.000 C 
ENDBRANCH  11  13
ENDBRANCH   1  11
BRANCH   4  15
ATOM     15  C   UNL     1       2.048   8.012  17.743  0.00  0.00    +0.000 C 
BRANCH  15  16
ATOM     16  C   UNL     1       2.623   7.119  18.856  0.00  0.00    +0.000 C 
BRANCH  16  17
ATOM     17  C   UNL     1       3.192   5.847  18.294  0.00  0.00    +0.000 A 
ATOM     18  C   UNL     1       4.344   5.953  17.479  0.00  0.00    +0.000 A 
ATOM     19  C   UNL     1       4.917   4.823  16.906  0.00  0.00    +0.000 A 
ATOM     20  C   UNL     1       4.340   3.573  17.123  0.00  0.00    +0.000 A 
ATOM     21  C   UNL     1       3.197   3.429  17.921  0.00  0.00    +0.000 A 
ATOM     22  C   UNL     1       2.632   2.158  18.135  0.00  0.00    +0.000 A 
ATOM     23  C   UNL     1       1.506   1.996  18.941  0.00  0.00    +0.000 A 
ATOM     24  C   UNL     1       0.922   3.097  19.538  0.00  0.00    +0.000 A 
ATOM     25  C   UNL     1       1.462   4.367  19.325  0.00  0.00    +0.000 A 
ATOM     26  C   UNL     1       2.605   4.570  18.517  0.00  0.00    +0.000 A 
ENDBRANCH  16  17
ENDBRANCH  15  16
ENDBRANCH   4  15
BRANCH   7  27
ATOM     27  C   UNL     1      -2.326  10.208  16.507  0.00  0.00    +0.000 C 
BRANCH  27  28
ATOM     28  C   UNL     1      -3.394  10.970  15.704  0.00  0.00    +0.000 C 
ATOM     29  C   UNL     1      -3.838  10.185  14.468  0.00  0.00    +0.000 C 
ATOM     30  C   UNL     1      -4.610  11.261  16.588  0.00  0.00    +0.000 C 
ENDBRANCH  27  28
ENDBRANCH   7  27
TORSDOF 7
ENDMDL
MODEL 9
REMARK VINA RESULT:      -8.2      2.771      3.606
REMARK  Name = 
REMARK  11 active torsions:
REMARK  status: ('A' for Active; 'I' for Inactive)
REMARK    1  A    between atoms: C_1  and  C_2
REMARK    2  A    between atoms: C_2  and  C_3
REMARK    3  A    between atoms: C_2  and  C_4
REMARK    4  A    between atoms: C_4  and  N_5
REMARK    5  A    between atoms: C_8  and  C_9
REMARK    6  A    between atoms: C_9  and  C_10
REMARK    7  A    between atoms: C_10  and  C_11
REMARK    8  A    between atoms: N_23  and  C_24
REMARK    9  A    between atoms: C_24  and  C_25
REMARK   10  A    between atoms: C_25  and  C_26
REMARK   11  A    between atoms: C_25  and  C_27
REMARK                            x       y       z     vdW  Elec       q    Type
REMARK                         _______ _______ _______ _____ _____    ______ ____
ROOT
ATOM      1  N   UNL     1       6.073   5.304  14.927  0.00  0.00    +0.000 N 
ATOM      2  C   UNL     1       5.203   5.459  16.030  0.00  0.00    +0.000 A 
ATOM      3  C   UNL     1       4.785   6.735  16.366  0.00  0.00    +0.000 A 
ATOM      4  C   UNL     1       3.898   6.856  17.403  0.00  0.00    +0.000 A 
ATOM      5  N   UNL     1       3.454   5.779  18.072  0.00  0.00    +0.000 NA
ATOM      6  C   UNL     1       3.968   4.584  17.756  0.00  0.00    +0.000 A 
ATOM      7  N   UNL     1       3.611   3.498  18.505  0.00  0.00    +0.000 N 
ATOM      8  N   UNL     1       4.845   4.392  16.764  0.00  0.00    +0.000 NA
ATOM      9  H   UNL     1       5.915   6.048  14.254  0.00  0.00    +0.000 HD
ATOM     10  H   UNL     1       4.224   2.704  18.425  0.00  0.00    +0.000 HD
ENDROOT
BRANCH   1  11
ATOM     11  C   UNL     1       5.995   3.988  14.287  0.00  0.00    +0.000 C 
BRANCH  11  13
ATOM     12  C   UNL     1       6.271   3.345  11.856  0.00  0.00    +0.000 C 
ATOM     13  C   UNL     1       6.966   3.925  13.089  0.00  0.00    +0.000 C 
ATOM     14  C   UNL     1       7.522   5.314  12.760  0.00  0.00    +0.000 C 
ENDBRANCH  11  13
ENDBRANCH   1  11
BRANCH   4  15
ATOM     15  C   UNL     1       3.305   8.190  17.755  0.00  0.00    +0.000 C 
BRANCH  15  16
ATOM     16  C   UNL     1       1.960   8.074  18.494  0.00  0.00    +0.000 C 
BRANCH  16  17
ATOM     17  C   UNL     1       1.494   9.414  18.988  0.00  0.00    +0.000 A 
ATOM     18  C   UNL     1       1.771  10.540  18.176  0.00  0.00    +0.000 A 
ATOM     19  C   UNL     1       1.390  11.815  18.574  0.00  0.00    +0.000 A 
ATOM     20  C   UNL     1       0.739  11.991  19.795  0.00  0.00    +0.000 A 
ATOM     21  C   UNL     1       0.451  10.901  20.627  0.00  0.00    +0.000 A 
ATOM     22  C   UNL     1      -0.212  11.096  21.853  0.00  0.00    +0.000 A 
ATOM     23  C   UNL     1      -0.523  10.019  22.683  0.00  0.00    +0.000 A 
ATOM     24  C   UNL     1      -0.172   8.736  22.308  0.00  0.00    +0.000 A 
ATOM     25  C   UNL     1       0.499   8.527  21.102  0.00  0.00    +0.000 A 
ATOM     26  C   UNL     1       0.828   9.593  20.233  0.00  0.00    +0.000 A 
ENDBRANCH  16  17
ENDBRANCH  15  16
ENDBRANCH   4  15
BRANCH   7  27
ATOM     27  C   UNL     1       2.291   3.426  19.083  0.00  0.00    +0.000 C 
BRANCH  27  28
ATOM     28  C   UNL     1       2.302   3.878  20.553  0.00  0.00    +0.000 C 
ATOM     29  C   UNL     1       1.455   5.134  20.764  0.00  0.00    +0.000 C 
ATOM     30  C   UNL     1       1.785   2.753  21.454  0.00  0.00    +0.000 C 
ENDBRANCH  27  28
ENDBRANCH   7  27
TORSDOF 7
ENDMDL
