MODEL 1
REMARK VINA RESULT:      -8.9      0.000      0.000
REMARK  Name = 
REMARK  7 active torsions:
REMARK  status: ('A' for Active; 'I' for Inactive)
REMARK    1  A    between atoms: C_1  and  C_2
REMARK    2  A    between atoms: C_2  and  O_3
REMARK    3  A    between atoms: O_3  and  C_4
REMARK    4  A    between atoms: C_4  and  C_6
REMARK    5  A    between atoms: N_10  and  C_11
REMARK    6  A    between atoms: C_11  and  C_12
REMARK    7  A    between atoms: C_17  and  C_18
REMARK                            x       y       z     vdW  Elec       q    Type
REMARK                         _______ _______ _______ _____ _____    ______ ____
ROOT
ATOM      1  C   UNL     1       2.459   7.578  18.855  0.00  0.00    +0.000 C 
ATOM      2  O   UNL     1       1.862   7.249  19.898  0.00  0.00    +0.000 OA
ATOM      3  N   UNL     1       2.153   8.713  18.131  0.00  0.00    +0.000 N 
ATOM      4  C   UNL     1       1.136   9.578  18.586  0.00  0.00    +0.000 A 
ATOM      5  C   UNL     1       1.233  10.123  19.864  0.00  0.00    +0.000 A 
ATOM      6  C   UNL     1       0.197  10.911  20.375  0.00  0.00    +0.000 A 
ATOM      7  C   UNL     1       0.346  11.474  21.763  0.00  0.00    +0.000 C 
ATOM      8  C   UNL     1      -0.946  11.106  19.579  0.00  0.00    +0.000 A 
ATOM      9  C   UNL     1      -2.128  11.862  20.079  0.00  0.00    +0.000 A 
ATOM     10  O   UNL     1      -2.165  12.385  21.190  0.00  0.00    +0.000 OA
ATOM     11  O   UNL     1      -3.222  11.962  19.236  0.00  0.00    +0.000 OA
ATOM     12  C   UNL     1      -3.257  11.383  17.958  0.00  0.00    +0.000 A 
ATOM     13  C   UNL     1      -4.449  11.556  17.250  0.00  0.00    +0.000 A 
ATOM     14  C   UNL     1      -4.564  11.004  15.980  0.00  0.00    +0.000 A 
ATOM     15  C   UNL     1      -3.492  10.291  15.444  0.00  0.00    +0.000 A 
ATOM     16  C   UNL     1      -2.303  10.131  16.175  0.00  0.00    +0.000 A 
ATOM     17  C   UNL     1      -2.161  10.684  17.457  0.00  0.00    +0.000 A 
ATOM     18  C   UNL     1      -0.962  10.551  18.292  0.00  0.00    +0.000 A 
ATOM     19  N   UNL     1       0.091   9.836  17.770  0.00  0.00    +0.000 NA
ATOM     20  H   UNL     1       2.252   8.661  17.127  0.00  0.00    +0.000 HD
ENDROOT
BRANCH   1  21
ATOM     21  C   UNL     1       3.598   6.687  18.330  0.00  0.00    +0.000 C 
BRANCH  21  26
ATOM     22  C   UNL     1       2.230   3.088  17.782  0.00  0.00    +0.000 C 
ATOM     23  C   UNL     1       3.595   2.407  17.815  0.00  0.00    +0.000 C 
ATOM     24  C   UNL     1       4.441   3.034  18.914  0.00  0.00    +0.000 C 
ATOM     25  C   UNL     1       4.650   4.515  18.612  0.00  0.00    +0.000 C 
ATOM     26  N   UNL     1       3.366   5.241  18.644  0.00  0.00    +0.000 NA
ATOM     27  C   UNL     1       2.376   4.625  17.725  0.00  0.00    +0.000 C 
BRANCH  22  28
ATOM     28  C   UNL     1       1.342   2.377  18.789  0.00  0.00    +0.000 C 
ATOM     29  O   UNL     1       0.166   2.115  18.502  0.00  0.00    +0.000 OA
BRANCH  28  30
ATOM     30  O   UNL     1       1.879   2.122  20.003  0.00  0.00    +0.000 OA
BRANCH  30  32
ATOM     31  C   UNL     1       2.122   3.915  21.562  0.00  0.00    +0.000 C 
ATOM     32  C   UNL     1       1.203   2.809  21.077  0.00  0.00    +0.000 C 
ENDBRANCH  30  32
ENDBRANCH  28  30
ENDBRANCH  22  28
ENDBRANCH  21  26
ENDBRANCH   1  21
TORSDOF 5
ENDMDL
MODEL 2
REMARK VINA RESULT:      -8.3      0.924      1.218
REMARK  Name = 
REMARK  7 active torsions:
REMARK  status: ('A' for Active; 'I' for Inactive)
REMARK    1  A    between atoms: C_1  and  C_2
REMARK    2  A    between atoms: C_2  and  O_3
REMARK    3  A    between atoms: O_3  and  C_4
REMARK    4  A    between atoms: C_4  and  C_6
REMARK    5  A    between atoms: N_10  and  C_11
REMARK    6  A    between atoms: C_11  and  C_12
REMARK    7  A    between atoms: C_17  and  C_18
REMARK                            x       y       z     vdW  Elec       q    Type
REMARK                         _______ _______ _______ _____ _____    ______ ____
ROOT
ATOM      1  C   UNL     1       2.329   8.071  18.486  0.00  0.00    +0.000 C 
ATOM      2  O   UNL     1       1.843   7.648  19.553  0.00  0.00    +0.000 OA
ATOM      3  N   UNL     1       1.918   9.240  17.876  0.00  0.00    +0.000 N 
ATOM      4  C   UNL     1       0.920  10.031  18.483  0.00  0.00    +0.000 A 
ATOM      5  C   UNL     1       1.119  10.490  19.783  0.00  0.00    +0.000 A 
ATOM      6  C   UNL     1       0.111  11.201  20.442  0.00  0.00    +0.000 A 
ATOM      7  C   UNL     1       0.371  11.672  21.847  0.00  0.00    +0.000 C 
ATOM      8  C   UNL     1      -1.108  11.404  19.770  0.00  0.00    +0.000 A 
ATOM      9  C   UNL     1      -2.261  12.077  20.429  0.00  0.00    +0.000 A 
ATOM     10  O   UNL     1      -2.211  12.521  21.573  0.00  0.00    +0.000 OA
ATOM     11  O   UNL     1      -3.433  12.192  19.699  0.00  0.00    +0.000 OA
ATOM     12  C   UNL     1      -3.569  11.701  18.391  0.00  0.00    +0.000 A 
ATOM     13  C   UNL     1      -4.827  11.875  17.809  0.00  0.00    +0.000 A 
ATOM     14  C   UNL     1      -5.042  11.407  16.519  0.00  0.00    +0.000 A 
ATOM     15  C   UNL     1      -4.004  10.775  15.837  0.00  0.00    +0.000 A 
ATOM     16  C   UNL     1      -2.746  10.612  16.443  0.00  0.00    +0.000 A 
ATOM     17  C   UNL     1      -2.502  11.081  17.743  0.00  0.00    +0.000 A 
ATOM     18  C   UNL     1      -1.227  10.938  18.453  0.00  0.00    +0.000 A 
ATOM     19  N   UNL     1      -0.205  10.303  17.787  0.00  0.00    +0.000 NA
ATOM     20  H   UNL     1       1.924   9.260  16.866  0.00  0.00    +0.000 HD
ENDROOT
BRANCH   1  21
ATOM     21  C   UNL     1       3.442   7.264  17.796  0.00  0.00    +0.000 C 
BRANCH  21  26
ATOM     22  C   UNL     1       3.914   3.410  17.562  0.00  0.00    +0.000 C 
ATOM     23  C   UNL     1       5.033   3.338  18.597  0.00  0.00    +0.000 C 
ATOM     24  C   UNL     1       4.705   4.269  19.754  0.00  0.00    +0.000 C 
ATOM     25  C   UNL     1       4.616   5.705  19.243  0.00  0.00    +0.000 C 
ATOM     26  N   UNL     1       3.497   5.852  18.293  0.00  0.00    +0.000 NA
ATOM     27  C   UNL     1       3.603   4.875  17.180  0.00  0.00    +0.000 C 
BRANCH  22  28
ATOM     28  C   UNL     1       2.843   2.418  17.979  0.00  0.00    +0.000 C 
ATOM     29  O   UNL     1       3.164   1.285  18.362  0.00  0.00    +0.000 OA
BRANCH  28  30
ATOM     30  O   UNL     1       1.558   2.813  17.842  0.00  0.00    +0.000 OA
BRANCH  30  32
ATOM     31  C   UNL     1       0.981   3.706  19.981  0.00  0.00    +0.000 C 
ATOM     32  C   UNL     1       0.758   2.557  19.015  0.00  0.00    +0.000 C 
ENDBRANCH  30  32
ENDBRANCH  28  30
ENDBRANCH  22  28
ENDBRANCH  21  26
ENDBRANCH   1  21
TORSDOF 5
ENDMDL
MODEL 3
REMARK VINA RESULT:      -8.2      2.080      8.954
REMARK  Name = 
REMARK  7 active torsions:
REMARK  status: ('A' for Active; 'I' for Inactive)
REMARK    1  A    between atoms: C_1  and  C_2
REMARK    2  A    between atoms: C_2  and  O_3
REMARK    3  A    between atoms: O_3  and  C_4
REMARK    4  A    between atoms: C_4  and  C_6
REMARK    5  A    between atoms: N_10  and  C_11
REMARK    6  A    between atoms: C_11  and  C_12
REMARK    7  A    between atoms: C_17  and  C_18
REMARK                            x       y       z     vdW  Elec       q    Type
REMARK                         _______ _______ _______ _____ _____    ______ ____
ROOT
ATOM      1  C   UNL     1       1.351   8.994  21.302  0.00  0.00    +0.000 C 
ATOM      2  O   UNL     1       1.870   8.489  22.316  0.00  0.00    +0.000 OA
ATOM      3  N   UNL     1       1.383   8.399  20.056  0.00  0.00    +0.000 N 
ATOM      4  C   UNL     1       2.003   7.142  19.899  0.00  0.00    +0.000 A 
ATOM      5  C   UNL     1       1.563   6.069  20.671  0.00  0.00    +0.000 A 
ATOM      6  C   UNL     1       2.217   4.835  20.601  0.00  0.00    +0.000 A 
ATOM      7  C   UNL     1       1.708   3.708  21.458  0.00  0.00    +0.000 C 
ATOM      8  C   UNL     1       3.340   4.723  19.763  0.00  0.00    +0.000 A 
ATOM      9  C   UNL     1       4.143   3.471  19.692  0.00  0.00    +0.000 A 
ATOM     10  O   UNL     1       3.859   2.459  20.329  0.00  0.00    +0.000 OA
ATOM     11  O   UNL     1       5.257   3.474  18.870  0.00  0.00    +0.000 OA
ATOM     12  C   UNL     1       5.649   4.594  18.120  0.00  0.00    +0.000 A 
ATOM     13  C   UNL     1       6.813   4.436  17.363  0.00  0.00    +0.000 A 
ATOM     14  C   UNL     1       7.271   5.503  16.601  0.00  0.00    +0.000 A 
ATOM     15  C   UNL     1       6.563   6.705  16.610  0.00  0.00    +0.000 A 
ATOM     16  C   UNL     1       5.395   6.840  17.379  0.00  0.00    +0.000 A 
ATOM     17  C   UNL     1       4.909   5.774  18.152  0.00  0.00    +0.000 A 
ATOM     18  C   UNL     1       3.709   5.836  18.994  0.00  0.00    +0.000 A 
ATOM     19  N   UNL     1       3.017   7.025  19.014  0.00  0.00    +0.000 NA
ATOM     20  H   UNL     1       1.447   9.010  19.254  0.00  0.00    +0.000 HD
ENDROOT
BRANCH   1  21
ATOM     21  C   UNL     1       0.634  10.350  21.422  0.00  0.00    +0.000 C 
BRANCH  21  26
ATOM     22  C   UNL     1      -1.973  11.642  18.840  0.00  0.00    +0.000 C 
ATOM     23  C   UNL     1      -1.236  12.941  18.529  0.00  0.00    +0.000 C 
ATOM     24  C   UNL     1       0.256  12.661  18.437  0.00  0.00    +0.000 C 
ATOM     25  C   UNL     1       0.759  12.134  19.778  0.00  0.00    +0.000 C 
ATOM     26  N   UNL     1       0.135  10.835  20.096  0.00  0.00    +0.000 NA
ATOM     27  C   UNL     1      -1.346  10.926  20.057  0.00  0.00    +0.000 C 
BRANCH  22  28
ATOM     28  C   UNL     1      -2.246  10.945  17.519  0.00  0.00    +0.000 C 
ATOM     29  O   UNL     1      -1.447  10.105  17.085  0.00  0.00    +0.000 OA
BRANCH  28  30
ATOM     30  O   UNL     1      -3.344  11.340  16.836  0.00  0.00    +0.000 OA
BRANCH  30  32
ATOM     31  C   UNL     1      -5.530  12.266  17.100  0.00  0.00    +0.000 C 
ATOM     32  C   UNL     1      -4.562  11.207  17.597  0.00  0.00    +0.000 C 
ENDBRANCH  30  32
ENDBRANCH  28  30
ENDBRANCH  22  28
ENDBRANCH  21  26
ENDBRANCH   1  21
TORSDOF 5
ENDMDL
MODEL 4
REMARK VINA RESULT:      -8.2      2.225      3.352
REMARK  Name = 
REMARK  7 active torsions:
REMARK  status: ('A' for Active; 'I' for Inactive)
REMARK    1  A    between atoms: C_1  and  C_2
REMARK    2  A    between atoms: C_2  and  O_3
REMARK    3  A    between atoms: O_3  and  C_4
REMARK    4  A    between atoms: C_4  and  C_6
REMARK    5  A    between atoms: N_10  and  C_11
REMARK    6  A    between atoms: C_11  and  C_12
REMARK    7  A    between atoms: C_17  and  C_18
REMARK                            x       y       z     vdW  Elec       q    Type
REMARK                         _______ _______ _______ _____ _____    ______ ____
ROOT
ATOM      1  C   UNL     1       1.828   7.291  20.445  0.00  0.00    +0.000 C 
ATOM      2  O   UNL     1       0.989   7.208  21.363  0.00  0.00    +0.000 OA
ATOM      3  N   UNL     1       1.824   8.301  19.503  0.00  0.00    +0.000 N 
ATOM      4  C   UNL     1       0.849   9.318  19.574  0.00  0.00    +0.000 A 
ATOM      5  C   UNL     1       0.743  10.072  20.740  0.00  0.00    +0.000 A 
ATOM      6  C   UNL     1      -0.270  11.027  20.873  0.00  0.00    +0.000 A 
ATOM      7  C   UNL     1      -0.347  11.814  22.153  0.00  0.00    +0.000 C 
ATOM      8  C   UNL     1      -1.188  11.174  19.817  0.00  0.00    +0.000 A 
ATOM      9  C   UNL     1      -2.344  12.108  19.910  0.00  0.00    +0.000 A 
ATOM     10  O   UNL     1      -2.548  12.823  20.889  0.00  0.00    +0.000 OA
ATOM     11  O   UNL     1      -3.217  12.150  18.836  0.00  0.00    +0.000 OA
ATOM     12  C   UNL     1      -3.055  11.357  17.689  0.00  0.00    +0.000 A 
ATOM     13  C   UNL     1      -4.041  11.503  16.709  0.00  0.00    +0.000 A 
ATOM     14  C   UNL     1      -3.954  10.745  15.549  0.00  0.00    +0.000 A 
ATOM     15  C   UNL     1      -2.892   9.857  15.388  0.00  0.00    +0.000 A 
ATOM     16  C   UNL     1      -1.911   9.727  16.387  0.00  0.00    +0.000 A 
ATOM     17  C   UNL     1      -1.973  10.487  17.566  0.00  0.00    +0.000 A 
ATOM     18  C   UNL     1      -1.003  10.401  18.662  0.00  0.00    +0.000 A 
ATOM     19  N   UNL     1       0.039   9.515  18.511  0.00  0.00    +0.000 NA
ATOM     20  H   UNL     1       2.123   8.061  18.568  0.00  0.00    +0.000 HD
ENDROOT
BRANCH   1  21
ATOM     21  C   UNL     1       2.932   6.225  20.338  0.00  0.00    +0.000 C 
BRANCH  21  26
ATOM     22  C   UNL     1       4.946   4.874  17.297  0.00  0.00    +0.000 C 
ATOM     23  C   UNL     1       4.011   3.702  17.014  0.00  0.00    +0.000 C 
ATOM     24  C   UNL     1       2.570   4.161  17.175  0.00  0.00    +0.000 C 
ATOM     25  C   UNL     1       2.340   4.621  18.612  0.00  0.00    +0.000 C 
ATOM     26  N   UNL     1       3.165   5.805  18.920  0.00  0.00    +0.000 NA
ATOM     27  C   UNL     1       4.601   5.547  18.645  0.00  0.00    +0.000 C 
BRANCH  22  28
ATOM     28  C   UNL     1       5.111   5.650  16.002  0.00  0.00    +0.000 C 
ATOM     29  O   UNL     1       5.186   6.885  16.026  0.00  0.00    +0.000 OA
BRANCH  28  30
ATOM     30  O   UNL     1       5.099   4.933  14.856  0.00  0.00    +0.000 OA
BRANCH  30  32
ATOM     31  C   UNL     1       6.300   3.633  13.252  0.00  0.00    +0.000 C 
ATOM     32  C   UNL     1       6.416   4.713  14.312  0.00  0.00    +0.000 C 
ENDBRANCH  30  32
ENDBRANCH  28  30
ENDBRANCH  22  28
ENDBRANCH  21  26
ENDBRANCH   1  21
TORSDOF 5
ENDMDL
MODEL 5
REMARK VINA RESULT:      -8.1      1.987      3.018
REMARK  Name = 
REMARK  7 active torsions:
REMARK  status: ('A' for Active; 'I' for Inactive)
REMARK    1  A    between atoms: C_1  and  C_2
REMARK    2  A    between atoms: C_2  and  O_3
REMARK    3  A    between atoms: O_3  and  C_4
REMARK    4  A    between atoms: C_4  and  C_6
REMARK    5  A    between atoms: N_10  and  C_11
REMARK    6  A    between atoms: C_11  and  C_12
REMARK    7  A    between atoms: C_17  and  C_18
REMARK                            x       y       z     vdW  Elec       q    Type
REMARK                         _______ _______ _______ _____ _____    ______ ____
ROOT
ATOM      1  C   UNL     1       1.612   7.378  20.701  0.00  0.00    +0.000 C 
ATOM      2  O   UNL     1       0.737   7.316  21.586  0.00  0.00    +0.000 OA
ATOM      3  N   UNL     1       1.650   8.371  19.741  0.00  0.00    +0.000 N 
ATOM      4  C   UNL     1       0.680   9.395  19.756  0.00  0.00    +0.000 A 
ATOM      5  C   UNL     1       0.533  10.170  20.903  0.00  0.00    +0.000 A 
ATOM      6  C   UNL     1      -0.480  11.132  20.980  0.00  0.00    +0.000 A 
ATOM      7  C   UNL     1      -0.602  11.942  22.242  0.00  0.00    +0.000 C 
ATOM      8  C   UNL     1      -1.354  11.265  19.887  0.00  0.00    +0.000 A 
ATOM      9  C   UNL     1      -2.508  12.206  19.918  0.00  0.00    +0.000 A 
ATOM     10  O   UNL     1      -2.746  12.939  20.875  0.00  0.00    +0.000 OA
ATOM     11  O   UNL     1      -3.338  12.233  18.810  0.00  0.00    +0.000 OA
ATOM     12  C   UNL     1      -3.136  11.419  17.684  0.00  0.00    +0.000 A 
ATOM     13  C   UNL     1      -4.082  11.552  16.665  0.00  0.00    +0.000 A 
ATOM     14  C   UNL     1      -3.955  10.773  15.522  0.00  0.00    +0.000 A 
ATOM     15  C   UNL     1      -2.892   9.877  15.419  0.00  0.00    +0.000 A 
ATOM     16  C   UNL     1      -1.952   9.761  16.457  0.00  0.00    +0.000 A 
ATOM     17  C   UNL     1      -2.056  10.541  17.619  0.00  0.00    +0.000 A 
ATOM     18  C   UNL     1      -1.129  10.471  18.754  0.00  0.00    +0.000 A 
ATOM     19  N   UNL     1      -0.087   9.577  18.659  0.00  0.00    +0.000 NA
ATOM     20  H   UNL     1       1.985   8.113  18.823  0.00  0.00    +0.000 HD
ENDROOT
BRANCH   1  21
ATOM     21  C   UNL     1       2.713   6.305  20.655  0.00  0.00    +0.000 C 
BRANCH  21  26
ATOM     22  C   UNL     1       4.488   4.322  17.819  0.00  0.00    +0.000 C 
ATOM     23  C   UNL     1       3.276   3.468  17.460  0.00  0.00    +0.000 C 
ATOM     24  C   UNL     1       2.027   4.334  17.487  0.00  0.00    +0.000 C 
ATOM     25  C   UNL     1       1.822   4.889  18.894  0.00  0.00    +0.000 C 
ATOM     26  N   UNL     1       2.931   5.788  19.267  0.00  0.00    +0.000 NA
ATOM     27  C   UNL     1       4.244   5.112  19.125  0.00  0.00    +0.000 C 
BRANCH  22  28
ATOM     28  C   UNL     1       4.983   4.972  16.539  0.00  0.00    +0.000 C 
ATOM     29  O   UNL     1       4.903   4.363  15.464  0.00  0.00    +0.000 OA
BRANCH  28  30
ATOM     30  O   UNL     1       5.561   6.188  16.655  0.00  0.00    +0.000 OA
BRANCH  30  32
ATOM     31  C   UNL     1       7.434   7.388  17.526  0.00  0.00    +0.000 C 
ATOM     32  C   UNL     1       6.993   6.121  16.815  0.00  0.00    +0.000 C 
ENDBRANCH  30  32
ENDBRANCH  28  30
ENDBRANCH  22  28
ENDBRANCH  21  26
ENDBRANCH   1  21
TORSDOF 5
ENDMDL
MODEL 6
REMARK VINA RESULT:      -8.1      1.937      8.685
REMARK  Name = 
REMARK  7 active torsions:
REMARK  status: ('A' for Active; 'I' for Inactive)
REMARK    1  A    between atoms: C_1  and  C_2
REMARK    2  A    between atoms: C_2  and  O_3
REMARK    3  A    between atoms: O_3  and  C_4
REMARK    4  A    between atoms: C_4  and  C_6
REMARK    5  A    between atoms: N_10  and  C_11
REMARK    6  A    between atoms: C_11  and  C_12
REMARK    7  A    between atoms: C_17  and  C_18
REMARK                            x       y       z     vdW  Elec       q    Type
REMARK                         _______ _______ _______ _____ _____    ______ ____
ROOT
ATOM      1  C   UNL     1       1.441   8.976  21.450  0.00  0.00    +0.000 C 
ATOM      2  O   UNL     1       2.198   8.520  22.328  0.00  0.00    +0.000 OA
ATOM      3  N   UNL     1       1.191   8.333  20.253  0.00  0.00    +0.000 N 
ATOM      4  C   UNL     1       1.788   7.081  19.996  0.00  0.00    +0.000 A 
ATOM      5  C   UNL     1       1.570   6.032  20.887  0.00  0.00    +0.000 A 
ATOM      6  C   UNL     1       2.219   4.807  20.707  0.00  0.00    +0.000 A 
ATOM      7  C   UNL     1       1.955   3.706  21.698  0.00  0.00    +0.000 C 
ATOM      8  C   UNL     1       3.114   4.680  19.629  0.00  0.00    +0.000 A 
ATOM      9  C   UNL     1       3.907   3.439  19.413  0.00  0.00    +0.000 A 
ATOM     10  O   UNL     1       3.808   2.449  20.133  0.00  0.00    +0.000 OA
ATOM     11  O   UNL     1       4.794   3.427  18.349  0.00  0.00    +0.000 OA
ATOM     12  C   UNL     1       4.970   4.523  17.489  0.00  0.00    +0.000 A 
ATOM     13  C   UNL     1       5.924   4.354  16.483  0.00  0.00    +0.000 A 
ATOM     14  C   UNL     1       6.161   5.398  15.598  0.00  0.00    +0.000 A 
ATOM     15  C   UNL     1       5.447   6.587  15.734  0.00  0.00    +0.000 A 
ATOM     16  C   UNL     1       4.491   6.734  16.753  0.00  0.00    +0.000 A 
ATOM     17  C   UNL     1       4.229   5.692  17.656  0.00  0.00    +0.000 A 
ATOM     18  C   UNL     1       3.262   5.768  18.757  0.00  0.00    +0.000 A 
ATOM     19  N   UNL     1       2.566   6.946  18.901  0.00  0.00    +0.000 NA
ATOM     20  H   UNL     1       1.048   8.913  19.439  0.00  0.00    +0.000 HD
ENDROOT
BRANCH   1  21
ATOM     21  C   UNL     1       0.739  10.324  21.690  0.00  0.00    +0.000 C 
BRANCH  21  26
ATOM     22  C   UNL     1      -1.985  12.193  19.637  0.00  0.00    +0.000 C 
ATOM     23  C   UNL     1      -1.008  13.094  18.887  0.00  0.00    +0.000 C 
ATOM     24  C   UNL     1       0.212  12.282  18.483  0.00  0.00    +0.000 C 
ATOM     25  C   UNL     1       0.910  11.754  19.734  0.00  0.00    +0.000 C 
ATOM     26  N   UNL     1       0.037  10.814  20.461  0.00  0.00    +0.000 NA
ATOM     27  C   UNL     1      -1.274  11.432  20.779  0.00  0.00    +0.000 C 
BRANCH  22  28
ATOM     28  C   UNL     1      -2.859  11.507  18.602  0.00  0.00    +0.000 C 
ATOM     29  O   UNL     1      -3.988  11.949  18.353  0.00  0.00    +0.000 OA
BRANCH  28  30
ATOM     30  O   UNL     1      -2.369  10.378  18.042  0.00  0.00    +0.000 OA
BRANCH  30  32
ATOM     31  C   UNL     1      -2.635  10.394  15.668  0.00  0.00    +0.000 C 
ATOM     32  C   UNL     1      -3.197   9.869  16.977  0.00  0.00    +0.000 C 
ENDBRANCH  30  32
ENDBRANCH  28  30
ENDBRANCH  22  28
ENDBRANCH  21  26
ENDBRANCH   1  21
TORSDOF 5
ENDMDL
MODEL 7
REMARK VINA RESULT:      -8.0      1.281      1.564
REMARK  Name = 
REMARK  7 active torsions:
REMARK  status: ('A' for Active; 'I' for Inactive)
REMARK    1  A    between atoms: C_1  and  C_2
REMARK    2  A    between atoms: C_2  and  O_3
REMARK    3  A    between atoms: O_3  and  C_4
REMARK    4  A    between atoms: C_4  and  C_6
REMARK    5  A    between atoms: N_10  and  C_11
REMARK    6  A    between atoms: C_11  and  C_12
REMARK    7  A    between atoms: C_17  and  C_18
REMARK                            x       y       z     vdW  Elec       q    Type
REMARK                         _______ _______ _______ _____ _____    ______ ____
ROOT
ATOM      1  C   UNL     1       1.774   8.771  18.624  0.00  0.00    +0.000 C 
ATOM      2  O   UNL     1       1.594   8.580  19.842  0.00  0.00    +0.000 OA
ATOM      3  N   UNL     1       1.161   9.787  17.916  0.00  0.00    +0.000 N 
ATOM      4  C   UNL     1       0.305  10.686  18.586  0.00  0.00    +0.000 A 
ATOM      5  C   UNL     1       0.797  11.407  19.671  0.00  0.00    +0.000 A 
ATOM      6  C   UNL     1      -0.051  12.239  20.409  0.00  0.00    +0.000 A 
ATOM      7  C   UNL     1       0.525  12.994  21.576  0.00  0.00    +0.000 C 
ATOM      8  C   UNL     1      -1.409  12.296  20.045  0.00  0.00    +0.000 A 
ATOM      9  C   UNL     1      -2.396  13.091  20.827  0.00  0.00    +0.000 A 
ATOM     10  O   UNL     1      -2.085  13.764  21.806  0.00  0.00    +0.000 OA
ATOM     11  O   UNL     1      -3.717  13.049  20.414  0.00  0.00    +0.000 OA
ATOM     12  C   UNL     1      -4.149  12.295  19.311  0.00  0.00    +0.000 A 
ATOM     13  C   UNL     1      -5.520  12.342  19.047  0.00  0.00    +0.000 A 
ATOM     14  C   UNL     1      -6.025  11.615  17.977  0.00  0.00    +0.000 A 
ATOM     15  C   UNL     1      -5.157  10.855  17.194  0.00  0.00    +0.000 A 
ATOM     16  C   UNL     1      -3.781  10.824  17.478  0.00  0.00    +0.000 A 
ATOM     17  C   UNL     1      -3.246  11.555  18.550  0.00  0.00    +0.000 A 
ATOM     18  C   UNL     1      -1.827  11.565  18.924  0.00  0.00    +0.000 A 
ATOM     19  N   UNL     1      -0.971  10.805  18.161  0.00  0.00    +0.000 NA
ATOM     20  H   UNL     1       0.913   9.596  16.956  0.00  0.00    +0.000 HD
ENDROOT
BRANCH   1  21
ATOM     21  C   UNL     1       2.722   7.840  17.849  0.00  0.00    +0.000 C 
BRANCH  21  26
ATOM     22  C   UNL     1       2.099   4.001  17.930  0.00  0.00    +0.000 C 
ATOM     23  C   UNL     1       3.558   3.623  18.167  0.00  0.00    +0.000 C 
ATOM     24  C   UNL     1       4.170   4.590  19.169  0.00  0.00    +0.000 C 
ATOM     25  C   UNL     1       4.128   6.006  18.600  0.00  0.00    +0.000 C 
ATOM     26  N   UNL     1       2.734   6.456  18.422  0.00  0.00    +0.000 NA
ATOM     27  C   UNL     1       1.963   5.502  17.586  0.00  0.00    +0.000 C 
BRANCH  22  28
ATOM     28  C   UNL     1       1.271   3.319  19.004  0.00  0.00    +0.000 C 
ATOM     29  O   UNL     1       0.652   2.279  18.742  0.00  0.00    +0.000 OA
BRANCH  28  30
ATOM     30  O   UNL     1       1.199   3.937  20.204  0.00  0.00    +0.000 OA
BRANCH  30  32
ATOM     31  C   UNL     1       2.551   2.609  21.658  0.00  0.00    +0.000 C 
ATOM     32  C   UNL     1       1.131   3.017  21.313  0.00  0.00    +0.000 C 
ENDBRANCH  30  32
ENDBRANCH  28  30
ENDBRANCH  22  28
ENDBRANCH  21  26
ENDBRANCH   1  21
TORSDOF 5
ENDMDL
MODEL 8
REMARK VINA RESULT:      -7.9      2.772      4.302
REMARK  Name = 
REMARK  7 active torsions:
REMARK  status: ('A' for Active; 'I' for Inactive)
REMARK    1  A    between atoms: C_1  and  C_2
REMARK    2  A    between atoms: C_2  and  O_3
REMARK    3  A    between atoms: O_3  and  C_4
REMARK    4  A    between atoms: C_4  and  C_6
REMARK    5  A    between atoms: N_10  and  C_11
REMARK    6  A    between atoms: C_11  and  C_12
REMARK    7  A    between atoms: C_17  and  C_18
REMARK                            x       y       z     vdW  Elec       q    Type
REMARK                         _______ _______ _______ _____ _____    ______ ____
ROOT
ATOM      1  C   UNL     1       2.384   5.586  19.075  0.00  0.00    +0.000 C 
ATOM      2  O   UNL     1       1.735   5.257  20.086  0.00  0.00    +0.000 OA
ATOM      3  N   UNL     1       2.470   6.887  18.617  0.00  0.00    +0.000 N 
ATOM      4  C   UNL     1       1.824   7.920  19.327  0.00  0.00    +0.000 A 
ATOM      5  C   UNL     1       2.132   8.113  20.671  0.00  0.00    +0.000 A 
ATOM      6  C   UNL     1       1.444   9.071  21.423  0.00  0.00    +0.000 A 
ATOM      7  C   UNL     1       1.810   9.240  22.872  0.00  0.00    +0.000 C 
ATOM      8  C   UNL     1       0.419   9.800  20.793  0.00  0.00    +0.000 A 
ATOM      9  C   UNL     1      -0.418  10.779  21.541  0.00  0.00    +0.000 A 
ATOM     10  O   UNL     1      -0.246  11.032  22.731  0.00  0.00    +0.000 OA
ATOM     11  O   UNL     1      -1.431  11.414  20.843  0.00  0.00    +0.000 OA
ATOM     12  C   UNL     1      -1.693  11.170  19.485  0.00  0.00    +0.000 A 
ATOM     13  C   UNL     1      -2.769  11.876  18.942  0.00  0.00    +0.000 A 
ATOM     14  C   UNL     1      -3.097  11.680  17.606  0.00  0.00    +0.000 A 
ATOM     15  C   UNL     1      -2.349  10.786  16.841  0.00  0.00    +0.000 A 
ATOM     16  C   UNL     1      -1.271  10.087  17.410  0.00  0.00    +0.000 A 
ATOM     17  C   UNL     1      -0.916  10.272  18.755  0.00  0.00    +0.000 A 
ATOM     18  C   UNL     1       0.182   9.572  19.430  0.00  0.00    +0.000 A 
ATOM     19  N   UNL     1       0.912   8.679  18.680  0.00  0.00    +0.000 NA
ATOM     20  H   UNL     1       2.521   7.022  17.618  0.00  0.00    +0.000 HD
ENDROOT
BRANCH   1  21
ATOM     21  C   UNL     1       3.134   4.504  18.280  0.00  0.00    +0.000 C 
BRANCH  21  26
ATOM     22  C   UNL     1       6.814   5.766  18.276  0.00  0.00    +0.000 C 
ATOM     23  C   UNL     1       7.327   4.711  17.299  0.00  0.00    +0.000 C 
ATOM     24  C   UNL     1       6.303   4.513  16.192  0.00  0.00    +0.000 C 
ATOM     25  C   UNL     1       4.993   4.012  16.795  0.00  0.00    +0.000 C 
ATOM     26  N   UNL     1       4.409   5.027  17.692  0.00  0.00    +0.000 NA
ATOM     27  C   UNL     1       5.376   5.441  18.739  0.00  0.00    +0.000 C 
BRANCH  22  28
ATOM     28  C   UNL     1       7.223   7.124  17.735  0.00  0.00    +0.000 C 
ATOM     29  O   UNL     1       6.673   7.580  16.723  0.00  0.00    +0.000 OA
BRANCH  28  30
ATOM     30  O   UNL     1       8.240   7.751  18.367  0.00  0.00    +0.000 OA
BRANCH  30  32
ATOM     31  C   UNL     1       9.125   9.835  19.131  0.00  0.00    +0.000 C 
ATOM     32  C   UNL     1       8.344   9.149  18.025  0.00  0.00    +0.000 C 
ENDBRANCH  30  32
ENDBRANCH  28  30
ENDBRANCH  22  28
ENDBRANCH  21  26
ENDBRANCH   1  21
TORSDOF 5
ENDMDL
MODEL 9
REMARK VINA RESULT:      -7.8      1.297      1.679
REMARK  Name = 
REMARK  7 active torsions:
REMARK  status: ('A' for Active; 'I' for Inactive)
REMARK    1  A    between atoms: C_1  and  C_2
REMARK    2  A    between atoms: C_2  and  O_3
REMARK    3  A    between atoms: O_3  and  C_4
REMARK    4  A    between atoms: C_4  and  C_6
REMARK    5  A    between atoms: N_10  and  C_11
REMARK    6  A    between atoms: C_11  and  C_12
REMARK    7  A    between atoms: C_17  and  C_18
REMARK                            x       y       z     vdW  Elec       q    Type
REMARK                         _______ _______ _______ _____ _____    ______ ____
ROOT
ATOM      1  C   UNL     1       2.117   8.514  18.299  0.00  0.00    +0.000 C 
ATOM      2  O   UNL     1       1.792   8.105  19.430  0.00  0.00    +0.000 OA
ATOM      3  N   UNL     1       1.594   9.657  17.726  0.00  0.00    +0.000 N 
ATOM      4  C   UNL     1       0.664  10.436  18.446  0.00  0.00    +0.000 A 
ATOM      5  C   UNL     1       1.023  10.932  19.697  0.00  0.00    +0.000 A 
ATOM      6  C   UNL     1       0.092  11.632  20.471  0.00  0.00    +0.000 A 
ATOM      7  C   UNL     1       0.526  12.145  21.818  0.00  0.00    +0.000 C 
ATOM      8  C   UNL     1      -1.211  11.786  19.967  0.00  0.00    +0.000 A 
ATOM      9  C   UNL     1      -2.285  12.445  20.761  0.00  0.00    +0.000 A 
ATOM     10  O   UNL     1      -2.093  12.919  21.879  0.00  0.00    +0.000 OA
ATOM     11  O   UNL     1      -3.547  12.511  20.195  0.00  0.00    +0.000 OA
ATOM     12  C   UNL     1      -3.844  11.984  18.928  0.00  0.00    +0.000 A 
ATOM     13  C   UNL     1      -5.174  12.111  18.518  0.00  0.00    +0.000 A 
ATOM     14  C   UNL     1      -5.547  11.606  17.279  0.00  0.00    +0.000 A 
ATOM     15  C   UNL     1      -4.592  10.985  16.476  0.00  0.00    +0.000 A 
ATOM     16  C   UNL     1      -3.260  10.870  16.909  0.00  0.00    +0.000 A 
ATOM     17  C   UNL     1      -2.856  11.377  18.154  0.00  0.00    +0.000 A 
ATOM     18  C   UNL     1      -1.493  11.285  18.688  0.00  0.00    +0.000 A 
ATOM     19  N   UNL     1      -0.552  10.660  17.903  0.00  0.00    +0.000 NA
ATOM     20  H   UNL     1       1.462   9.652  16.724  0.00  0.00    +0.000 HD
ENDROOT
BRANCH   1  21
ATOM     21  C   UNL     1       3.150   7.720  17.481  0.00  0.00    +0.000 C 
BRANCH  21  26
ATOM     22  C   UNL     1       3.696   3.984  18.416  0.00  0.00    +0.000 C 
ATOM     23  C   UNL     1       5.213   4.015  18.256  0.00  0.00    +0.000 C 
ATOM     24  C   UNL     1       5.752   5.314  18.836  0.00  0.00    +0.000 C 
ATOM     25  C   UNL     1       5.164   6.496  18.071  0.00  0.00    +0.000 C 
ATOM     26  N   UNL     1       3.701   6.562  18.254  0.00  0.00    +0.000 NA
ATOM     27  C   UNL     1       3.053   5.281  17.876  0.00  0.00    +0.000 C 
BRANCH  22  28
ATOM     28  C   UNL     1       3.396   3.423  19.795  0.00  0.00    +0.000 C 
ATOM     29  O   UNL     1       4.051   2.467  20.231  0.00  0.00    +0.000 OA
BRANCH  28  30
ATOM     30  O   UNL     1       2.355   3.969  20.463  0.00  0.00    +0.000 OA
BRANCH  30  32
ATOM     31  C   UNL     1       0.636   2.693  19.402  0.00  0.00    +0.000 C 
ATOM     32  C   UNL     1       1.295   3.027  20.728  0.00  0.00    +0.000 C 
ENDBRANCH  30  32
ENDBRANCH  28  30
ENDBRANCH  22  28
ENDBRANCH  21  26
ENDBRANCH   1  21
TORSDOF 5
ENDMDL
