MODEL 1
REMARK VINA RESULT:      -8.2      0.000      0.000
REMARK  Name = 
REMARK  3 active torsions:
REMARK  status: ('A' for Active; 'I' for Inactive)
REMARK    1  A    between atoms: N_1  and  C_2
REMARK    2  A    between atoms: C_7  and  C_8
REMARK    3  A    between atoms: N_16  and  C_17
REMARK                            x       y       z     vdW  Elec       q    Type
REMARK                         _______ _______ _______ _____ _____    ______ ____
ROOT
ATOM      1  C   UNL     1       0.519  10.377  19.973  0.00  0.00    +0.000 C 
ATOM      2  C   UNL     1       0.468  10.615  18.466  0.00  0.00    +0.000 C 
ATOM      3  C   UNL     1       1.843  10.309  17.856  0.00  0.00    +0.000 C 
ATOM      4  C   UNL     1       2.384   8.976  18.298  0.00  0.00    +0.000 A 
ATOM      5  N   UNL     1       3.405   8.430  17.587  0.00  0.00    +0.000 NA
ATOM      6  C   UNL     1       3.885   7.192  17.869  0.00  0.00    +0.000 A 
ATOM      7  N   UNL     1       3.311   6.473  18.865  0.00  0.00    +0.000 NA
ATOM      8  C   UNL     1       2.304   6.966  19.635  0.00  0.00    +0.000 A 
ATOM      9  N   UNL     1       1.781   6.160  20.690  0.00  0.00    +0.000 N 
ATOM     10  C   UNL     1       1.834   8.271  19.393  0.00  0.00    +0.000 A 
ATOM     11  C   UNL     1       0.732   8.875  20.240  0.00  0.00    +0.000 C 
ATOM     12  H   UNL     1       1.384   6.615  21.526  0.00  0.00    +0.000 HD
ENDROOT
BRANCH   9  13
ATOM     13  C   UNL     1       1.768   4.734  20.642  0.00  0.00    +0.000 A 
ATOM     14  C   UNL     1       2.389   4.001  21.664  0.00  0.00    +0.000 A 
ATOM     15  C   UNL     1       2.360   2.601  21.644  0.00  0.00    +0.000 A 
ATOM     16  C   UNL     1       1.690   1.927  20.620  0.00  0.00    +0.000 A 
ATOM     17  C   UNL     1       1.052   2.649  19.610  0.00  0.00    +0.000 A 
ATOM     18  F   UNL     1       0.380   1.998  18.629  0.00  0.00    +0.000 F 
ATOM     19  C   UNL     1       1.094   4.044  19.615  0.00  0.00    +0.000 A 
ENDBRANCH   9  13
BRANCH   6  20
ATOM     20  C   UNL     1       5.021   6.629  17.101  0.00  0.00    +0.000 A 
ATOM     21  C   UNL     1       6.347   6.886  17.490  0.00  0.00    +0.000 A 
ATOM     22  C   UNL     1       7.402   6.341  16.753  0.00  0.00    +0.000 A 
ATOM     23  N   UNL     1       7.148   5.565  15.667  0.00  0.00    +0.000 NA
ATOM     24  C   UNL     1       5.878   5.294  15.267  0.00  0.00    +0.000 A 
ATOM     25  C   UNL     1       4.793   5.819  15.974  0.00  0.00    +0.000 A 
ENDBRANCH   6  20
BRANCH   1  26
ATOM     26  N   UNL     1      -0.717  10.820  20.617  0.00  0.00    +0.000 NA
ATOM     27  H   UNL     1      -1.535  10.430  20.094  0.00  0.00    +0.000 HD
ATOM     28  H   UNL     1      -0.778  11.862  20.563  0.00  0.00    +0.000 HD
ENDBRANCH   1  26
TORSDOF 3
ENDMDL
MODEL 2
REMARK VINA RESULT:      -7.7      0.941      1.334
REMARK  Name = 
REMARK  3 active torsions:
REMARK  status: ('A' for Active; 'I' for Inactive)
REMARK    1  A    between atoms: N_1  and  C_2
REMARK    2  A    between atoms: C_7  and  C_8
REMARK    3  A    between atoms: N_16  and  C_17
REMARK                            x       y       z     vdW  Elec       q    Type
REMARK                         _______ _______ _______ _____ _____    ______ ____
ROOT
ATOM      1  C   UNL     1       0.520  10.426  19.982  0.00  0.00    +0.000 C 
ATOM      2  C   UNL     1       0.469  10.660  18.475  0.00  0.00    +0.000 C 
ATOM      3  C   UNL     1       1.842  10.344  17.864  0.00  0.00    +0.000 C 
ATOM      4  C   UNL     1       2.374   9.008  18.309  0.00  0.00    +0.000 A 
ATOM      5  N   UNL     1       3.391   8.455  17.599  0.00  0.00    +0.000 NA
ATOM      6  C   UNL     1       3.862   7.214  17.883  0.00  0.00    +0.000 A 
ATOM      7  N   UNL     1       3.285   6.501  18.881  0.00  0.00    +0.000 NA
ATOM      8  C   UNL     1       2.282   7.002  19.651  0.00  0.00    +0.000 A 
ATOM      9  N   UNL     1       1.754   6.202  20.708  0.00  0.00    +0.000 N 
ATOM     10  C   UNL     1       1.820   8.310  19.407  0.00  0.00    +0.000 A 
ATOM     11  C   UNL     1       0.723   8.923  20.253  0.00  0.00    +0.000 C 
ATOM     12  H   UNL     1       1.361   6.662  21.544  0.00  0.00    +0.000 HD
ENDROOT
BRANCH   9  13
ATOM     13  C   UNL     1       1.732   4.777  20.664  0.00  0.00    +0.000 A 
ATOM     14  C   UNL     1       0.808   4.123  19.835  0.00  0.00    +0.000 A 
ATOM     15  C   UNL     1       0.793   2.726  19.760  0.00  0.00    +0.000 A 
ATOM     16  C   UNL     1       1.717   1.973  20.490  0.00  0.00    +0.000 A 
ATOM     17  C   UNL     1       2.654   2.615  21.302  0.00  0.00    +0.000 A 
ATOM     18  F   UNL     1       3.568   1.889  21.992  0.00  0.00    +0.000 F 
ATOM     19  C   UNL     1       2.660   4.008  21.395  0.00  0.00    +0.000 A 
ENDBRANCH   9  13
BRANCH   6  20
ATOM     20  C   UNL     1       4.994   6.641  17.116  0.00  0.00    +0.000 A 
ATOM     21  C   UNL     1       6.320   6.834  17.542  0.00  0.00    +0.000 A 
ATOM     22  C   UNL     1       7.371   6.282  16.804  0.00  0.00    +0.000 A 
ATOM     23  N   UNL     1       7.112   5.560  15.683  0.00  0.00    +0.000 NA
ATOM     24  C   UNL     1       5.843   5.352  15.246  0.00  0.00    +0.000 A 
ATOM     25  C   UNL     1       4.762   5.886  15.952  0.00  0.00    +0.000 A 
ENDBRANCH   6  20
BRANCH   1  26
ATOM     26  N   UNL     1      -0.713  10.878  20.626  0.00  0.00    +0.000 NA
ATOM     27  H   UNL     1      -0.529  11.040  21.643  0.00  0.00    +0.000 HD
ATOM     28  H   UNL     1      -1.435  10.125  20.554  0.00  0.00    +0.000 HD
ENDBRANCH   1  26
TORSDOF 3
ENDMDL
MODEL 3
REMARK VINA RESULT:      -7.7      2.061      5.316
REMARK  Name = 
REMARK  3 active torsions:
REMARK  status: ('A' for Active; 'I' for Inactive)
REMARK    1  A    between atoms: N_1  and  C_2
REMARK    2  A    between atoms: C_7  and  C_8
REMARK    3  A    between atoms: N_16  and  C_17
REMARK                            x       y       z     vdW  Elec       q    Type
REMARK                         _______ _______ _______ _____ _____    ______ ____
ROOT
ATOM      1  C   UNL     1       0.992  10.496  18.579  0.00  0.00    +0.000 C 
ATOM      2  C   UNL     1       1.123  10.462  20.100  0.00  0.00    +0.000 C 
ATOM      3  C   UNL     1       0.820   9.045  20.605  0.00  0.00    +0.000 C 
ATOM      4  C   UNL     1       1.586   7.990  19.851  0.00  0.00    +0.000 A 
ATOM      5  N   UNL     1       1.682   6.752  20.400  0.00  0.00    +0.000 NA
ATOM      6  C   UNL     1       2.430   5.776  19.825  0.00  0.00    +0.000 A 
ATOM      7  N   UNL     1       3.120   6.055  18.692  0.00  0.00    +0.000 NA
ATOM      8  C   UNL     1       3.050   7.264  18.073  0.00  0.00    +0.000 A 
ATOM      9  N   UNL     1       3.776   7.464  16.860  0.00  0.00    +0.000 N 
ATOM     10  C   UNL     1       2.232   8.269  18.624  0.00  0.00    +0.000 A 
ATOM     11  C   UNL     1       2.099   9.623  17.958  0.00  0.00    +0.000 C 
ATOM     12  H   UNL     1       3.420   8.135  16.162  0.00  0.00    +0.000 HD
ENDROOT
BRANCH   9  13
ATOM     13  C   UNL     1       4.994   6.784  16.566  0.00  0.00    +0.000 A 
ATOM     14  C   UNL     1       6.141   7.054  17.327  0.00  0.00    +0.000 A 
ATOM     15  C   UNL     1       7.336   6.373  17.067  0.00  0.00    +0.000 A 
ATOM     16  C   UNL     1       7.387   5.400  16.065  0.00  0.00    +0.000 A 
ATOM     17  C   UNL     1       6.245   5.110  15.316  0.00  0.00    +0.000 A 
ATOM     18  F   UNL     1       6.285   4.149  14.361  0.00  0.00    +0.000 F 
ATOM     19  C   UNL     1       5.057   5.800  15.559  0.00  0.00    +0.000 A 
ENDBRANCH   9  13
BRANCH   6  20
ATOM     20  C   UNL     1       2.495   4.422  20.424  0.00  0.00    +0.000 A 
ATOM     21  C   UNL     1       1.434   3.929  21.203  0.00  0.00    +0.000 A 
ATOM     22  C   UNL     1       1.517   2.648  21.754  0.00  0.00    +0.000 A 
ATOM     23  N   UNL     1       2.616   1.880  21.536  0.00  0.00    +0.000 NA
ATOM     24  C   UNL     1       3.658   2.324  20.785  0.00  0.00    +0.000 A 
ATOM     25  C   UNL     1       3.618   3.599  20.215  0.00  0.00    +0.000 A 
ENDBRANCH   6  20
BRANCH   1  26
ATOM     26  N   UNL     1       1.103  11.863  18.072  0.00  0.00    +0.000 NA
ATOM     27  H   UNL     1       1.704  11.864  17.216  0.00  0.00    +0.000 HD
ATOM     28  H   UNL     1       1.579  12.458  18.789  0.00  0.00    +0.000 HD
ENDBRANCH   1  26
TORSDOF 3
ENDMDL
MODEL 4
REMARK VINA RESULT:      -7.4      2.181      5.526
REMARK  Name = 
REMARK  3 active torsions:
REMARK  status: ('A' for Active; 'I' for Inactive)
REMARK    1  A    between atoms: N_1  and  C_2
REMARK    2  A    between atoms: C_7  and  C_8
REMARK    3  A    between atoms: N_16  and  C_17
REMARK                            x       y       z     vdW  Elec       q    Type
REMARK                         _______ _______ _______ _____ _____    ______ ____
ROOT
ATOM      1  C   UNL     1       1.356  10.950  18.407  0.00  0.00    +0.000 C 
ATOM      2  C   UNL     1       1.346  10.880  19.931  0.00  0.00    +0.000 C 
ATOM      3  C   UNL     1       0.809   9.512  20.374  0.00  0.00    +0.000 C 
ATOM      4  C   UNL     1       1.488   8.372  19.663  0.00  0.00    +0.000 A 
ATOM      5  N   UNL     1       1.366   7.125  20.188  0.00  0.00    +0.000 NA
ATOM      6  C   UNL     1       2.022   6.063  19.657  0.00  0.00    +0.000 A 
ATOM      7  N   UNL     1       2.841   6.257  18.593  0.00  0.00    +0.000 NA
ATOM      8  C   UNL     1       2.990   7.472  18.000  0.00  0.00    +0.000 A 
ATOM      9  N   UNL     1       3.841   7.585  16.859  0.00  0.00    +0.000 N 
ATOM     10  C   UNL     1       2.271   8.573  18.503  0.00  0.00    +0.000 A 
ATOM     11  C   UNL     1       2.383   9.941  17.861  0.00  0.00    +0.000 C 
ATOM     12  H   UNL     1       3.643   8.307  16.150  0.00  0.00    +0.000 HD
ENDROOT
BRANCH   9  13
ATOM     13  C   UNL     1       4.976   6.747  16.654  0.00  0.00    +0.000 A 
ATOM     14  C   UNL     1       5.103   6.033  15.453  0.00  0.00    +0.000 A 
ATOM     15  C   UNL     1       6.225   5.228  15.227  0.00  0.00    +0.000 A 
ATOM     16  C   UNL     1       7.240   5.152  16.184  0.00  0.00    +0.000 A 
ATOM     17  C   UNL     1       7.133   5.875  17.373  0.00  0.00    +0.000 A 
ATOM     18  F   UNL     1       8.127   5.823  18.293  0.00  0.00    +0.000 F 
ATOM     19  C   UNL     1       6.006   6.664  17.612  0.00  0.00    +0.000 A 
ENDBRANCH   9  13
BRANCH   6  20
ATOM     20  C   UNL     1       1.849   4.705  20.225  0.00  0.00    +0.000 A 
ATOM     21  C   UNL     1       1.141   3.716  19.521  0.00  0.00    +0.000 A 
ATOM     22  C   UNL     1       0.994   2.442  20.076  0.00  0.00    +0.000 A 
ATOM     23  N   UNL     1       1.535   2.159  21.290  0.00  0.00    +0.000 NA
ATOM     24  C   UNL     1       2.228   3.091  21.995  0.00  0.00    +0.000 A 
ATOM     25  C   UNL     1       2.399   4.377  21.478  0.00  0.00    +0.000 A 
ENDBRANCH   6  20
BRANCH   1  26
ATOM     26  N   UNL     1       1.696  12.295  17.945  0.00  0.00    +0.000 NA
ATOM     27  H   UNL     1       0.824  12.784  17.638  0.00  0.00    +0.000 HD
ATOM     28  H   UNL     1       2.325  12.224  17.112  0.00  0.00    +0.000 HD
ENDBRANCH   1  26
TORSDOF 3
ENDMDL
MODEL 5
REMARK VINA RESULT:      -7.0      9.186     11.498
REMARK  Name = 
REMARK  3 active torsions:
REMARK  status: ('A' for Active; 'I' for Inactive)
REMARK    1  A    between atoms: N_1  and  C_2
REMARK    2  A    between atoms: C_7  and  C_8
REMARK    3  A    between atoms: N_16  and  C_17
REMARK                            x       y       z     vdW  Elec       q    Type
REMARK                         _______ _______ _______ _____ _____    ______ ____
ROOT
ATOM      1  C   UNL     1      11.790  13.105  17.434  0.00  0.00    +0.000 C 
ATOM      2  C   UNL     1      11.684  11.667  17.937  0.00  0.00    +0.000 C 
ATOM      3  C   UNL     1      11.421  11.675  19.449  0.00  0.00    +0.000 C 
ATOM      4  C   UNL     1      10.292  12.595  19.831  0.00  0.00    +0.000 A 
ATOM      5  N   UNL     1       9.732  12.447  21.059  0.00  0.00    +0.000 NA
ATOM      6  C   UNL     1       8.652  13.176  21.440  0.00  0.00    +0.000 A 
ATOM      7  N   UNL     1       8.105  14.053  20.563  0.00  0.00    +0.000 NA
ATOM      8  C   UNL     1       8.629  14.272  19.327  0.00  0.00    +0.000 A 
ATOM      9  N   UNL     1       8.016  15.241  18.477  0.00  0.00    +0.000 N 
ATOM     10  C   UNL     1       9.783  13.566  18.937  0.00  0.00    +0.000 A 
ATOM     11  C   UNL     1      10.420  13.793  17.582  0.00  0.00    +0.000 C 
ATOM     12  H   UNL     1       8.592  15.743  17.784  0.00  0.00    +0.000 HD
ENDROOT
BRANCH   9  13
ATOM     13  C   UNL     1       6.624  15.546  18.529  0.00  0.00    +0.000 A 
ATOM     14  C   UNL     1       5.707  14.719  17.864  0.00  0.00    +0.000 A 
ATOM     15  C   UNL     1       4.335  14.990  17.929  0.00  0.00    +0.000 A 
ATOM     16  C   UNL     1       3.869  16.073  18.680  0.00  0.00    +0.000 A 
ATOM     17  C   UNL     1       4.772  16.890  19.361  0.00  0.00    +0.000 A 
ATOM     18  F   UNL     1       4.321  17.926  20.111  0.00  0.00    +0.000 F 
ATOM     19  C   UNL     1       6.142  16.634  19.283  0.00  0.00    +0.000 A 
ENDBRANCH   9  13
BRANCH   6  20
ATOM     20  C   UNL     1       8.077  13.022  22.797  0.00  0.00    +0.000 A 
ATOM     21  C   UNL     1       7.550  14.130  23.484  0.00  0.00    +0.000 A 
ATOM     22  C   UNL     1       7.010  13.959  24.761  0.00  0.00    +0.000 A 
ATOM     23  N   UNL     1       6.990  12.728  25.336  0.00  0.00    +0.000 NA
ATOM     24  C   UNL     1       7.487  11.636  24.698  0.00  0.00    +0.000 A 
ATOM     25  C   UNL     1       8.037  11.761  23.420  0.00  0.00    +0.000 A 
ENDBRANCH   6  20
BRANCH   1  26
ATOM     26  N   UNL     1      12.210  13.143  16.034  0.00  0.00    +0.000 NA
ATOM     27  H   UNL     1      11.397  12.893  15.425  0.00  0.00    +0.000 HD
ATOM     28  H   UNL     1      12.952  12.422  15.878  0.00  0.00    +0.000 HD
ENDBRANCH   1  26
TORSDOF 3
ENDMDL
MODEL 6
REMARK VINA RESULT:      -7.0      8.985     11.399
REMARK  Name = 
REMARK  3 active torsions:
REMARK  status: ('A' for Active; 'I' for Inactive)
REMARK    1  A    between atoms: N_1  and  C_2
REMARK    2  A    between atoms: C_7  and  C_8
REMARK    3  A    between atoms: N_16  and  C_17
REMARK                            x       y       z     vdW  Elec       q    Type
REMARK                         _______ _______ _______ _____ _____    ______ ____
ROOT
ATOM      1  C   UNL     1      11.763  13.133  17.370  0.00  0.00    +0.000 C 
ATOM      2  C   UNL     1      11.672  11.695  17.873  0.00  0.00    +0.000 C 
ATOM      3  C   UNL     1      11.485  11.700  19.396  0.00  0.00    +0.000 C 
ATOM      4  C   UNL     1      10.382  12.626  19.836  0.00  0.00    +0.000 A 
ATOM      5  N   UNL     1       9.883  12.478  21.091  0.00  0.00    +0.000 NA
ATOM      6  C   UNL     1       8.829  13.213  21.527  0.00  0.00    +0.000 A 
ATOM      7  N   UNL     1       8.244  14.095  20.680  0.00  0.00    +0.000 NA
ATOM      8  C   UNL     1       8.707  14.315  19.420  0.00  0.00    +0.000 A 
ATOM      9  N   UNL     1       8.059  15.290  18.604  0.00  0.00    +0.000 N 
ATOM     10  C   UNL     1       9.836  13.602  18.972  0.00  0.00    +0.000 A 
ATOM     11  C   UNL     1      10.406  13.830  17.587  0.00  0.00    +0.000 C 
ATOM     12  H   UNL     1       8.603  15.791  17.885  0.00  0.00    +0.000 HD
ENDROOT
BRANCH   9  13
ATOM     13  C   UNL     1       6.673  15.605  18.726  0.00  0.00    +0.000 A 
ATOM     14  C   UNL     1       6.284  16.783  19.380  0.00  0.00    +0.000 A 
ATOM     15  C   UNL     1       4.929  17.118  19.483  0.00  0.00    +0.000 A 
ATOM     16  C   UNL     1       3.956  16.294  18.911  0.00  0.00    +0.000 A 
ATOM     17  C   UNL     1       4.335  15.129  18.241  0.00  0.00    +0.000 A 
ATOM     18  F   UNL     1       3.396  14.341  17.663  0.00  0.00    +0.000 F 
ATOM     19  C   UNL     1       5.684  14.781  18.152  0.00  0.00    +0.000 A 
ENDBRANCH   9  13
BRANCH   6  20
ATOM     20  C   UNL     1       8.320  13.058  22.910  0.00  0.00    +0.000 A 
ATOM     21  C   UNL     1       7.863  11.812  23.372  0.00  0.00    +0.000 A 
ATOM     22  C   UNL     1       7.391  11.690  24.682  0.00  0.00    +0.000 A 
ATOM     23  N   UNL     1       7.376  12.770  25.506  0.00  0.00    +0.000 NA
ATOM     24  C   UNL     1       7.814  13.987  25.093  0.00  0.00    +0.000 A 
ATOM     25  C   UNL     1       8.294  14.155  23.791  0.00  0.00    +0.000 A 
ENDBRANCH   6  20
BRANCH   1  26
ATOM     26  N   UNL     1      12.113  13.173  15.950  0.00  0.00    +0.000 NA
ATOM     27  H   UNL     1      12.127  12.197  15.573  0.00  0.00    +0.000 HD
ATOM     28  H   UNL     1      13.077  13.564  15.845  0.00  0.00    +0.000 HD
ENDBRANCH   1  26
TORSDOF 3
ENDMDL
MODEL 7
REMARK VINA RESULT:      -6.7      8.661     11.066
REMARK  Name = 
REMARK  3 active torsions:
REMARK  status: ('A' for Active; 'I' for Inactive)
REMARK    1  A    between atoms: N_1  and  C_2
REMARK    2  A    between atoms: C_7  and  C_8
REMARK    3  A    between atoms: N_16  and  C_17
REMARK                            x       y       z     vdW  Elec       q    Type
REMARK                         _______ _______ _______ _____ _____    ______ ____
ROOT
ATOM      1  C   UNL     1      11.290  13.280  17.400  0.00  0.00    +0.000 C 
ATOM      2  C   UNL     1      11.241  11.812  17.814  0.00  0.00    +0.000 C 
ATOM      3  C   UNL     1      11.074  11.719  19.337  0.00  0.00    +0.000 C 
ATOM      4  C   UNL     1       9.955  12.588  19.846  0.00  0.00    +0.000 A 
ATOM      5  N   UNL     1       9.475  12.350  21.095  0.00  0.00    +0.000 NA
ATOM      6  C   UNL     1       8.409  13.031  21.587  0.00  0.00    +0.000 A 
ATOM      7  N   UNL     1       7.792  13.949  20.803  0.00  0.00    +0.000 NA
ATOM      8  C   UNL     1       8.234  14.257  19.554  0.00  0.00    +0.000 A 
ATOM      9  N   UNL     1       7.552  15.264  18.807  0.00  0.00    +0.000 N 
ATOM     10  C   UNL     1       9.374  13.602  19.050  0.00  0.00    +0.000 A 
ATOM     11  C   UNL     1       9.920  13.928  17.675  0.00  0.00    +0.000 C 
ATOM     12  H   UNL     1       8.074  15.822  18.114  0.00  0.00    +0.000 HD
ENDROOT
BRANCH   9  13
ATOM     13  C   UNL     1       6.160  15.536  18.964  0.00  0.00    +0.000 A 
ATOM     14  C   UNL     1       5.747  16.554  19.836  0.00  0.00    +0.000 A 
ATOM     15  C   UNL     1       4.386  16.850  19.979  0.00  0.00    +0.000 A 
ATOM     16  C   UNL     1       3.433  16.150  19.233  0.00  0.00    +0.000 A 
ATOM     17  C   UNL     1       3.837  15.149  18.349  0.00  0.00    +0.000 A 
ATOM     18  F   UNL     1       2.917  14.486  17.606  0.00  0.00    +0.000 F 
ATOM     19  C   UNL     1       5.191  14.838  18.217  0.00  0.00    +0.000 A 
ENDBRANCH   9  13
BRANCH   6  20
ATOM     20  C   UNL     1       7.922  12.779  22.964  0.00  0.00    +0.000 A 
ATOM     21  C   UNL     1       8.513  13.425  24.064  0.00  0.00    +0.000 A 
ATOM     22  C   UNL     1       8.035  13.174  25.353  0.00  0.00    +0.000 A 
ATOM     23  N   UNL     1       7.002  12.312  25.542  0.00  0.00    +0.000 NA
ATOM     24  C   UNL     1       6.406  11.674  24.501  0.00  0.00    +0.000 A 
ATOM     25  C   UNL     1       6.853  11.895  23.196  0.00  0.00    +0.000 A 
ENDBRANCH   6  20
BRANCH   1  26
ATOM     26  N   UNL     1      11.621  13.415  15.982  0.00  0.00    +0.000 NA
ATOM     27  H   UNL     1      12.122  12.555  15.663  0.00  0.00    +0.000 HD
ATOM     28  H   UNL     1      12.273  14.223  15.856  0.00  0.00    +0.000 HD
ENDBRANCH   1  26
TORSDOF 3
ENDMDL
MODEL 8
REMARK VINA RESULT:      -6.6      1.724      5.657
REMARK  Name = 
REMARK  3 active torsions:
REMARK  status: ('A' for Active; 'I' for Inactive)
REMARK    1  A    between atoms: N_1  and  C_2
REMARK    2  A    between atoms: C_7  and  C_8
REMARK    3  A    between atoms: N_16  and  C_17
REMARK                            x       y       z     vdW  Elec       q    Type
REMARK                         _______ _______ _______ _____ _____    ______ ____
ROOT
ATOM      1  C   UNL     1       5.830   4.528  14.662  0.00  0.00    +0.000 C 
ATOM      2  C   UNL     1       6.666   5.729  15.096  0.00  0.00    +0.000 C 
ATOM      3  C   UNL     1       5.734   6.901  15.436  0.00  0.00    +0.000 C 
ATOM      4  C   UNL     1       4.621   6.498  16.366  0.00  0.00    +0.000 A 
ATOM      5  N   UNL     1       3.939   7.479  17.012  0.00  0.00    +0.000 NA
ATOM      6  C   UNL     1       2.985   7.192  17.934  0.00  0.00    +0.000 A 
ATOM      7  N   UNL     1       2.727   5.895  18.235  0.00  0.00    +0.000 NA
ATOM      8  C   UNL     1       3.351   4.862  17.608  0.00  0.00    +0.000 A 
ATOM      9  N   UNL     1       2.994   3.524  17.955  0.00  0.00    +0.000 N 
ATOM     10  C   UNL     1       4.302   5.142  16.608  0.00  0.00    +0.000 A 
ATOM     11  C   UNL     1       5.006   4.026  15.863  0.00  0.00    +0.000 C 
ATOM     12  H   UNL     1       3.081   2.778  17.248  0.00  0.00    +0.000 HD
ENDROOT
BRANCH   9  13
ATOM     13  C   UNL     1       2.528   3.159  19.253  0.00  0.00    +0.000 A 
ATOM     14  C   UNL     1       1.177   3.340  19.580  0.00  0.00    +0.000 A 
ATOM     15  C   UNL     1       0.700   2.960  20.840  0.00  0.00    +0.000 A 
ATOM     16  C   UNL     1       1.562   2.373  21.770  0.00  0.00    +0.000 A 
ATOM     17  C   UNL     1       2.904   2.170  21.446  0.00  0.00    +0.000 A 
ATOM     18  F   UNL     1       3.737   1.578  22.336  0.00  0.00    +0.000 F 
ATOM     19  C   UNL     1       3.388   2.565  20.198  0.00  0.00    +0.000 A 
ENDBRANCH   9  13
BRANCH   6  20
ATOM     20  C   UNL     1       2.231   8.277  18.604  0.00  0.00    +0.000 A 
ATOM     21  C   UNL     1       1.828   8.150  19.945  0.00  0.00    +0.000 A 
ATOM     22  C   UNL     1       1.121   9.187  20.557  0.00  0.00    +0.000 A 
ATOM     23  N   UNL     1       0.825  10.316  19.861  0.00  0.00    +0.000 NA
ATOM     24  C   UNL     1       1.202  10.473  18.565  0.00  0.00    +0.000 A 
ATOM     25  C   UNL     1       1.911   9.460  17.914  0.00  0.00    +0.000 A 
ENDBRANCH   6  20
BRANCH   1  26
ATOM     26  N   UNL     1       6.681   3.447  14.166  0.00  0.00    +0.000 NA
ATOM     27  H   UNL     1       7.089   3.727  13.245  0.00  0.00    +0.000 HD
ATOM     28  H   UNL     1       6.096   2.595  14.004  0.00  0.00    +0.000 HD
ENDBRANCH   1  26
TORSDOF 3
ENDMDL
MODEL 9
REMARK VINA RESULT:      -6.4      5.680      9.668
REMARK  Name = 
REMARK  3 active torsions:
REMARK  status: ('A' for Active; 'I' for Inactive)
REMARK    1  A    between atoms: N_1  and  C_2
REMARK    2  A    between atoms: C_7  and  C_8
REMARK    3  A    between atoms: N_16  and  C_17
REMARK                            x       y       z     vdW  Elec       q    Type
REMARK                         _______ _______ _______ _____ _____    ______ ____
ROOT
ATOM      1  C   UNL     1      -1.689  15.366  24.682  0.00  0.00    +0.000 C 
ATOM      2  C   UNL     1      -2.963  14.768  25.273  0.00  0.00    +0.000 C 
ATOM      3  C   UNL     1      -4.020  14.630  24.169  0.00  0.00    +0.000 C 
ATOM      4  C   UNL     1      -3.480  13.953  22.938  0.00  0.00    +0.000 A 
ATOM      5  N   UNL     1      -4.368  13.462  22.034  0.00  0.00    +0.000 NA
ATOM      6  C   UNL     1      -3.959  12.760  20.946  0.00  0.00    +0.000 A 
ATOM      7  N   UNL     1      -2.636  12.519  20.775  0.00  0.00    +0.000 NA
ATOM      8  C   UNL     1      -1.690  13.001  21.625  0.00  0.00    +0.000 A 
ATOM      9  N   UNL     1      -0.314  12.736  21.352  0.00  0.00    +0.000 N 
ATOM     10  C   UNL     1      -2.092  13.781  22.726  0.00  0.00    +0.000 A 
ATOM     11  C   UNL     1      -1.075  14.363  23.686  0.00  0.00    +0.000 C 
ATOM     12  H   UNL     1       0.403  13.409  21.664  0.00  0.00    +0.000 HD
ENDROOT
BRANCH   9  13
ATOM     13  C   UNL     1       0.128  11.564  20.670  0.00  0.00    +0.000 A 
ATOM     14  C   UNL     1       0.577  11.661  19.345  0.00  0.00    +0.000 A 
ATOM     15  C   UNL     1       1.040  10.524  18.672  0.00  0.00    +0.000 A 
ATOM     16  C   UNL     1       1.082   9.289  19.326  0.00  0.00    +0.000 A 
ATOM     17  C   UNL     1       0.656   9.187  20.652  0.00  0.00    +0.000 A 
ATOM     18  F   UNL     1       0.720   7.997  21.297  0.00  0.00    +0.000 F 
ATOM     19  C   UNL     1       0.176  10.315  21.320  0.00  0.00    +0.000 A 
ENDBRANCH   9  13
BRANCH   6  20
ATOM     20  C   UNL     1      -4.942  12.262  19.956  0.00  0.00    +0.000 A 
ATOM     21  C   UNL     1      -4.538  11.914  18.655  0.00  0.00    +0.000 A 
ATOM     22  C   UNL     1      -5.482  11.444  17.739  0.00  0.00    +0.000 A 
ATOM     23  N   UNL     1      -6.785  11.320  18.103  0.00  0.00    +0.000 NA
ATOM     24  C   UNL     1      -7.209  11.644  19.353  0.00  0.00    +0.000 A 
ATOM     25  C   UNL     1      -6.299  12.118  20.301  0.00  0.00    +0.000 A 
ENDBRANCH   6  20
BRANCH   1  26
ATOM     26  N   UNL     1      -0.717  15.673  25.730  0.00  0.00    +0.000 NA
ATOM     27  H   UNL     1      -0.070  16.420  25.389  0.00  0.00    +0.000 HD
ATOM     28  H   UNL     1      -0.141  14.823  25.925  0.00  0.00    +0.000 HD
ENDBRANCH   1  26
TORSDOF 3
ENDMDL
