MODEL 1
REMARK VINA RESULT:      -7.3      0.000      0.000
REMARK  Name = 
REMARK  3 active torsions:
REMARK  status: ('A' for Active; 'I' for Inactive)
REMARK    1  A    between atoms: C_1  and  C_2
REMARK    2  A    between atoms: C_4  and  C_5
REMARK    3  A    between atoms: C_9  and  C_11
REMARK                            x       y       z     vdW  Elec       q    Type
REMARK                         _______ _______ _______ _____ _____    ______ ____
ROOT
ATOM      1  C   UNL     1       1.018   2.768  20.102  0.00  0.00    +0.000 C 
ATOM      2  C   UNL     1       1.600   4.118  19.829  0.00  0.00    +0.000 A 
ATOM      3  C   UNL     1       1.264   5.229  20.563  0.00  0.00    +0.000 A 
ATOM      4  C   UNL     1       1.884   6.413  20.203  0.00  0.00    +0.000 A 
ATOM      5  C   UNL     1       1.585   7.676  20.958  0.00  0.00    +0.000 C 
ATOM      6  N   UNL     1       2.768   6.492  19.178  0.00  0.00    +0.000 NA
ATOM      7  C   UNL     1       3.055   5.344  18.545  0.00  0.00    +0.000 A 
ATOM      8  N   UNL     1       3.974   5.417  17.503  0.00  0.00    +0.000 N 
ATOM      9  C   UNL     1       4.640   4.331  16.997  0.00  0.00    +0.000 C 
ATOM     10  O   UNL     1       4.544   3.167  17.390  0.00  0.00    +0.000 OA
ATOM     11  N   UNL     1       2.490   4.170  18.827  0.00  0.00    +0.000 NA
ATOM     12  H   UNL     1       4.188   6.358  17.207  0.00  0.00    +0.000 HD
ENDROOT
BRANCH   9  13
ATOM     13  C   UNL     1       5.586   4.561  15.877  0.00  0.00    +0.000 A 
ATOM     14  C   UNL     1       5.277   3.891  14.673  0.00  0.00    +0.000 A 
ATOM     15  C   UNL     1       6.123   3.987  13.574  0.00  0.00    +0.000 A 
ATOM     16 BR   UNL     1       5.699   3.068  11.978  0.00  0.00    +0.000 Br
ATOM     17  C   UNL     1       7.287   4.743  13.651  0.00  0.00    +0.000 A 
ATOM     18  C   UNL     1       7.605   5.406  14.840  0.00  0.00    +0.000 A 
ATOM     19  C   UNL     1       6.760   5.316  15.954  0.00  0.00    +0.000 A 
ATOM     20 CL   UNL     1       7.288   6.121  17.391  0.00  0.00    +0.000 Cl
ENDBRANCH   9  13
TORSDOF 1
ENDMDL
MODEL 2
REMARK VINA RESULT:      -7.1      3.283      7.134
REMARK  Name = 
REMARK  3 active torsions:
REMARK  status: ('A' for Active; 'I' for Inactive)
REMARK    1  A    between atoms: C_1  and  C_2
REMARK    2  A    between atoms: C_4  and  C_5
REMARK    3  A    between atoms: C_9  and  C_11
REMARK                            x       y       z     vdW  Elec       q    Type
REMARK                         _______ _______ _______ _____ _____    ______ ____
ROOT
ATOM      1  C   UNL     1       8.873   5.895  12.917  0.00  0.00    +0.000 C 
ATOM      2  C   UNL     1       7.623   5.088  13.065  0.00  0.00    +0.000 A 
ATOM      3  C   UNL     1       7.287   4.078  12.196  0.00  0.00    +0.000 A 
ATOM      4  C   UNL     1       6.103   3.411  12.458  0.00  0.00    +0.000 A 
ATOM      5  C   UNL     1       5.664   2.287  11.566  0.00  0.00    +0.000 C 
ATOM      6  N   UNL     1       5.302   3.730  13.504  0.00  0.00    +0.000 NA
ATOM      7  C   UNL     1       5.735   4.708  14.315  0.00  0.00    +0.000 A 
ATOM      8  N   UNL     1       4.923   5.027  15.398  0.00  0.00    +0.000 N 
ATOM      9  C   UNL     1       5.358   5.722  16.497  0.00  0.00    +0.000 C 
ATOM     10  O   UNL     1       6.502   6.136  16.694  0.00  0.00    +0.000 OA
ATOM     11  N   UNL     1       6.856   5.402  14.120  0.00  0.00    +0.000 NA
ATOM     12  H   UNL     1       4.001   4.620  15.357  0.00  0.00    +0.000 HD
ENDROOT
BRANCH   9  13
ATOM     13  C   UNL     1       4.375   5.997  17.574  0.00  0.00    +0.000 A 
ATOM     14  C   UNL     1       3.605   7.170  17.408  0.00  0.00    +0.000 A 
ATOM     15  C   UNL     1       2.692   7.559  18.382  0.00  0.00    +0.000 A 
ATOM     16 BR   UNL     1       1.686   9.141  18.148  0.00  0.00    +0.000 Br
ATOM     17  C   UNL     1       2.531   6.797  19.534  0.00  0.00    +0.000 A 
ATOM     18  C   UNL     1       3.292   5.638  19.710  0.00  0.00    +0.000 A 
ATOM     19  C   UNL     1       4.215   5.236  18.736  0.00  0.00    +0.000 A 
ATOM     20 CL   UNL     1       5.148   3.825  19.091  0.00  0.00    +0.000 Cl
ENDBRANCH   9  13
TORSDOF 1
ENDMDL
MODEL 3
REMARK VINA RESULT:      -7.1      3.637      5.118
REMARK  Name = 
REMARK  3 active torsions:
REMARK  status: ('A' for Active; 'I' for Inactive)
REMARK    1  A    between atoms: C_1  and  C_2
REMARK    2  A    between atoms: C_4  and  C_5
REMARK    3  A    between atoms: C_9  and  C_11
REMARK                            x       y       z     vdW  Elec       q    Type
REMARK                         _______ _______ _______ _____ _____    ______ ____
ROOT
ATOM      1  C   UNL     1      -0.016  11.374  18.723  0.00  0.00    +0.000 C 
ATOM      2  C   UNL     1       0.329  10.385  19.790  0.00  0.00    +0.000 A 
ATOM      3  C   UNL     1      -0.151  10.486  21.074  0.00  0.00    +0.000 A 
ATOM      4  C   UNL     1       0.246   9.497  21.956  0.00  0.00    +0.000 A 
ATOM      5  C   UNL     1      -0.238   9.522  23.377  0.00  0.00    +0.000 C 
ATOM      6  N   UNL     1       1.070   8.483  21.594  0.00  0.00    +0.000 NA
ATOM      7  C   UNL     1       1.456   8.454  20.308  0.00  0.00    +0.000 A 
ATOM      8  N   UNL     1       2.288   7.406  19.929  0.00  0.00    +0.000 N 
ATOM      9  C   UNL     1       2.482   7.021  18.627  0.00  0.00    +0.000 C 
ATOM     10  O   UNL     1       1.951   7.516  17.632  0.00  0.00    +0.000 OA
ATOM     11  N   UNL     1       1.125   9.377  19.405  0.00  0.00    +0.000 NA
ATOM     12  H   UNL     1       2.669   6.881  20.702  0.00  0.00    +0.000 HD
ENDROOT
BRANCH   9  13
ATOM     13  C   UNL     1       3.408   5.889  18.373  0.00  0.00    +0.000 A 
ATOM     14  C   UNL     1       4.782   6.182  18.526  0.00  0.00    +0.000 A 
ATOM     15  C   UNL     1       5.743   5.213  18.259  0.00  0.00    +0.000 A 
ATOM     16 BR   UNL     1       7.576   5.631  18.454  0.00  0.00    +0.000 Br
ATOM     17  C   UNL     1       5.361   3.947  17.833  0.00  0.00    +0.000 A 
ATOM     18  C   UNL     1       4.005   3.649  17.672  0.00  0.00    +0.000 A 
ATOM     19  C   UNL     1       3.027   4.616  17.938  0.00  0.00    +0.000 A 
ATOM     20 CL   UNL     1       1.386   4.158  17.641  0.00  0.00    +0.000 Cl
ENDBRANCH   9  13
TORSDOF 1
ENDMDL
MODEL 4
REMARK VINA RESULT:      -7.0      3.199      5.018
REMARK  Name = 
REMARK  3 active torsions:
REMARK  status: ('A' for Active; 'I' for Inactive)
REMARK    1  A    between atoms: C_1  and  C_2
REMARK    2  A    between atoms: C_4  and  C_5
REMARK    3  A    between atoms: C_9  and  C_11
REMARK                            x       y       z     vdW  Elec       q    Type
REMARK                         _______ _______ _______ _____ _____    ______ ____
ROOT
ATOM      1  C   UNL     1       0.637  11.804  19.038  0.00  0.00    +0.000 C 
ATOM      2  C   UNL     1       0.764  10.659  19.990  0.00  0.00    +0.000 A 
ATOM      3  C   UNL     1       0.253  10.697  21.265  0.00  0.00    +0.000 A 
ATOM      4  C   UNL     1       0.439   9.563  22.035  0.00  0.00    +0.000 A 
ATOM      5  C   UNL     1      -0.095   9.513  23.437  0.00  0.00    +0.000 C 
ATOM      6  N   UNL     1       1.097   8.469  21.578  0.00  0.00    +0.000 NA
ATOM      7  C   UNL     1       1.528   8.517  20.307  0.00  0.00    +0.000 A 
ATOM      8  N   UNL     1       2.189   7.391  19.829  0.00  0.00    +0.000 N 
ATOM      9  C   UNL     1       2.373   7.125  18.496  0.00  0.00    +0.000 C 
ATOM     10  O   UNL     1       1.976   7.811  17.553  0.00  0.00    +0.000 OA
ATOM     11  N   UNL     1       1.396   9.578  19.510  0.00  0.00    +0.000 NA
ATOM     12  H   UNL     1       2.443   6.726  20.544  0.00  0.00    +0.000 HD
ENDROOT
BRANCH   9  13
ATOM     13  C   UNL     1       3.106   5.887  18.134  0.00  0.00    +0.000 A 
ATOM     14  C   UNL     1       4.258   6.074  17.337  0.00  0.00    +0.000 A 
ATOM     15  C   UNL     1       4.992   4.980  16.890  0.00  0.00    +0.000 A 
ATOM     16 BR   UNL     1       6.518   5.252  15.810  0.00  0.00    +0.000 Br
ATOM     17  C   UNL     1       4.595   3.689  17.220  0.00  0.00    +0.000 A 
ATOM     18  C   UNL     1       3.454   3.494  18.004  0.00  0.00    +0.000 A 
ATOM     19  C   UNL     1       2.707   4.587  18.460  0.00  0.00    +0.000 A 
ATOM     20 CL   UNL     1       1.278   4.224  19.363  0.00  0.00    +0.000 Cl
ENDBRANCH   9  13
TORSDOF 1
ENDMDL
MODEL 5
REMARK VINA RESULT:      -6.9      1.090      2.198
REMARK  Name = 
REMARK  3 active torsions:
REMARK  status: ('A' for Active; 'I' for Inactive)
REMARK    1  A    between atoms: C_1  and  C_2
REMARK    2  A    between atoms: C_4  and  C_5
REMARK    3  A    between atoms: C_9  and  C_11
REMARK                            x       y       z     vdW  Elec       q    Type
REMARK                         _______ _______ _______ _____ _____    ______ ____
ROOT
ATOM      1  C   UNL     1       1.670   7.763  20.608  0.00  0.00    +0.000 C 
ATOM      2  C   UNL     1       2.024   6.344  20.299  0.00  0.00    +0.000 A 
ATOM      3  C   UNL     1       1.471   5.281  20.972  0.00  0.00    +0.000 A 
ATOM      4  C   UNL     1       1.888   4.022  20.577  0.00  0.00    +0.000 A 
ATOM      5  C   UNL     1       1.328   2.802  21.250  0.00  0.00    +0.000 C 
ATOM      6  N   UNL     1       2.798   3.829  19.591  0.00  0.00    +0.000 NA
ATOM      7  C   UNL     1       3.252   4.930  18.972  0.00  0.00    +0.000 A 
ATOM      8  N   UNL     1       4.174   4.736  17.949  0.00  0.00    +0.000 N 
ATOM      9  C   UNL     1       4.464   5.679  16.996  0.00  0.00    +0.000 C 
ATOM     10  O   UNL     1       3.953   6.796  16.894  0.00  0.00    +0.000 OA
ATOM     11  N   UNL     1       2.907   6.174  19.305  0.00  0.00    +0.000 NA
ATOM     12  H   UNL     1       4.549   3.800  17.903  0.00  0.00    +0.000 HD
ENDROOT
BRANCH   9  13
ATOM     13  C   UNL     1       5.478   5.333  15.969  0.00  0.00    +0.000 A 
ATOM     14  C   UNL     1       4.985   4.648  14.836  0.00  0.00    +0.000 A 
ATOM     15  C   UNL     1       5.853   4.223  13.835  0.00  0.00    +0.000 A 
ATOM     16 BR   UNL     1       5.175   3.293  12.337  0.00  0.00    +0.000 Br
ATOM     17  C   UNL     1       7.218   4.466  13.944  0.00  0.00    +0.000 A 
ATOM     18  C   UNL     1       7.716   5.138  15.064  0.00  0.00    +0.000 A 
ATOM     19  C   UNL     1       6.851   5.570  16.078  0.00  0.00    +0.000 A 
ATOM     20 CL   UNL     1       7.585   6.330  17.447  0.00  0.00    +0.000 Cl
ENDBRANCH   9  13
TORSDOF 1
ENDMDL
MODEL 6
REMARK VINA RESULT:      -6.8      3.448      5.333
REMARK  Name = 
REMARK  3 active torsions:
REMARK  status: ('A' for Active; 'I' for Inactive)
REMARK    1  A    between atoms: C_1  and  C_2
REMARK    2  A    between atoms: C_4  and  C_5
REMARK    3  A    between atoms: C_9  and  C_11
REMARK                            x       y       z     vdW  Elec       q    Type
REMARK                         _______ _______ _______ _____ _____    ______ ____
ROOT
ATOM      1  C   UNL     1       1.178  12.260  19.026  0.00  0.00    +0.000 C 
ATOM      2  C   UNL     1       0.986  11.074  19.916  0.00  0.00    +0.000 A 
ATOM      3  C   UNL     1       0.299  11.143  21.103  0.00  0.00    +0.000 A 
ATOM      4  C   UNL     1       0.195   9.966  21.822  0.00  0.00    +0.000 A 
ATOM      5  C   UNL     1      -0.548   9.947  23.127  0.00  0.00    +0.000 C 
ATOM      6  N   UNL     1       0.743   8.801  21.398  0.00  0.00    +0.000 NA
ATOM      7  C   UNL     1       1.364   8.828  20.208  0.00  0.00    +0.000 A 
ATOM      8  N   UNL     1       1.914   7.632  19.762  0.00  0.00    +0.000 N 
ATOM      9  C   UNL     1       2.256   7.390  18.456  0.00  0.00    +0.000 C 
ATOM     10  O   UNL     1       2.113   8.166  17.509  0.00  0.00    +0.000 OA
ATOM     11  N   UNL     1       1.515   9.926  19.467  0.00  0.00    +0.000 NA
ATOM     12  H   UNL     1       1.953   6.908  20.465  0.00  0.00    +0.000 HD
ENDROOT
BRANCH   9  13
ATOM     13  C   UNL     1       2.841   6.067  18.129  0.00  0.00    +0.000 A 
ATOM     14  C   UNL     1       2.046   4.949  18.469  0.00  0.00    +0.000 A 
ATOM     15  C   UNL     1       2.517   3.658  18.261  0.00  0.00    +0.000 A 
ATOM     16 BR   UNL     1       1.444   2.178  18.738  0.00  0.00    +0.000 Br
ATOM     17  C   UNL     1       3.781   3.454  17.719  0.00  0.00    +0.000 A 
ATOM     18  C   UNL     1       4.578   4.552  17.385  0.00  0.00    +0.000 A 
ATOM     19  C   UNL     1       4.114   5.858  17.590  0.00  0.00    +0.000 A 
ATOM     20 CL   UNL     1       5.211   7.137  17.204  0.00  0.00    +0.000 Cl
ENDBRANCH   9  13
TORSDOF 1
ENDMDL
MODEL 7
REMARK VINA RESULT:      -6.8      4.183      6.074
REMARK  Name = 
REMARK  3 active torsions:
REMARK  status: ('A' for Active; 'I' for Inactive)
REMARK    1  A    between atoms: C_1  and  C_2
REMARK    2  A    between atoms: C_4  and  C_5
REMARK    3  A    between atoms: C_9  and  C_11
REMARK                            x       y       z     vdW  Elec       q    Type
REMARK                         _______ _______ _______ _____ _____    ______ ____
ROOT
ATOM      1  C   UNL     1       0.967  12.153  18.791  0.00  0.00    +0.000 C 
ATOM      2  C   UNL     1       0.717  11.177  19.895  0.00  0.00    +0.000 A 
ATOM      3  C   UNL     1      -0.075  11.473  20.978  0.00  0.00    +0.000 A 
ATOM      4  C   UNL     1      -0.223  10.472  21.922  0.00  0.00    +0.000 A 
ATOM      5  C   UNL     1      -1.079  10.705  23.134  0.00  0.00    +0.000 C 
ATOM      6  N   UNL     1       0.380   9.264  21.806  0.00  0.00    +0.000 NA
ATOM      7  C   UNL     1       1.105   9.060  20.695  0.00  0.00    +0.000 A 
ATOM      8  N   UNL     1       1.713   7.816  20.564  0.00  0.00    +0.000 N 
ATOM      9  C   UNL     1       2.174   7.315  19.374  0.00  0.00    +0.000 C 
ATOM     10  O   UNL     1       2.104   7.865  18.274  0.00  0.00    +0.000 OA
ATOM     11  N   UNL     1       1.303   9.979  19.750  0.00  0.00    +0.000 NA
ATOM     12  H   UNL     1       1.702   7.261  21.407  0.00  0.00    +0.000 HD
ENDROOT
BRANCH   9  13
ATOM     13  C   UNL     1       2.809   5.974  19.390  0.00  0.00    +0.000 A 
ATOM     14  C   UNL     1       2.218   5.032  20.261  0.00  0.00    +0.000 A 
ATOM     15  C   UNL     1       2.764   3.760  20.401  0.00  0.00    +0.000 A 
ATOM     16 BR   UNL     1       1.967   2.521  21.584  0.00  0.00    +0.000 Br
ATOM     17  C   UNL     1       3.902   3.405  19.686  0.00  0.00    +0.000 A 
ATOM     18  C   UNL     1       4.498   4.332  18.826  0.00  0.00    +0.000 A 
ATOM     19  C   UNL     1       3.957   5.616  18.677  0.00  0.00    +0.000 A 
ATOM     20 CL   UNL     1       4.816   6.700  17.639  0.00  0.00    +0.000 Cl
ENDBRANCH   9  13
TORSDOF 1
ENDMDL
MODEL 8
REMARK VINA RESULT:      -6.7      3.272      4.802
REMARK  Name = 
REMARK  3 active torsions:
REMARK  status: ('A' for Active; 'I' for Inactive)
REMARK    1  A    between atoms: C_1  and  C_2
REMARK    2  A    between atoms: C_4  and  C_5
REMARK    3  A    between atoms: C_9  and  C_11
REMARK                            x       y       z     vdW  Elec       q    Type
REMARK                         _______ _______ _______ _____ _____    ______ ____
ROOT
ATOM      1  C   UNL     1      -0.450   9.102  22.325  0.00  0.00    +0.000 C 
ATOM      2  C   UNL     1       0.218   9.518  21.054  0.00  0.00    +0.000 A 
ATOM      3  C   UNL     1       0.176  10.809  20.585  0.00  0.00    +0.000 A 
ATOM      4  C   UNL     1       0.843  11.052  19.397  0.00  0.00    +0.000 A 
ATOM      5  C   UNL     1       0.858  12.436  18.816  0.00  0.00    +0.000 C 
ATOM      6  N   UNL     1       1.497  10.081  18.715  0.00  0.00    +0.000 NA
ATOM      7  C   UNL     1       1.509   8.860  19.274  0.00  0.00    +0.000 A 
ATOM      8  N   UNL     1       2.193   7.864  18.585  0.00  0.00    +0.000 N 
ATOM      9  C   UNL     1       2.606   6.688  19.158  0.00  0.00    +0.000 C 
ATOM     10  O   UNL     1       2.457   6.357  20.335  0.00  0.00    +0.000 OA
ATOM     11  N   UNL     1       0.880   8.548  20.407  0.00  0.00    +0.000 NA
ATOM     12  H   UNL     1       2.451   8.116  17.642  0.00  0.00    +0.000 HD
ENDROOT
BRANCH   9  13
ATOM     13  C   UNL     1       3.319   5.714  18.295  0.00  0.00    +0.000 A 
ATOM     14  C   UNL     1       4.607   6.108  17.868  0.00  0.00    +0.000 A 
ATOM     15  C   UNL     1       5.345   5.300  17.010  0.00  0.00    +0.000 A 
ATOM     16 BR   UNL     1       7.058   5.855  16.438  0.00  0.00    +0.000 Br
ATOM     17  C   UNL     1       4.819   4.094  16.560  0.00  0.00    +0.000 A 
ATOM     18  C   UNL     1       3.543   3.698  16.972  0.00  0.00    +0.000 A 
ATOM     19  C   UNL     1       2.790   4.504  17.836  0.00  0.00    +0.000 A 
ATOM     20 CL   UNL     1       1.201   3.946  18.225  0.00  0.00    +0.000 Cl
ENDBRANCH   9  13
TORSDOF 1
ENDMDL
MODEL 9
REMARK VINA RESULT:      -6.6      3.807      5.787
REMARK  Name = 
REMARK  3 active torsions:
REMARK  status: ('A' for Active; 'I' for Inactive)
REMARK    1  A    between atoms: C_1  and  C_2
REMARK    2  A    between atoms: C_4  and  C_5
REMARK    3  A    between atoms: C_9  and  C_11
REMARK                            x       y       z     vdW  Elec       q    Type
REMARK                         _______ _______ _______ _____ _____    ______ ____
ROOT
ATOM      1  C   UNL     1       0.252  12.753  18.719  0.00  0.00    +0.000 C 
ATOM      2  C   UNL     1       0.242  11.668  19.747  0.00  0.00    +0.000 A 
ATOM      3  C   UNL     1      -0.448  11.777  20.931  0.00  0.00    +0.000 A 
ATOM      4  C   UNL     1      -0.372  10.693  21.787  0.00  0.00    +0.000 A 
ATOM      5  C   UNL     1      -1.104  10.721  23.098  0.00  0.00    +0.000 C 
ATOM      6  N   UNL     1       0.346   9.581  21.496  0.00  0.00    +0.000 NA
ATOM      7  C   UNL     1       0.956   9.557  20.300  0.00  0.00    +0.000 A 
ATOM      8  N   UNL     1       1.681   8.412  19.991  0.00  0.00    +0.000 N 
ATOM      9  C   UNL     1       2.055   8.068  18.717  0.00  0.00    +0.000 C 
ATOM     10  O   UNL     1       1.797   8.692  17.687  0.00  0.00    +0.000 OA
ATOM     11  N   UNL     1       0.939  10.567  19.430  0.00  0.00    +0.000 NA
ATOM     12  H   UNL     1       1.830   7.793  20.774  0.00  0.00    +0.000 HD
ENDROOT
BRANCH   9  13
ATOM     13  C   UNL     1       2.835   6.818  18.540  0.00  0.00    +0.000 A 
ATOM     14  C   UNL     1       3.716   6.803  17.436  0.00  0.00    +0.000 A 
ATOM     15  C   UNL     1       4.456   5.663  17.139  0.00  0.00    +0.000 A 
ATOM     16 BR   UNL     1       5.615   5.659  15.647  0.00  0.00    +0.000 Br
ATOM     17  C   UNL     1       4.331   4.524  17.925  0.00  0.00    +0.000 A 
ATOM     18  C   UNL     1       3.458   4.527  19.017  0.00  0.00    +0.000 A 
ATOM     19  C   UNL     1       2.707   5.669  19.326  0.00  0.00    +0.000 A 
ATOM     20 CL   UNL     1       1.611   5.536  20.656  0.00  0.00    +0.000 Cl
ENDBRANCH   9  13
TORSDOF 1
ENDMDL
