MODEL 1
REMARK VINA RESULT:      -7.9      0.000      0.000
REMARK  Name = 
REMARK  8 active torsions:
REMARK  status: ('A' for Active; 'I' for Inactive)
REMARK    1  A    between atoms: C_1  and  C_2
REMARK    2  A    between atoms: C_3  and  O_4
REMARK    3  A    between atoms: C_8  and  O_9
REMARK    4  A    between atoms: N_14  and  C_15
REMARK    5  A    between atoms: C_15  and  C_16
REMARK    6  A    between atoms: C_16  and  C_17
REMARK    7  A    between atoms: C_17  and  C_18
REMARK    8  A    between atoms: C_18  and  C_19
REMARK                            x       y       z     vdW  Elec       q    Type
REMARK                         _______ _______ _______ _____ _____    ______ ____
ROOT
ATOM      1  C   UNL     1       1.621   3.610  18.005  0.00  0.00    +0.000 C 
ATOM      2  C   UNL     1       2.992   4.302  18.061  0.00  0.00    +0.000 C 
ATOM      3  C   UNL     1       4.026   3.191  17.681  0.00  0.00    +0.000 C 
ATOM      4  C   UNL     1       5.139   3.784  16.852  0.00  0.00    +0.000 A 
ATOM      5  C   UNL     1       5.176   3.515  15.471  0.00  0.00    +0.000 A 
ATOM      6  C   UNL     1       6.123   4.125  14.652  0.00  0.00    +0.000 A 
ATOM      7  C   UNL     1       7.042   4.997  15.219  0.00  0.00    +0.000 A 
ATOM      8  C   UNL     1       7.016   5.285  16.581  0.00  0.00    +0.000 A 
ATOM      9  C   UNL     1       6.045   4.699  17.407  0.00  0.00    +0.000 A 
ATOM     10  C   UNL     1       5.945   5.083  18.864  0.00  0.00    +0.000 C 
ATOM     11  C   UNL     1       4.612   5.770  19.237  0.00  0.00    +0.000 C 
ATOM     12  N   UNL     1       3.348   4.960  19.368  0.00  0.00    +0.000 NA
ENDROOT
BRANCH   3  13
ATOM     13  O   UNL     1       4.519   2.517  18.841  0.00  0.00    +0.000 OA
ATOM     14  H   UNL     1       5.462   2.344  18.644  0.00  0.00    +0.000 HD
ENDBRANCH   3  13
BRANCH   7  15
ATOM     15  O   UNL     1       7.987   5.615  14.454  0.00  0.00    +0.000 OA
ATOM     16  H   UNL     1       8.375   4.957  13.855  0.00  0.00    +0.000 HD
ENDBRANCH   7  15
BRANCH  12  17
ATOM     17  C   UNL     1       2.306   5.906  19.860  0.00  0.00    +0.000 C 
BRANCH  17  18
ATOM     18  C   UNL     1       2.434   7.396  19.497  0.00  0.00    +0.000 C 
BRANCH  18  19
ATOM     19  C   UNL     1       2.007   7.741  18.073  0.00  0.00    +0.000 C 
BRANCH  19  20
ATOM     20  C   UNL     1       2.055   9.245  17.836  0.00  0.00    +0.000 C 
BRANCH  20  21
ATOM     21  C   UNL     1       0.846   9.935  18.401  0.00  0.00    +0.000 A 
ATOM     22  C   UNL     1      -0.410   9.735  17.816  0.00  0.00    +0.000 A 
ATOM     23  C   UNL     1      -1.538  10.363  18.345  0.00  0.00    +0.000 A 
ATOM     24  C   UNL     1      -1.414  11.201  19.452  0.00  0.00    +0.000 A 
ATOM     25  C   UNL     1      -0.162  11.421  20.026  0.00  0.00    +0.000 A 
ATOM     26  C   UNL     1       0.966  10.794  19.501  0.00  0.00    +0.000 A 
ENDBRANCH  20  21
ENDBRANCH  19  20
ENDBRANCH  18  19
ENDBRANCH  17  18
ENDBRANCH  12  17
TORSDOF 7
ENDMDL
MODEL 2
REMARK VINA RESULT:      -7.9      0.216      1.009
REMARK  Name = 
REMARK  8 active torsions:
REMARK  status: ('A' for Active; 'I' for Inactive)
REMARK    1  A    between atoms: C_1  and  C_2
REMARK    2  A    between atoms: C_3  and  O_4
REMARK    3  A    between atoms: C_8  and  O_9
REMARK    4  A    between atoms: N_14  and  C_15
REMARK    5  A    between atoms: C_15  and  C_16
REMARK    6  A    between atoms: C_16  and  C_17
REMARK    7  A    between atoms: C_17  and  C_18
REMARK    8  A    between atoms: C_18  and  C_19
REMARK                            x       y       z     vdW  Elec       q    Type
REMARK                         _______ _______ _______ _____ _____    ______ ____
ROOT
ATOM      1  C   UNL     1       1.526   3.795  17.773  0.00  0.00    +0.000 C 
ATOM      2  C   UNL     1       2.939   4.391  17.877  0.00  0.00    +0.000 C 
ATOM      3  C   UNL     1       3.902   3.244  17.427  0.00  0.00    +0.000 C 
ATOM      4  C   UNL     1       5.055   3.816  16.641  0.00  0.00    +0.000 A 
ATOM      5  C   UNL     1       5.083   3.635  15.245  0.00  0.00    +0.000 A 
ATOM      6  C   UNL     1       6.072   4.235  14.469  0.00  0.00    +0.000 A 
ATOM      7  C   UNL     1       7.043   5.007  15.094  0.00  0.00    +0.000 A 
ATOM      8  C   UNL     1       7.027   5.206  16.472  0.00  0.00    +0.000 A 
ATOM      9  C   UNL     1       6.015   4.632  17.256  0.00  0.00    +0.000 A 
ATOM     10  C   UNL     1       5.931   4.926  18.735  0.00  0.00    +0.000 C 
ATOM     11  C   UNL     1       4.642   5.673  19.149  0.00  0.00    +0.000 C 
ATOM     12  N   UNL     1       3.328   4.939  19.225  0.00  0.00    +0.000 NA
ENDROOT
BRANCH   3  13
ATOM     13  O   UNL     1       4.342   2.465  18.541  0.00  0.00    +0.000 OA
ATOM     14  H   UNL     1       3.804   2.785  19.294  0.00  0.00    +0.000 HD
ENDBRANCH   3  13
BRANCH   7  15
ATOM     15  O   UNL     1       8.030   5.611  14.373  0.00  0.00    +0.000 OA
ATOM     16  H   UNL     1       8.463   4.939  13.822  0.00  0.00    +0.000 HD
ENDBRANCH   7  15
BRANCH  12  17
ATOM     17  C   UNL     1       2.347   5.916  19.775  0.00  0.00    +0.000 C 
BRANCH  17  18
ATOM     18  C   UNL     1       2.528   7.408  19.445  0.00  0.00    +0.000 C 
BRANCH  18  19
ATOM     19  C   UNL     1       1.897   7.846  18.125  0.00  0.00    +0.000 C 
BRANCH  19  20
ATOM     20  C   UNL     1       1.965   9.359  17.962  0.00  0.00    +0.000 C 
BRANCH  20  21
ATOM     21  C   UNL     1       0.697  10.024  18.420  0.00  0.00    +0.000 A 
ATOM     22  C   UNL     1       0.717  10.875  19.532  0.00  0.00    +0.000 A 
ATOM     23  C   UNL     1      -0.455  11.504  19.954  0.00  0.00    +0.000 A 
ATOM     24  C   UNL     1      -1.650  11.280  19.273  0.00  0.00    +0.000 A 
ATOM     25  C   UNL     1      -1.680  10.417  18.177  0.00  0.00    +0.000 A 
ATOM     26  C   UNL     1      -0.511   9.787  17.753  0.00  0.00    +0.000 A 
ENDBRANCH  20  21
ENDBRANCH  19  20
ENDBRANCH  18  19
ENDBRANCH  17  18
ENDBRANCH  12  17
TORSDOF 7
ENDMDL
MODEL 3
REMARK VINA RESULT:      -7.8      1.479      1.839
REMARK  Name = 
REMARK  8 active torsions:
REMARK  status: ('A' for Active; 'I' for Inactive)
REMARK    1  A    between atoms: C_1  and  C_2
REMARK    2  A    between atoms: C_3  and  O_4
REMARK    3  A    between atoms: C_8  and  O_9
REMARK    4  A    between atoms: N_14  and  C_15
REMARK    5  A    between atoms: C_15  and  C_16
REMARK    6  A    between atoms: C_16  and  C_17
REMARK    7  A    between atoms: C_17  and  C_18
REMARK    8  A    between atoms: C_18  and  C_19
REMARK                            x       y       z     vdW  Elec       q    Type
REMARK                         _______ _______ _______ _____ _____    ______ ____
ROOT
ATOM      1  C   UNL     1       1.691   4.100  17.697  0.00  0.00    +0.000 C 
ATOM      2  C   UNL     1       3.114   4.681  17.695  0.00  0.00    +0.000 C 
ATOM      3  C   UNL     1       4.044   3.483  17.312  0.00  0.00    +0.000 C 
ATOM      4  C   UNL     1       5.173   3.965  16.436  0.00  0.00    +0.000 A 
ATOM      5  C   UNL     1       5.145   3.661  15.062  0.00  0.00    +0.000 A 
ATOM      6  C   UNL     1       6.111   4.175  14.200  0.00  0.00    +0.000 A 
ATOM      7  C   UNL     1       7.115   4.983  14.716  0.00  0.00    +0.000 A 
ATOM      8  C   UNL     1       7.154   5.303  16.071  0.00  0.00    +0.000 A 
ATOM      9  C   UNL     1       6.166   4.817  16.940  0.00  0.00    +0.000 A 
ATOM     10  C   UNL     1       6.144   5.241  18.389  0.00  0.00    +0.000 C 
ATOM     11  C   UNL     1       4.881   6.042  18.784  0.00  0.00    +0.000 C 
ATOM     12  N   UNL     1       3.561   5.339  18.973  0.00  0.00    +0.000 NA
ENDROOT
BRANCH   3  13
ATOM     13  O   UNL     1       4.518   2.798  18.474  0.00  0.00    +0.000 OA
ATOM     14  H   UNL     1       5.130   2.117  18.127  0.00  0.00    +0.000 HD
ENDBRANCH   3  13
BRANCH   7  15
ATOM     15  O   UNL     1       8.081   5.505  13.908  0.00  0.00    +0.000 OA
ATOM     16  H   UNL     1       8.343   6.371  14.263  0.00  0.00    +0.000 HD
ENDBRANCH   7  15
BRANCH  12  17
ATOM     17  C   UNL     1       2.615   6.376  19.471  0.00  0.00    +0.000 C 
BRANCH  17  18
ATOM     18  C   UNL     1       2.358   7.618  18.599  0.00  0.00    +0.000 C 
BRANCH  18  19
ATOM     19  C   UNL     1       1.619   8.749  19.311  0.00  0.00    +0.000 C 
BRANCH  19  20
ATOM     20  C   UNL     1       1.167   8.318  20.700  0.00  0.00    +0.000 C 
BRANCH  20  21
ATOM     21  C   UNL     1       0.330   9.375  21.364  0.00  0.00    +0.000 A 
ATOM     22  C   UNL     1      -0.163  10.450  20.614  0.00  0.00    +0.000 A 
ATOM     23  C   UNL     1      -0.951  11.427  21.223  0.00  0.00    +0.000 A 
ATOM     24  C   UNL     1      -1.241  11.339  22.583  0.00  0.00    +0.000 A 
ATOM     25  C   UNL     1      -0.736  10.283  23.340  0.00  0.00    +0.000 A 
ATOM     26  C   UNL     1       0.051   9.305  22.735  0.00  0.00    +0.000 A 
ENDBRANCH  20  21
ENDBRANCH  19  20
ENDBRANCH  18  19
ENDBRANCH  17  18
ENDBRANCH  12  17
TORSDOF 7
ENDMDL
MODEL 4
REMARK VINA RESULT:      -7.8      1.379      1.924
REMARK  Name = 
REMARK  8 active torsions:
REMARK  status: ('A' for Active; 'I' for Inactive)
REMARK    1  A    between atoms: C_1  and  C_2
REMARK    2  A    between atoms: C_3  and  O_4
REMARK    3  A    between atoms: C_8  and  O_9
REMARK    4  A    between atoms: N_14  and  C_15
REMARK    5  A    between atoms: C_15  and  C_16
REMARK    6  A    between atoms: C_16  and  C_17
REMARK    7  A    between atoms: C_17  and  C_18
REMARK    8  A    between atoms: C_18  and  C_19
REMARK                            x       y       z     vdW  Elec       q    Type
REMARK                         _______ _______ _______ _____ _____    ______ ____
ROOT
ATOM      1  C   UNL     1       1.462   3.389  18.112  0.00  0.00    +0.000 C 
ATOM      2  C   UNL     1       2.814   4.111  18.223  0.00  0.00    +0.000 C 
ATOM      3  C   UNL     1       3.882   3.043  17.819  0.00  0.00    +0.000 C 
ATOM      4  C   UNL     1       4.995   3.695  17.037  0.00  0.00    +0.000 A 
ATOM      5  C   UNL     1       5.065   3.483  15.647  0.00  0.00    +0.000 A 
ATOM      6  C   UNL     1       6.011   4.149  14.872  0.00  0.00    +0.000 A 
ATOM      7  C   UNL     1       6.898   5.019  15.492  0.00  0.00    +0.000 A 
ATOM      8  C   UNL     1       6.839   5.250  16.864  0.00  0.00    +0.000 A 
ATOM      9  C   UNL     1       5.867   4.609  17.646  0.00  0.00    +0.000 A 
ATOM     10  C   UNL     1       5.731   4.930  19.115  0.00  0.00    +0.000 C 
ATOM     11  C   UNL     1       4.374   5.569  19.489  0.00  0.00    +0.000 C 
ATOM     12  N   UNL     1       3.128   4.724  19.562  0.00  0.00    +0.000 NA
ENDROOT
BRANCH   3  13
ATOM     13  O   UNL     1       4.369   2.333  18.960  0.00  0.00    +0.000 OA
ATOM     14  H   UNL     1       5.343   2.335  18.855  0.00  0.00    +0.000 HD
ENDBRANCH   3  13
BRANCH   7  15
ATOM     15  O   UNL     1       7.842   5.691  14.772  0.00  0.00    +0.000 OA
ATOM     16  H   UNL     1       7.652   5.567  13.827  0.00  0.00    +0.000 HD
ENDBRANCH   7  15
BRANCH  12  17
ATOM     17  C   UNL     1       2.054   5.624  20.070  0.00  0.00    +0.000 C 
BRANCH  17  18
ATOM     18  C   UNL     1       2.170   7.134  19.802  0.00  0.00    +0.000 C 
BRANCH  18  19
ATOM     19  C   UNL     1       1.429   8.015  20.806  0.00  0.00    +0.000 C 
BRANCH  19  20
ATOM     20  C   UNL     1       0.912   9.285  20.141  0.00  0.00    +0.000 C 
BRANCH  20  21
ATOM     21  C   UNL     1       0.049  10.087  21.074  0.00  0.00    +0.000 A 
ATOM     22  C   UNL     1      -0.163   9.644  22.385  0.00  0.00    +0.000 A 
ATOM     23  C   UNL     1      -0.954  10.392  23.258  0.00  0.00    +0.000 A 
ATOM     24  C   UNL     1      -1.543  11.577  22.822  0.00  0.00    +0.000 A 
ATOM     25  C   UNL     1      -1.353  12.013  21.511  0.00  0.00    +0.000 A 
ATOM     26  C   UNL     1      -0.563  11.269  20.637  0.00  0.00    +0.000 A 
ENDBRANCH  20  21
ENDBRANCH  19  20
ENDBRANCH  18  19
ENDBRANCH  17  18
ENDBRANCH  12  17
TORSDOF 7
ENDMDL
MODEL 5
REMARK VINA RESULT:      -7.6      4.655      7.263
REMARK  Name = 
REMARK  8 active torsions:
REMARK  status: ('A' for Active; 'I' for Inactive)
REMARK    1  A    between atoms: C_1  and  C_2
REMARK    2  A    between atoms: C_3  and  O_4
REMARK    3  A    between atoms: C_8  and  O_9
REMARK    4  A    between atoms: N_14  and  C_15
REMARK    5  A    between atoms: C_15  and  C_16
REMARK    6  A    between atoms: C_16  and  C_17
REMARK    7  A    between atoms: C_17  and  C_18
REMARK    8  A    between atoms: C_18  and  C_19
REMARK                            x       y       z     vdW  Elec       q    Type
REMARK                         _______ _______ _______ _____ _____    ______ ____
ROOT
ATOM      1  C   UNL     1       7.732   4.359  17.170  0.00  0.00    +0.000 C 
ATOM      2  C   UNL     1       6.359   4.949  17.530  0.00  0.00    +0.000 C 
ATOM      3  C   UNL     1       5.342   4.224  16.588  0.00  0.00    +0.000 C 
ATOM      4  C   UNL     1       4.049   3.969  17.322  0.00  0.00    +0.000 A 
ATOM      5  C   UNL     1       3.750   2.658  17.737  0.00  0.00    +0.000 A 
ATOM      6  C   UNL     1       2.620   2.396  18.508  0.00  0.00    +0.000 A 
ATOM      7  C   UNL     1       1.781   3.446  18.852  0.00  0.00    +0.000 A 
ATOM      8  C   UNL     1       2.064   4.752  18.460  0.00  0.00    +0.000 A 
ATOM      9  C   UNL     1       3.218   5.029  17.712  0.00  0.00    +0.000 A 
ATOM     10  C   UNL     1       3.586   6.452  17.369  0.00  0.00    +0.000 C 
ATOM     11  C   UNL     1       4.921   6.918  17.995  0.00  0.00    +0.000 C 
ATOM     12  N   UNL     1       6.235   6.446  17.427  0.00  0.00    +0.000 NA
ENDROOT
BRANCH   3  13
ATOM     13  O   UNL     1       5.140   4.956  15.377  0.00  0.00    +0.000 OA
ATOM     14  H   UNL     1       5.865   4.664  14.788  0.00  0.00    +0.000 HD
ENDBRANCH   3  13
BRANCH   7  15
ATOM     15  O   UNL     1       0.663   3.234  19.604  0.00  0.00    +0.000 OA
ATOM     16  H   UNL     1       0.735   3.760  20.417  0.00  0.00    +0.000 HD
ENDBRANCH   7  15
BRANCH  12  17
ATOM     17  C   UNL     1       7.291   7.183  18.175  0.00  0.00    +0.000 C 
BRANCH  17  18
ATOM     18  C   UNL     1       8.137   8.225  17.421  0.00  0.00    +0.000 C 
BRANCH  18  19
ATOM     19  C   UNL     1       8.055   9.639  17.989  0.00  0.00    +0.000 C 
BRANCH  19  20
ATOM     20  C   UNL     1       8.945   9.788  19.217  0.00  0.00    +0.000 C 
BRANCH  20  21
ATOM     21  C   UNL     1       9.986  10.854  19.023  0.00  0.00    +0.000 A 
ATOM     22  C   UNL     1      10.713  11.329  20.122  0.00  0.00    +0.000 A 
ATOM     23  C   UNL     1      11.690  12.309  19.945  0.00  0.00    +0.000 A 
ATOM     24  C   UNL     1      11.937  12.825  18.674  0.00  0.00    +0.000 A 
ATOM     25  C   UNL     1      11.202  12.371  17.579  0.00  0.00    +0.000 A 
ATOM     26  C   UNL     1      10.226  11.391  17.752  0.00  0.00    +0.000 A 
ENDBRANCH  20  21
ENDBRANCH  19  20
ENDBRANCH  18  19
ENDBRANCH  17  18
ENDBRANCH  12  17
TORSDOF 7
ENDMDL
MODEL 6
REMARK VINA RESULT:      -7.5      4.578      7.260
REMARK  Name = 
REMARK  8 active torsions:
REMARK  status: ('A' for Active; 'I' for Inactive)
REMARK    1  A    between atoms: C_1  and  C_2
REMARK    2  A    between atoms: C_3  and  O_4
REMARK    3  A    between atoms: C_8  and  O_9
REMARK    4  A    between atoms: N_14  and  C_15
REMARK    5  A    between atoms: C_15  and  C_16
REMARK    6  A    between atoms: C_16  and  C_17
REMARK    7  A    between atoms: C_17  and  C_18
REMARK    8  A    between atoms: C_18  and  C_19
REMARK                            x       y       z     vdW  Elec       q    Type
REMARK                         _______ _______ _______ _____ _____    ______ ____
ROOT
ATOM      1  C   UNL     1       7.636   5.183  18.691  0.00  0.00    +0.000 C 
ATOM      2  C   UNL     1       6.110   5.296  18.546  0.00  0.00    +0.000 C 
ATOM      3  C   UNL     1       5.623   3.848  18.213  0.00  0.00    +0.000 C 
ATOM      4  C   UNL     1       4.300   3.581  18.888  0.00  0.00    +0.000 A 
ATOM      5  C   UNL     1       4.270   2.736  20.013  0.00  0.00    +0.000 A 
ATOM      6  C   UNL     1       3.090   2.546  20.729  0.00  0.00    +0.000 A 
ATOM      7  C   UNL     1       1.935   3.192  20.309  0.00  0.00    +0.000 A 
ATOM      8  C   UNL     1       1.947   4.039  19.204  0.00  0.00    +0.000 A 
ATOM      9  C   UNL     1       3.139   4.262  18.498  0.00  0.00    +0.000 A 
ATOM     10  C   UNL     1       3.183   5.256  17.362  0.00  0.00    +0.000 C 
ATOM     11  C   UNL     1       4.120   6.457  17.622  0.00  0.00    +0.000 C 
ATOM     12  N   UNL     1       5.616   6.291  17.529  0.00  0.00    +0.000 NA
ENDROOT
BRANCH   3  13
ATOM     13  O   UNL     1       5.562   3.629  16.801  0.00  0.00    +0.000 OA
ATOM     14  H   UNL     1       5.610   2.656  16.700  0.00  0.00    +0.000 HD
ENDBRANCH   3  13
BRANCH   7  15
ATOM     15  O   UNL     1       0.759   3.033  20.979  0.00  0.00    +0.000 OA
ATOM     16  H   UNL     1       0.892   3.302  21.902  0.00  0.00    +0.000 HD
ENDBRANCH   7  15
BRANCH  12  17
ATOM     17  C   UNL     1       6.189   7.655  17.704  0.00  0.00    +0.000 C 
BRANCH  17  18
ATOM     18  C   UNL     1       7.685   7.867  17.414  0.00  0.00    +0.000 C 
BRANCH  18  19
ATOM     19  C   UNL     1       8.405   8.765  18.418  0.00  0.00    +0.000 C 
BRANCH  19  20
ATOM     20  C   UNL     1       8.552  10.182  17.877  0.00  0.00    +0.000 C 
BRANCH  20  21
ATOM     21  C   UNL     1       9.684  10.915  18.539  0.00  0.00    +0.000 A 
ATOM     22  C   UNL     1       9.703  11.061  19.932  0.00  0.00    +0.000 A 
ATOM     23  C   UNL     1      10.759  11.729  20.553  0.00  0.00    +0.000 A 
ATOM     24  C   UNL     1      11.793  12.261  19.785  0.00  0.00    +0.000 A 
ATOM     25  C   UNL     1      11.769  12.138  18.396  0.00  0.00    +0.000 A 
ATOM     26  C   UNL     1      10.716  11.470  17.773  0.00  0.00    +0.000 A 
ENDBRANCH  20  21
ENDBRANCH  19  20
ENDBRANCH  18  19
ENDBRANCH  17  18
ENDBRANCH  12  17
TORSDOF 7
ENDMDL
MODEL 7
REMARK VINA RESULT:      -7.4      4.812      7.330
REMARK  Name = 
REMARK  8 active torsions:
REMARK  status: ('A' for Active; 'I' for Inactive)
REMARK    1  A    between atoms: C_1  and  C_2
REMARK    2  A    between atoms: C_3  and  O_4
REMARK    3  A    between atoms: C_8  and  O_9
REMARK    4  A    between atoms: N_14  and  C_15
REMARK    5  A    between atoms: C_15  and  C_16
REMARK    6  A    between atoms: C_16  and  C_17
REMARK    7  A    between atoms: C_17  and  C_18
REMARK    8  A    between atoms: C_18  and  C_19
REMARK                            x       y       z     vdW  Elec       q    Type
REMARK                         _______ _______ _______ _____ _____    ______ ____
ROOT
ATOM      1  C   UNL     1       7.695   4.324  16.913  0.00  0.00    +0.000 C 
ATOM      2  C   UNL     1       6.377   5.007  17.312  0.00  0.00    +0.000 C 
ATOM      3  C   UNL     1       5.263   4.231  16.536  0.00  0.00    +0.000 C 
ATOM      4  C   UNL     1       4.026   4.110  17.391  0.00  0.00    +0.000 A 
ATOM      5  C   UNL     1       3.717   2.864  17.968  0.00  0.00    +0.000 A 
ATOM      6  C   UNL     1       2.645   2.734  18.848  0.00  0.00    +0.000 A 
ATOM      7  C   UNL     1       1.873   3.850  19.141  0.00  0.00    +0.000 A 
ATOM      8  C   UNL     1       2.168   5.093  18.588  0.00  0.00    +0.000 A 
ATOM      9  C   UNL     1       3.266   5.240  17.727  0.00  0.00    +0.000 A 
ATOM     10  C   UNL     1       3.654   6.602  17.204  0.00  0.00    +0.000 C 
ATOM     11  C   UNL     1       5.050   7.074  17.670  0.00  0.00    +0.000 C 
ATOM     12  N   UNL     1       6.296   6.489  17.057  0.00  0.00    +0.000 NA
ENDROOT
BRANCH   3  13
ATOM     13  O   UNL     1       4.987   4.839  15.272  0.00  0.00    +0.000 OA
ATOM     14  H   UNL     1       4.453   4.175  14.790  0.00  0.00    +0.000 HD
ENDBRANCH   3  13
BRANCH   7  15
ATOM     15  O   UNL     1       0.814   3.766  19.995  0.00  0.00    +0.000 OA
ATOM     16  H   UNL     1       1.156   3.675  20.899  0.00  0.00    +0.000 HD
ENDBRANCH   7  15
BRANCH  12  17
ATOM     17  C   UNL     1       7.435   7.255  17.636  0.00  0.00    +0.000 C 
BRANCH  17  18
ATOM     18  C   UNL     1       7.319   8.786  17.733  0.00  0.00    +0.000 C 
BRANCH  18  19
ATOM     19  C   UNL     1       8.656   9.525  17.722  0.00  0.00    +0.000 C 
BRANCH  19  20
ATOM     20  C   UNL     1       8.984  10.081  19.102  0.00  0.00    +0.000 C 
BRANCH  20  21
ATOM     21  C   UNL     1      10.118  11.067  19.047  0.00  0.00    +0.000 A 
ATOM     22  C   UNL     1      10.688  11.409  17.815  0.00  0.00    +0.000 A 
ATOM     23  C   UNL     1      11.732  12.333  17.758  0.00  0.00    +0.000 A 
ATOM     24  C   UNL     1      12.215  12.910  18.931  0.00  0.00    +0.000 A 
ATOM     25  C   UNL     1      11.666  12.557  20.163  0.00  0.00    +0.000 A 
ATOM     26  C   UNL     1      10.623  11.635  20.223  0.00  0.00    +0.000 A 
ENDBRANCH  20  21
ENDBRANCH  19  20
ENDBRANCH  18  19
ENDBRANCH  17  18
ENDBRANCH  12  17
TORSDOF 7
ENDMDL
MODEL 8
REMARK VINA RESULT:      -7.4      1.383      1.787
REMARK  Name = 
REMARK  8 active torsions:
REMARK  status: ('A' for Active; 'I' for Inactive)
REMARK    1  A    between atoms: C_1  and  C_2
REMARK    2  A    between atoms: C_3  and  O_4
REMARK    3  A    between atoms: C_8  and  O_9
REMARK    4  A    between atoms: N_14  and  C_15
REMARK    5  A    between atoms: C_15  and  C_16
REMARK    6  A    between atoms: C_16  and  C_17
REMARK    7  A    between atoms: C_17  and  C_18
REMARK    8  A    between atoms: C_18  and  C_19
REMARK                            x       y       z     vdW  Elec       q    Type
REMARK                         _______ _______ _______ _____ _____    ______ ____
ROOT
ATOM      1  C   UNL     1       2.142   3.763  17.896  0.00  0.00    +0.000 C 
ATOM      2  C   UNL     1       3.378   4.629  17.606  0.00  0.00    +0.000 C 
ATOM      3  C   UNL     1       4.561   3.617  17.459  0.00  0.00    +0.000 C 
ATOM      4  C   UNL     1       5.509   4.085  16.383  0.00  0.00    +0.000 A 
ATOM      5  C   UNL     1       5.514   3.418  15.143  0.00  0.00    +0.000 A 
ATOM      6  C   UNL     1       6.296   3.881  14.088  0.00  0.00    +0.000 A 
ATOM      7  C   UNL     1       7.086   5.007  14.279  0.00  0.00    +0.000 A 
ATOM      8  C   UNL     1       7.088   5.686  15.494  0.00  0.00    +0.000 A 
ATOM      9  C   UNL     1       6.277   5.245  16.551  0.00  0.00    +0.000 A 
ATOM     10  C   UNL     1       6.197   6.034  17.836  0.00  0.00    +0.000 C 
ATOM     11  C   UNL     1       4.790   6.602  18.130  0.00  0.00    +0.000 C 
ATOM     12  N   UNL     1       3.689   5.697  18.622  0.00  0.00    +0.000 NA
ENDROOT
BRANCH   3  13
ATOM     13  O   UNL     1       5.224   3.404  18.707  0.00  0.00    +0.000 OA
ATOM     14  H   UNL     1       4.673   2.740  19.169  0.00  0.00    +0.000 HD
ENDBRANCH   3  13
BRANCH   7  15
ATOM     15  O   UNL     1       7.868   5.494  13.274  0.00  0.00    +0.000 OA
ATOM     16  H   UNL     1       7.619   6.418  13.111  0.00  0.00    +0.000 HD
ENDBRANCH   7  15
BRANCH  12  17
ATOM     17  C   UNL     1       2.533   6.586  18.923  0.00  0.00    +0.000 C 
BRANCH  17  18
ATOM     18  C   UNL     1       2.173   7.693  17.917  0.00  0.00    +0.000 C 
BRANCH  18  19
ATOM     19  C   UNL     1       2.093   9.094  18.519  0.00  0.00    +0.000 C 
BRANCH  19  20
ATOM     20  C   UNL     1       0.645   9.546  18.662  0.00  0.00    +0.000 C 
BRANCH  20  21
ATOM     21  C   UNL     1       0.283   9.804  20.097  0.00  0.00    +0.000 A 
ATOM     22  C   UNL     1      -0.496  10.919  20.432  0.00  0.00    +0.000 A 
ATOM     23  C   UNL     1      -0.845  11.156  21.762  0.00  0.00    +0.000 A 
ATOM     24  C   UNL     1      -0.410  10.288  22.761  0.00  0.00    +0.000 A 
ATOM     25  C   UNL     1       0.383   9.188  22.437  0.00  0.00    +0.000 A 
ATOM     26  C   UNL     1       0.733   8.948  21.109  0.00  0.00    +0.000 A 
ENDBRANCH  20  21
ENDBRANCH  19  20
ENDBRANCH  18  19
ENDBRANCH  17  18
ENDBRANCH  12  17
TORSDOF 7
ENDMDL
MODEL 9
REMARK VINA RESULT:      -7.3      0.993      1.619
REMARK  Name = 
REMARK  8 active torsions:
REMARK  status: ('A' for Active; 'I' for Inactive)
REMARK    1  A    between atoms: C_1  and  C_2
REMARK    2  A    between atoms: C_3  and  O_4
REMARK    3  A    between atoms: C_8  and  O_9
REMARK    4  A    between atoms: N_14  and  C_15
REMARK    5  A    between atoms: C_15  and  C_16
REMARK    6  A    between atoms: C_16  and  C_17
REMARK    7  A    between atoms: C_17  and  C_18
REMARK    8  A    between atoms: C_18  and  C_19
REMARK                            x       y       z     vdW  Elec       q    Type
REMARK                         _______ _______ _______ _____ _____    ______ ____
ROOT
ATOM      1  C   UNL     1       1.922   4.107  17.637  0.00  0.00    +0.000 C 
ATOM      2  C   UNL     1       3.251   4.860  17.469  0.00  0.00    +0.000 C 
ATOM      3  C   UNL     1       4.342   3.744  17.357  0.00  0.00    +0.000 C 
ATOM      4  C   UNL     1       5.404   4.158  16.369  0.00  0.00    +0.000 A 
ATOM      5  C   UNL     1       5.434   3.540  15.105  0.00  0.00    +0.000 A 
ATOM      6  C   UNL     1       6.329   3.964  14.126  0.00  0.00    +0.000 A 
ATOM      7  C   UNL     1       7.205   5.001  14.418  0.00  0.00    +0.000 A 
ATOM      8  C   UNL     1       7.185   5.631  15.659  0.00  0.00    +0.000 A 
ATOM      9  C   UNL     1       6.263   5.232  16.639  0.00  0.00    +0.000 A 
ATOM     10  C   UNL     1       6.166   5.976  17.949  0.00  0.00    +0.000 C 
ATOM     11  C   UNL     1       4.801   6.667  18.172  0.00  0.00    +0.000 C 
ATOM     12  N   UNL     1       3.588   5.854  18.549  0.00  0.00    +0.000 NA
ENDROOT
BRANCH   3  13
ATOM     13  O   UNL     1       4.892   3.422  18.637  0.00  0.00    +0.000 OA
ATOM     14  H   UNL     1       4.536   2.533  18.842  0.00  0.00    +0.000 HD
ENDBRANCH   3  13
BRANCH   7  15
ATOM     15  O   UNL     1       8.099   5.446  13.490  0.00  0.00    +0.000 OA
ATOM     16  H   UNL     1       8.561   6.218  13.855  0.00  0.00    +0.000 HD
ENDBRANCH   7  15
BRANCH  12  17
ATOM     17  C   UNL     1       2.502   6.839  18.811  0.00  0.00    +0.000 C 
BRANCH  17  18
ATOM     18  C   UNL     1       2.615   8.243  18.191  0.00  0.00    +0.000 C 
BRANCH  18  19
ATOM     19  C   UNL     1       1.279   8.887  17.831  0.00  0.00    +0.000 C 
BRANCH  19  20
ATOM     20  C   UNL     1       0.743   9.719  18.989  0.00  0.00    +0.000 C 
BRANCH  20  21
ATOM     21  C   UNL     1      -0.586  10.338  18.660  0.00  0.00    +0.000 A 
ATOM     22  C   UNL     1      -1.091  11.375  19.456  0.00  0.00    +0.000 A 
ATOM     23  C   UNL     1      -2.318  11.961  19.147  0.00  0.00    +0.000 A 
ATOM     24  C   UNL     1      -3.050  11.509  18.051  0.00  0.00    +0.000 A 
ATOM     25  C   UNL     1      -2.563  10.463  17.267  0.00  0.00    +0.000 A 
ATOM     26  C   UNL     1      -1.336   9.876  17.572  0.00  0.00    +0.000 A 
ENDBRANCH  20  21
ENDBRANCH  19  20
ENDBRANCH  18  19
ENDBRANCH  17  18
ENDBRANCH  12  17
TORSDOF 7
ENDMDL
