MODEL 1
REMARK VINA RESULT:      -8.2      0.000      0.000
REMARK  Name = 
REMARK  10 active torsions:
REMARK  status: ('A' for Active; 'I' for Inactive)
REMARK    1  A    between atoms: C_1  and  C_2
REMARK    2  A    between atoms: C_2  and  O_3
REMARK    3  A    between atoms: C_2  and  C_4
REMARK    4  A    between atoms: C_4  and  N_5
REMARK    5  A    between atoms: N_9  and  C_10
REMARK    6  A    between atoms: C_10  and  C_11
REMARK    7  A    between atoms: C_11  and  C_12
REMARK    8  A    between atoms: C_11  and  O_13
REMARK    9  A    between atoms: C_15  and  C_16
REMARK   10  A    between atoms: C_20  and  C_21
REMARK                            x       y       z     vdW  Elec       q    Type
REMARK                         _______ _______ _______ _____ _____    ______ ____
ROOT
ATOM      1  N   UNL     1       3.178   2.781  19.245  0.00  0.00    +0.000 N 
ATOM      2  C   UNL     1       3.624   4.010  18.780  0.00  0.00    +0.000 A 
ATOM      3  N   UNL     1       4.828   4.035  18.228  0.00  0.00    +0.000 NA
ATOM      4  C   UNL     1       5.269   5.225  17.834  0.00  0.00    +0.000 A 
ATOM      5  N   UNL     1       6.551   5.347  17.323  0.00  0.00    +0.000 N 
ATOM      6  N   UNL     1       4.567   6.345  17.921  0.00  0.00    +0.000 NA
ATOM      7  C   UNL     1       3.356   6.223  18.481  0.00  0.00    +0.000 A 
ATOM      8  N   UNL     1       2.849   5.070  18.914  0.00  0.00    +0.000 NA
ATOM      9  H   UNL     1       3.741   2.043  18.835  0.00  0.00    +0.000 HD
ATOM     10  H   UNL     1       6.664   6.245  16.863  0.00  0.00    +0.000 HD
ENDROOT
BRANCH   7  11
ATOM     11  C   UNL     1       2.529   7.445  18.654  0.00  0.00    +0.000 A 
ATOM     12  C   UNL     1       2.376   8.381  17.630  0.00  0.00    +0.000 A 
ATOM     13  C   UNL     1       1.625   9.533  17.857  0.00  0.00    +0.000 A 
ATOM     14  C   UNL     1       1.039   9.736  19.099  0.00  0.00    +0.000 A 
ATOM     15  C   UNL     1       1.204   8.772  20.092  0.00  0.00    +0.000 A 
ATOM     16  N   UNL     1       1.934   7.638  19.869  0.00  0.00    +0.000 NA
BRANCH  15  17
ATOM     17  C   UNL     1       0.567   8.983  21.462  0.00  0.00    +0.000 C 
ATOM     18  F   UNL     1      -0.515   8.174  21.679  0.00  0.00    +0.000 F 
ATOM     19  F   UNL     1       1.420   8.724  22.494  0.00  0.00    +0.000 F 
ATOM     20  F   UNL     1       0.110  10.253  21.658  0.00  0.00    +0.000 F 
ENDBRANCH  15  17
ENDBRANCH   7  11
BRANCH   1  21
ATOM     21  C   UNL     1       1.737   2.586  19.150  0.00  0.00    +0.000 C 
BRANCH  21  23
ATOM     22  C   UNL     1       2.087   2.668  21.650  0.00  0.00    +0.000 C 
ATOM     23  C   UNL     1       1.083   2.851  20.519  0.00  0.00    +0.000 C 
BRANCH  23  24
ATOM     24  O   UNL     1       0.565   4.187  20.571  0.00  0.00    +0.000 OA
ATOM     25  H   UNL     1       1.230   4.747  21.003  0.00  0.00    +0.000 HD
ENDBRANCH  23  24
ENDBRANCH  21  23
ENDBRANCH   1  21
BRANCH   5  26
ATOM     26  C   UNL     1       7.087   4.200  16.605  0.00  0.00    +0.000 C 
BRANCH  26  27
ATOM     27  C   UNL     1       7.072   4.487  15.089  0.00  0.00    +0.000 C 
ATOM     28  C   UNL     1       5.655   4.488  14.530  0.00  0.00    +0.000 C 
BRANCH  27  29
ATOM     29  O   UNL     1       7.680   5.757  14.817  0.00  0.00    +0.000 OA
ATOM     30  H   UNL     1       7.550   6.325  15.597  0.00  0.00    +0.000 HD
ENDBRANCH  27  29
ENDBRANCH  26  27
ENDBRANCH   5  26
TORSDOF 8
ENDMDL
MODEL 2
REMARK VINA RESULT:      -8.0      0.979      1.195
REMARK  Name = 
REMARK  10 active torsions:
REMARK  status: ('A' for Active; 'I' for Inactive)
REMARK    1  A    between atoms: C_1  and  C_2
REMARK    2  A    between atoms: C_2  and  O_3
REMARK    3  A    between atoms: C_2  and  C_4
REMARK    4  A    between atoms: C_4  and  N_5
REMARK    5  A    between atoms: N_9  and  C_10
REMARK    6  A    between atoms: C_10  and  C_11
REMARK    7  A    between atoms: C_11  and  C_12
REMARK    8  A    between atoms: C_11  and  O_13
REMARK    9  A    between atoms: C_15  and  C_16
REMARK   10  A    between atoms: C_20  and  C_21
REMARK                            x       y       z     vdW  Elec       q    Type
REMARK                         _______ _______ _______ _____ _____    ______ ____
ROOT
ATOM      1  N   UNL     1       3.811   3.143  20.119  0.00  0.00    +0.000 N 
ATOM      2  C   UNL     1       4.006   4.284  19.354  0.00  0.00    +0.000 A 
ATOM      3  N   UNL     1       5.067   4.294  18.561  0.00  0.00    +0.000 NA
ATOM      4  C   UNL     1       5.275   5.411  17.871  0.00  0.00    +0.000 A 
ATOM      5  N   UNL     1       6.409   5.530  17.083  0.00  0.00    +0.000 N 
ATOM      6  N   UNL     1       4.473   6.464  17.901  0.00  0.00    +0.000 NA
ATOM      7  C   UNL     1       3.418   6.361  18.721  0.00  0.00    +0.000 A 
ATOM      8  N   UNL     1       3.149   5.283  19.455  0.00  0.00    +0.000 NA
ATOM      9  H   UNL     1       4.369   2.386  19.739  0.00  0.00    +0.000 HD
ATOM     10  H   UNL     1       6.320   6.322  16.454  0.00  0.00    +0.000 HD
ENDROOT
BRANCH   7  11
ATOM     11  C   UNL     1       2.498   7.522  18.841  0.00  0.00    +0.000 A 
ATOM     12  C   UNL     1       2.281   8.402  17.780  0.00  0.00    +0.000 A 
ATOM     13  C   UNL     1       1.442   9.501  17.958  0.00  0.00    +0.000 A 
ATOM     14  C   UNL     1       0.834   9.707  19.189  0.00  0.00    +0.000 A 
ATOM     15  C   UNL     1       1.066   8.800  20.220  0.00  0.00    +0.000 A 
ATOM     16  N   UNL     1       1.882   7.717  20.046  0.00  0.00    +0.000 NA
BRANCH  15  17
ATOM     17  C   UNL     1       0.406   9.014  21.579  0.00  0.00    +0.000 C 
ATOM     18  F   UNL     1      -0.632   8.155  21.812  0.00  0.00    +0.000 F 
ATOM     19  F   UNL     1       1.263   8.833  22.624  0.00  0.00    +0.000 F 
ATOM     20  F   UNL     1      -0.121  10.263  21.734  0.00  0.00    +0.000 F 
ENDBRANCH  15  17
ENDBRANCH   7  11
BRANCH   1  21
ATOM     21  C   UNL     1       2.414   2.817  20.373  0.00  0.00    +0.000 C 
BRANCH  21  23
ATOM     22  C   UNL     1       0.627   2.313  18.660  0.00  0.00    +0.000 C 
ATOM     23  C   UNL     1       1.911   1.817  19.316  0.00  0.00    +0.000 C 
BRANCH  23  24
ATOM     24  O   UNL     1       2.905   1.625  18.301  0.00  0.00    +0.000 OA
ATOM     25  H   UNL     1       3.113   0.677  18.265  0.00  0.00    +0.000 HD
ENDBRANCH  23  24
ENDBRANCH  21  23
ENDBRANCH   1  21
BRANCH   5  26
ATOM     26  C   UNL     1       6.930   4.308  16.488  0.00  0.00    +0.000 C 
BRANCH  26  27
ATOM     27  C   UNL     1       6.854   4.409  14.951  0.00  0.00    +0.000 C 
ATOM     28  C   UNL     1       5.412   4.418  14.457  0.00  0.00    +0.000 C 
BRANCH  27  29
ATOM     29  O   UNL     1       7.508   5.603  14.498  0.00  0.00    +0.000 OA
ATOM     30  H   UNL     1       7.425   6.274  15.198  0.00  0.00    +0.000 HD
ENDBRANCH  27  29
ENDBRANCH  26  27
ENDBRANCH   5  26
TORSDOF 8
ENDMDL
MODEL 3
REMARK VINA RESULT:      -7.7      3.985      5.918
REMARK  Name = 
REMARK  10 active torsions:
REMARK  status: ('A' for Active; 'I' for Inactive)
REMARK    1  A    between atoms: C_1  and  C_2
REMARK    2  A    between atoms: C_2  and  O_3
REMARK    3  A    between atoms: C_2  and  C_4
REMARK    4  A    between atoms: C_4  and  N_5
REMARK    5  A    between atoms: N_9  and  C_10
REMARK    6  A    between atoms: C_10  and  C_11
REMARK    7  A    between atoms: C_11  and  C_12
REMARK    8  A    between atoms: C_11  and  O_13
REMARK    9  A    between atoms: C_15  and  C_16
REMARK   10  A    between atoms: C_20  and  C_21
REMARK                            x       y       z     vdW  Elec       q    Type
REMARK                         _______ _______ _______ _____ _____    ______ ____
ROOT
ATOM      1  N   UNL     1       6.823   4.257  14.840  0.00  0.00    +0.000 N 
ATOM      2  C   UNL     1       6.387   4.479  16.139  0.00  0.00    +0.000 A 
ATOM      3  N   UNL     1       7.192   5.176  16.927  0.00  0.00    +0.000 NA
ATOM      4  C   UNL     1       6.790   5.339  18.182  0.00  0.00    +0.000 A 
ATOM      5  N   UNL     1       7.615   5.984  19.089  0.00  0.00    +0.000 N 
ATOM      6  N   UNL     1       5.638   4.892  18.658  0.00  0.00    +0.000 NA
ATOM      7  C   UNL     1       4.881   4.209  17.788  0.00  0.00    +0.000 A 
ATOM      8  N   UNL     1       5.220   3.991  16.519  0.00  0.00    +0.000 NA
ATOM      9  H   UNL     1       7.574   4.905  14.624  0.00  0.00    +0.000 HD
ATOM     10  H   UNL     1       7.095   6.232  19.925  0.00  0.00    +0.000 HD
ENDROOT
BRANCH   7  11
ATOM     11  C   UNL     1       3.594   3.638  18.264  0.00  0.00    +0.000 A 
ATOM     12  C   UNL     1       2.578   3.277  17.378  0.00  0.00    +0.000 A 
ATOM     13  C   UNL     1       1.372   2.787  17.877  0.00  0.00    +0.000 A 
ATOM     14  C   UNL     1       1.197   2.664  19.249  0.00  0.00    +0.000 A 
ATOM     15  C   UNL     1       2.240   3.024  20.100  0.00  0.00    +0.000 A 
ATOM     16  N   UNL     1       3.426   3.498  19.613  0.00  0.00    +0.000 NA
BRANCH  15  17
ATOM     17  C   UNL     1       2.061   2.896  21.610  0.00  0.00    +0.000 C 
ATOM     18  F   UNL     1       2.853   1.928  22.163  0.00  0.00    +0.000 F 
ATOM     19  F   UNL     1       2.370   4.041  22.284  0.00  0.00    +0.000 F 
ATOM     20  F   UNL     1       0.788   2.571  21.979  0.00  0.00    +0.000 F 
ENDBRANCH  15  17
ENDBRANCH   7  11
BRANCH   1  21
ATOM     21  C   UNL     1       5.759   4.188  13.848  0.00  0.00    +0.000 C 
BRANCH  21  23
ATOM     22  C   UNL     1       5.088   3.077  11.681  0.00  0.00    +0.000 C 
ATOM     23  C   UNL     1       6.249   3.414  12.610  0.00  0.00    +0.000 C 
BRANCH  23  24
ATOM     24  O   UNL     1       7.211   4.192  11.887  0.00  0.00    +0.000 OA
ATOM     25  H   UNL     1       6.901   5.112  11.875  0.00  0.00    +0.000 HD
ENDBRANCH  23  24
ENDBRANCH  21  23
ENDBRANCH   1  21
BRANCH   5  26
ATOM     26  C   UNL     1       8.491   7.020  18.562  0.00  0.00    +0.000 C 
BRANCH  26  27
ATOM     27  C   UNL     1       7.650   8.245  18.147  0.00  0.00    +0.000 C 
ATOM     28  C   UNL     1       8.463   9.533  18.207  0.00  0.00    +0.000 C 
BRANCH  27  29
ATOM     29  O   UNL     1       7.145   8.074  16.816  0.00  0.00    +0.000 OA
ATOM     30  H   UNL     1       6.511   8.791  16.641  0.00  0.00    +0.000 HD
ENDBRANCH  27  29
ENDBRANCH  26  27
ENDBRANCH   5  26
TORSDOF 8
ENDMDL
MODEL 4
REMARK VINA RESULT:      -7.7      1.216      1.610
REMARK  Name = 
REMARK  10 active torsions:
REMARK  status: ('A' for Active; 'I' for Inactive)
REMARK    1  A    between atoms: C_1  and  C_2
REMARK    2  A    between atoms: C_2  and  O_3
REMARK    3  A    between atoms: C_2  and  C_4
REMARK    4  A    between atoms: C_4  and  N_5
REMARK    5  A    between atoms: N_9  and  C_10
REMARK    6  A    between atoms: C_10  and  C_11
REMARK    7  A    between atoms: C_11  and  C_12
REMARK    8  A    between atoms: C_11  and  O_13
REMARK    9  A    between atoms: C_15  and  C_16
REMARK   10  A    between atoms: C_20  and  C_21
REMARK                            x       y       z     vdW  Elec       q    Type
REMARK                         _______ _______ _______ _____ _____    ______ ____
ROOT
ATOM      1  N   UNL     1       2.622   3.626  18.331  0.00  0.00    +0.000 N 
ATOM      2  C   UNL     1       3.020   4.908  17.978  0.00  0.00    +0.000 A 
ATOM      3  N   UNL     1       4.082   5.006  17.192  0.00  0.00    +0.000 NA
ATOM      4  C   UNL     1       4.486   6.238  16.902  0.00  0.00    +0.000 A 
ATOM      5  N   UNL     1       5.638   6.424  16.154  0.00  0.00    +0.000 N 
ATOM      6  N   UNL     1       3.872   7.338  17.310  0.00  0.00    +0.000 NA
ATOM      7  C   UNL     1       2.800   7.143  18.090  0.00  0.00    +0.000 A 
ATOM      8  N   UNL     1       2.341   5.943  18.437  0.00  0.00    +0.000 NA
ATOM      9  H   UNL     1       3.052   2.957  17.700  0.00  0.00    +0.000 HD
ATOM     10  H   UNL     1       5.695   7.383  15.826  0.00  0.00    +0.000 HD
ENDROOT
BRANCH   7  11
ATOM     11  C   UNL     1       2.086   8.332  18.623  0.00  0.00    +0.000 A 
ATOM     12  C   UNL     1       2.008   9.527  17.905  0.00  0.00    +0.000 A 
ATOM     13  C   UNL     1       1.364  10.627  18.469  0.00  0.00    +0.000 A 
ATOM     14  C   UNL     1       0.809  10.522  19.736  0.00  0.00    +0.000 A 
ATOM     15  C   UNL     1       0.897   9.309  20.417  0.00  0.00    +0.000 A 
ATOM     16  N   UNL     1       1.522   8.226  19.863  0.00  0.00    +0.000 NA
BRANCH  15  17
ATOM     17  C   UNL     1       0.294   9.179  21.812  0.00  0.00    +0.000 C 
ATOM     18  F   UNL     1      -0.302  10.332  22.247  0.00  0.00    +0.000 F 
ATOM     19  F   UNL     1      -0.675   8.223  21.890  0.00  0.00    +0.000 F 
ATOM     20  F   UNL     1       1.212   8.867  22.772  0.00  0.00    +0.000 F 
ENDBRANCH  15  17
ENDBRANCH   7  11
BRANCH   1  21
ATOM     21  C   UNL     1       1.186   3.468  18.517  0.00  0.00    +0.000 C 
BRANCH  21  23
ATOM     22  C   UNL     1       1.902   2.473  20.725  0.00  0.00    +0.000 C 
ATOM     23  C   UNL     1       0.865   3.337  20.017  0.00  0.00    +0.000 C 
BRANCH  23  24
ATOM     24  O   UNL     1       0.841   4.631  20.634  0.00  0.00    +0.000 OA
ATOM     25  H   UNL     1       0.070   5.110  20.288  0.00  0.00    +0.000 HD
ENDBRANCH  23  24
ENDBRANCH  21  23
ENDBRANCH   1  21
BRANCH   5  26
ATOM     26  C   UNL     1       5.957   5.402  15.169  0.00  0.00    +0.000 C 
BRANCH  26  27
ATOM     27  C   UNL     1       6.824   4.307  15.824  0.00  0.00    +0.000 C 
ATOM     28  C   UNL     1       7.518   4.815  17.082  0.00  0.00    +0.000 C 
BRANCH  27  29
ATOM     29  O   UNL     1       6.017   3.171  16.165  0.00  0.00    +0.000 OA
ATOM     30  H   UNL     1       5.199   3.216  15.639  0.00  0.00    +0.000 HD
ENDBRANCH  27  29
ENDBRANCH  26  27
ENDBRANCH   5  26
TORSDOF 8
ENDMDL
MODEL 5
REMARK VINA RESULT:      -7.6      1.458      1.877
REMARK  Name = 
REMARK  10 active torsions:
REMARK  status: ('A' for Active; 'I' for Inactive)
REMARK    1  A    between atoms: C_1  and  C_2
REMARK    2  A    between atoms: C_2  and  O_3
REMARK    3  A    between atoms: C_2  and  C_4
REMARK    4  A    between atoms: C_4  and  N_5
REMARK    5  A    between atoms: N_9  and  C_10
REMARK    6  A    between atoms: C_10  and  C_11
REMARK    7  A    between atoms: C_11  and  C_12
REMARK    8  A    between atoms: C_11  and  O_13
REMARK    9  A    between atoms: C_15  and  C_16
REMARK   10  A    between atoms: C_20  and  C_21
REMARK                            x       y       z     vdW  Elec       q    Type
REMARK                         _______ _______ _______ _____ _____    ______ ____
ROOT
ATOM      1  N   UNL     1       3.502   4.269  19.980  0.00  0.00    +0.000 N 
ATOM      2  C   UNL     1       3.401   5.434  19.232  0.00  0.00    +0.000 A 
ATOM      3  N   UNL     1       4.214   5.545  18.192  0.00  0.00    +0.000 NA
ATOM      4  C   UNL     1       4.146   6.685  17.513  0.00  0.00    +0.000 A 
ATOM      5  N   UNL     1       5.022   6.912  16.463  0.00  0.00    +0.000 N 
ATOM      6  N   UNL     1       3.301   7.667  17.789  0.00  0.00    +0.000 NA
ATOM      7  C   UNL     1       2.509   7.463  18.850  0.00  0.00    +0.000 A 
ATOM      8  N   UNL     1       2.526   6.355  19.589  0.00  0.00    +0.000 NA
ATOM      9  H   UNL     1       3.998   3.567  19.441  0.00  0.00    +0.000 HD
ATOM     10  H   UNL     1       4.710   7.703  15.908  0.00  0.00    +0.000 HD
ENDROOT
BRANCH   7  11
ATOM     11  C   UNL     1       1.566   8.540  19.248  0.00  0.00    +0.000 A 
ATOM     12  C   UNL     1       1.102   9.487  18.334  0.00  0.00    +0.000 A 
ATOM     13  C   UNL     1       0.253  10.504  18.767  0.00  0.00    +0.000 A 
ATOM     14  C   UNL     1      -0.121  10.563  20.102  0.00  0.00    +0.000 A 
ATOM     15  C   UNL     1       0.353   9.592  20.982  0.00  0.00    +0.000 A 
ATOM     16  N   UNL     1       1.180   8.590  20.558  0.00  0.00    +0.000 NA
BRANCH  15  17
ATOM     17  C   UNL     1      -0.047   9.645  22.454  0.00  0.00    +0.000 C 
ATOM     18  F   UNL     1      -1.002   8.722  22.782  0.00  0.00    +0.000 F 
ATOM     19  F   UNL     1       0.993   9.402  23.301  0.00  0.00    +0.000 F 
ATOM     20  F   UNL     1      -0.568  10.849  22.830  0.00  0.00    +0.000 F 
ENDBRANCH  15  17
ENDBRANCH   7  11
BRANCH   1  21
ATOM     21  C   UNL     1       2.250   3.823  20.576  0.00  0.00    +0.000 C 
BRANCH  21  23
ATOM     22  C   UNL     1       0.679   2.753  18.911  0.00  0.00    +0.000 C 
ATOM     23  C   UNL     1       1.798   2.506  19.916  0.00  0.00    +0.000 C 
BRANCH  23  24
ATOM     24  O   UNL     1       2.899   1.886  19.241  0.00  0.00    +0.000 OA
ATOM     25  H   UNL     1       2.583   1.049  18.864  0.00  0.00    +0.000 HD
ENDBRANCH  23  24
ENDBRANCH  21  23
ENDBRANCH   1  21
BRANCH   5  26
ATOM     26  C   UNL     1       5.462   5.747  15.709  0.00  0.00    +0.000 C 
BRANCH  26  27
ATOM     27  C   UNL     1       6.983   5.563  15.884  0.00  0.00    +0.000 C 
ATOM     28  C   UNL     1       7.306   4.469  16.893  0.00  0.00    +0.000 C 
BRANCH  27  29
ATOM     29  O   UNL     1       7.591   5.233  14.628  0.00  0.00    +0.000 OA
ATOM     30  H   UNL     1       6.944   5.414  13.924  0.00  0.00    +0.000 HD
ENDBRANCH  27  29
ENDBRANCH  26  27
ENDBRANCH   5  26
TORSDOF 8
ENDMDL
MODEL 6
REMARK VINA RESULT:      -7.6      1.194      1.269
REMARK  Name = 
REMARK  10 active torsions:
REMARK  status: ('A' for Active; 'I' for Inactive)
REMARK    1  A    between atoms: C_1  and  C_2
REMARK    2  A    between atoms: C_2  and  O_3
REMARK    3  A    between atoms: C_2  and  C_4
REMARK    4  A    between atoms: C_4  and  N_5
REMARK    5  A    between atoms: N_9  and  C_10
REMARK    6  A    between atoms: C_10  and  C_11
REMARK    7  A    between atoms: C_11  and  C_12
REMARK    8  A    between atoms: C_11  and  O_13
REMARK    9  A    between atoms: C_15  and  C_16
REMARK   10  A    between atoms: C_20  and  C_21
REMARK                            x       y       z     vdW  Elec       q    Type
REMARK                         _______ _______ _______ _____ _____    ______ ____
ROOT
ATOM      1  N   UNL     1       4.396   3.320  19.355  0.00  0.00    +0.000 N 
ATOM      2  C   UNL     1       4.459   4.525  18.670  0.00  0.00    +0.000 A 
ATOM      3  N   UNL     1       5.470   4.679  17.828  0.00  0.00    +0.000 NA
ATOM      4  C   UNL     1       5.551   5.856  17.216  0.00  0.00    +0.000 A 
ATOM      5  N   UNL     1       6.626   6.124  16.384  0.00  0.00    +0.000 N 
ATOM      6  N   UNL     1       4.673   6.836  17.367  0.00  0.00    +0.000 NA
ATOM      7  C   UNL     1       3.677   6.588  18.228  0.00  0.00    +0.000 A 
ATOM      8  N   UNL     1       3.534   5.441  18.891  0.00  0.00    +0.000 NA
ATOM      9  H   UNL     1       4.989   2.640  18.891  0.00  0.00    +0.000 HD
ATOM     10  H   UNL     1       6.441   6.950  15.822  0.00  0.00    +0.000 HD
ENDROOT
BRANCH   7  11
ATOM     11  C   UNL     1       2.678   7.658  18.484  0.00  0.00    +0.000 A 
ATOM     12  C   UNL     1       2.355   8.609  17.516  0.00  0.00    +0.000 A 
ATOM     13  C   UNL     1       1.444   9.619  17.820  0.00  0.00    +0.000 A 
ATOM     14  C   UNL     1       0.869   9.666  19.082  0.00  0.00    +0.000 A 
ATOM     15  C   UNL     1       1.207   8.691  20.018  0.00  0.00    +0.000 A 
ATOM     16  N   UNL     1       2.095   7.695  19.719  0.00  0.00    +0.000 NA
BRANCH  15  17
ATOM     17  C   UNL     1       0.584   8.731  21.410  0.00  0.00    +0.000 C 
ATOM     18  F   UNL     1      -0.416   7.812  21.576  0.00  0.00    +0.000 F 
ATOM     19  F   UNL     1       1.480   8.470  22.405  0.00  0.00    +0.000 F 
ATOM     20  F   UNL     1       0.018   9.934  21.716  0.00  0.00    +0.000 F 
ENDBRANCH  15  17
ENDBRANCH   7  11
BRANCH   1  21
ATOM     21  C   UNL     1       3.045   2.864  19.653  0.00  0.00    +0.000 C 
BRANCH  21  23
ATOM     22  C   UNL     1       1.119   3.932  20.888  0.00  0.00    +0.000 C 
ATOM     23  C   UNL     1       2.569   3.474  20.984  0.00  0.00    +0.000 C 
BRANCH  23  24
ATOM     24  O   UNL     1       2.683   2.513  22.040  0.00  0.00    +0.000 OA
ATOM     25  H   UNL     1       3.266   2.887  22.721  0.00  0.00    +0.000 HD
ENDBRANCH  23  24
ENDBRANCH  21  23
ENDBRANCH   1  21
BRANCH   5  26
ATOM     26  C   UNL     1       7.206   4.995  15.672  0.00  0.00    +0.000 C 
BRANCH  26  27
ATOM     27  C   UNL     1       6.088   4.199  14.969  0.00  0.00    +0.000 C 
ATOM     28  C   UNL     1       6.379   4.007  13.486  0.00  0.00    +0.000 C 
BRANCH  27  29
ATOM     29  O   UNL     1       5.932   2.912  15.583  0.00  0.00    +0.000 OA
ATOM     30  H   UNL     1       5.154   2.950  16.165  0.00  0.00    +0.000 HD
ENDBRANCH  27  29
ENDBRANCH  26  27
ENDBRANCH   5  26
TORSDOF 8
ENDMDL
MODEL 7
REMARK VINA RESULT:      -7.5      1.472      2.064
REMARK  Name = 
REMARK  10 active torsions:
REMARK  status: ('A' for Active; 'I' for Inactive)
REMARK    1  A    between atoms: C_1  and  C_2
REMARK    2  A    between atoms: C_2  and  O_3
REMARK    3  A    between atoms: C_2  and  C_4
REMARK    4  A    between atoms: C_4  and  N_5
REMARK    5  A    between atoms: N_9  and  C_10
REMARK    6  A    between atoms: C_10  and  C_11
REMARK    7  A    between atoms: C_11  and  C_12
REMARK    8  A    between atoms: C_11  and  O_13
REMARK    9  A    between atoms: C_15  and  C_16
REMARK   10  A    between atoms: C_20  and  C_21
REMARK                            x       y       z     vdW  Elec       q    Type
REMARK                         _______ _______ _______ _____ _____    ______ ____
ROOT
ATOM      1  N   UNL     1       3.313   4.244  19.874  0.00  0.00    +0.000 N 
ATOM      2  C   UNL     1       3.276   5.439  19.169  0.00  0.00    +0.000 A 
ATOM      3  N   UNL     1       4.119   5.559  18.155  0.00  0.00    +0.000 NA
ATOM      4  C   UNL     1       4.112   6.726  17.519  0.00  0.00    +0.000 A 
ATOM      5  N   UNL     1       5.023   6.958  16.501  0.00  0.00    +0.000 N 
ATOM      6  N   UNL     1       3.297   7.728  17.812  0.00  0.00    +0.000 NA
ATOM      7  C   UNL     1       2.470   7.514  18.843  0.00  0.00    +0.000 A 
ATOM      8  N   UNL     1       2.426   6.380  19.540  0.00  0.00    +0.000 NA
ATOM      9  H   UNL     1       3.797   3.545  19.321  0.00  0.00    +0.000 HD
ATOM     10  H   UNL     1       4.756   7.781  15.969  0.00  0.00    +0.000 HD
ENDROOT
BRANCH   7  11
ATOM     11  C   UNL     1       1.557   8.611  19.259  0.00  0.00    +0.000 A 
ATOM     12  C   UNL     1       1.167   9.618  18.376  0.00  0.00    +0.000 A 
ATOM     13  C   UNL     1       0.345  10.649  18.826  0.00  0.00    +0.000 A 
ATOM     14  C   UNL     1      -0.077  10.661  20.149  0.00  0.00    +0.000 A 
ATOM     15  C   UNL     1       0.323   9.631  20.997  0.00  0.00    +0.000 A 
ATOM     16  N   UNL     1       1.124   8.615  20.555  0.00  0.00    +0.000 NA
BRANCH  15  17
ATOM     17  C   UNL     1      -0.130   9.632  22.454  0.00  0.00    +0.000 C 
ATOM     18  F   UNL     1      -0.743  10.798  22.823  0.00  0.00    +0.000 F 
ATOM     19  F   UNL     1      -1.032   8.649  22.734  0.00  0.00    +0.000 F 
ATOM     20  F   UNL     1       0.894   9.470  23.341  0.00  0.00    +0.000 F 
ENDBRANCH  15  17
ENDBRANCH   7  11
BRANCH   1  21
ATOM     21  C   UNL     1       2.030   3.824  20.420  0.00  0.00    +0.000 C 
BRANCH  21  23
ATOM     22  C   UNL     1       1.967   2.048  18.625  0.00  0.00    +0.000 C 
ATOM     23  C   UNL     1       1.186   3.159  19.317  0.00  0.00    +0.000 C 
BRANCH  23  24
ATOM     24  O   UNL     1      -0.012   2.605  19.875  0.00  0.00    +0.000 OA
ATOM     25  H   UNL     1       0.120   2.514  20.833  0.00  0.00    +0.000 HD
ENDBRANCH  23  24
ENDBRANCH  21  23
ENDBRANCH   1  21
BRANCH   5  26
ATOM     26  C   UNL     1       5.439   5.807  15.714  0.00  0.00    +0.000 C 
BRANCH  26  27
ATOM     27  C   UNL     1       6.817   5.316  16.205  0.00  0.00    +0.000 C 
ATOM     28  C   UNL     1       7.482   6.333  17.125  0.00  0.00    +0.000 C 
BRANCH  27  29
ATOM     29  O   UNL     1       6.680   4.073  16.906  0.00  0.00    +0.000 OA
ATOM     30  H   UNL     1       5.982   4.181  17.575  0.00  0.00    +0.000 HD
ENDBRANCH  27  29
ENDBRANCH  26  27
ENDBRANCH   5  26
TORSDOF 8
ENDMDL
MODEL 8
REMARK VINA RESULT:      -7.5      3.725      5.918
REMARK  Name = 
REMARK  10 active torsions:
REMARK  status: ('A' for Active; 'I' for Inactive)
REMARK    1  A    between atoms: C_1  and  C_2
REMARK    2  A    between atoms: C_2  and  O_3
REMARK    3  A    between atoms: C_2  and  C_4
REMARK    4  A    between atoms: C_4  and  N_5
REMARK    5  A    between atoms: N_9  and  C_10
REMARK    6  A    between atoms: C_10  and  C_11
REMARK    7  A    between atoms: C_11  and  C_12
REMARK    8  A    between atoms: C_11  and  O_13
REMARK    9  A    between atoms: C_15  and  C_16
REMARK   10  A    between atoms: C_20  and  C_21
REMARK                            x       y       z     vdW  Elec       q    Type
REMARK                         _______ _______ _______ _____ _____    ______ ____
ROOT
ATOM      1  N   UNL     1       7.197   4.413  14.840  0.00  0.00    +0.000 N 
ATOM      2  C   UNL     1       6.732   4.573  16.138  0.00  0.00    +0.000 A 
ATOM      3  N   UNL     1       7.467   5.325  16.944  0.00  0.00    +0.000 NA
ATOM      4  C   UNL     1       7.043   5.430  18.199  0.00  0.00    +0.000 A 
ATOM      5  N   UNL     1       7.801   6.130  19.124  0.00  0.00    +0.000 N 
ATOM      6  N   UNL     1       5.931   4.875  18.657  0.00  0.00    +0.000 NA
ATOM      7  C   UNL     1       5.245   4.143  17.769  0.00  0.00    +0.000 A 
ATOM      8  N   UNL     1       5.611   3.977  16.500  0.00  0.00    +0.000 NA
ATOM      9  H   UNL     1       7.888   5.128  14.641  0.00  0.00    +0.000 HD
ATOM     10  H   UNL     1       7.255   6.317  19.959  0.00  0.00    +0.000 HD
ENDROOT
BRANCH   7  11
ATOM     11  C   UNL     1       4.010   3.452  18.224  0.00  0.00    +0.000 A 
ATOM     12  C   UNL     1       3.462   2.382  17.515  0.00  0.00    +0.000 A 
ATOM     13  C   UNL     1       2.278   1.796  17.959  0.00  0.00    +0.000 A 
ATOM     14  C   UNL     1       1.658   2.285  19.100  0.00  0.00    +0.000 A 
ATOM     15  C   UNL     1       2.241   3.347  19.788  0.00  0.00    +0.000 A 
ATOM     16  N   UNL     1       3.407   3.918  19.358  0.00  0.00    +0.000 NA
BRANCH  15  17
ATOM     17  C   UNL     1       1.569   3.896  21.042  0.00  0.00    +0.000 C 
ATOM     18  F   UNL     1       0.614   4.837  20.770  0.00  0.00    +0.000 F 
ATOM     19  F   UNL     1       0.930   2.937  21.770  0.00  0.00    +0.000 F 
ATOM     20  F   UNL     1       2.438   4.506  21.900  0.00  0.00    +0.000 F 
ENDBRANCH  15  17
ENDBRANCH   7  11
BRANCH   1  21
ATOM     21  C   UNL     1       6.150   4.267  13.837  0.00  0.00    +0.000 C 
BRANCH  21  23
ATOM     22  C   UNL     1       5.597   2.869  11.808  0.00  0.00    +0.000 C 
ATOM     23  C   UNL     1       6.711   3.546  12.598  0.00  0.00    +0.000 C 
BRANCH  23  24
ATOM     24  O   UNL     1       7.385   4.478  11.743  0.00  0.00    +0.000 OA
ATOM     25  H   UNL     1       7.205   4.223  10.824  0.00  0.00    +0.000 HD
ENDBRANCH  23  24
ENDBRANCH  21  23
ENDBRANCH   1  21
BRANCH   5  26
ATOM     26  C   UNL     1       8.585   7.249  18.621  0.00  0.00    +0.000 C 
BRANCH  26  27
ATOM     27  C   UNL     1       7.639   8.373  18.152  0.00  0.00    +0.000 C 
ATOM     28  C   UNL     1       8.327   9.733  18.172  0.00  0.00    +0.000 C 
BRANCH  27  29
ATOM     29  O   UNL     1       7.171   8.107  16.823  0.00  0.00    +0.000 OA
ATOM     30  H   UNL     1       7.323   7.165  16.635  0.00  0.00    +0.000 HD
ENDBRANCH  27  29
ENDBRANCH  26  27
ENDBRANCH   5  26
TORSDOF 8
ENDMDL
MODEL 9
REMARK VINA RESULT:      -7.4      0.995      1.453
REMARK  Name = 
REMARK  10 active torsions:
REMARK  status: ('A' for Active; 'I' for Inactive)
REMARK    1  A    between atoms: C_1  and  C_2
REMARK    2  A    between atoms: C_2  and  O_3
REMARK    3  A    between atoms: C_2  and  C_4
REMARK    4  A    between atoms: C_4  and  N_5
REMARK    5  A    between atoms: N_9  and  C_10
REMARK    6  A    between atoms: C_10  and  C_11
REMARK    7  A    between atoms: C_11  and  C_12
REMARK    8  A    between atoms: C_11  and  O_13
REMARK    9  A    between atoms: C_15  and  C_16
REMARK   10  A    between atoms: C_20  and  C_21
REMARK                            x       y       z     vdW  Elec       q    Type
REMARK                         _______ _______ _______ _____ _____    ______ ____
ROOT
ATOM      1  N   UNL     1       3.916   3.722  19.852  0.00  0.00    +0.000 N 
ATOM      2  C   UNL     1       3.824   4.788  18.969  0.00  0.00    +0.000 A 
ATOM      3  N   UNL     1       4.517   4.690  17.844  0.00  0.00    +0.000 NA
ATOM      4  C   UNL     1       4.464   5.737  17.028  0.00  0.00    +0.000 A 
ATOM      5  N   UNL     1       5.229   5.746  15.872  0.00  0.00    +0.000 N 
ATOM      6  N   UNL     1       3.739   6.822  17.255  0.00  0.00    +0.000 NA
ATOM      7  C   UNL     1       3.060   6.828  18.410  0.00  0.00    +0.000 A 
ATOM      8  N   UNL     1       3.072   5.826  19.287  0.00  0.00    +0.000 NA
ATOM      9  H   UNL     1       4.288   2.914  19.364  0.00  0.00    +0.000 HD
ATOM     10  H   UNL     1       4.920   6.487  15.251  0.00  0.00    +0.000 HD
ENDROOT
BRANCH   7  11
ATOM     11  C   UNL     1       2.258   8.032  18.754  0.00  0.00    +0.000 A 
ATOM     12  C   UNL     1       2.116   9.099  17.867  0.00  0.00    +0.000 A 
ATOM     13  C   UNL     1       1.390  10.224  18.255  0.00  0.00    +0.000 A 
ATOM     14  C   UNL     1       0.818  10.269  19.519  0.00  0.00    +0.000 A 
ATOM     15  C   UNL     1       0.972   9.178  20.372  0.00  0.00    +0.000 A 
ATOM     16  N   UNL     1       1.677   8.071  19.991  0.00  0.00    +0.000 NA
BRANCH  15  17
ATOM     17  C   UNL     1       0.351   9.214  21.765  0.00  0.00    +0.000 C 
ATOM     18  F   UNL     1       1.245   8.915  22.757  0.00  0.00    +0.000 F 
ATOM     19  F   UNL     1      -0.154  10.437  22.095  0.00  0.00    +0.000 F 
ATOM     20  F   UNL     1      -0.672   8.326  21.925  0.00  0.00    +0.000 F 
ENDBRANCH  15  17
ENDBRANCH   7  11
BRANCH   1  21
ATOM     21  C   UNL     1       2.709   3.474  20.629  0.00  0.00    +0.000 C 
BRANCH  21  23
ATOM     22  C   UNL     1       1.769   1.819  18.969  0.00  0.00    +0.000 C 
ATOM     23  C   UNL     1       1.538   3.145  19.685  0.00  0.00    +0.000 C 
BRANCH  23  24
ATOM     24  O   UNL     1       0.312   3.066  20.422  0.00  0.00    +0.000 OA
ATOM     25  H   UNL     1       0.158   3.930  20.837  0.00  0.00    +0.000 HD
ENDBRANCH  23  24
ENDBRANCH  21  23
ENDBRANCH   1  21
BRANCH   5  26
ATOM     26  C   UNL     1       5.483   4.460  15.241  0.00  0.00    +0.000 C 
BRANCH  26  27
ATOM     27  C   UNL     1       6.993   4.312  14.962  0.00  0.00    +0.000 C 
ATOM     28  C   UNL     1       7.432   5.159  13.774  0.00  0.00    +0.000 C 
BRANCH  27  29
ATOM     29  O   UNL     1       7.752   4.699  16.115  0.00  0.00    +0.000 OA
ATOM     30  H   UNL     1       8.694   4.558  15.916  0.00  0.00    +0.000 HD
ENDBRANCH  27  29
ENDBRANCH  26  27
ENDBRANCH   5  26
TORSDOF 8
ENDMDL
