MODEL 1
REMARK VINA RESULT:      -8.9      0.000      0.000
REMARK  Name = 
REMARK  6 active torsions:
REMARK  status: ('A' for Active; 'I' for Inactive)
REMARK    1  A    between atoms: N_3  and  C_4
REMARK    2  A    between atoms: C_7  and  O_8
REMARK    3  A    between atoms: O_8  and  C_9
REMARK    4  A    between atoms: C_9  and  C_10
REMARK    5  A    between atoms: C_10  and  N_11
REMARK    6  A    between atoms: N_19  and  C_20
REMARK                            x       y       z     vdW  Elec       q    Type
REMARK                         _______ _______ _______ _____ _____    ______ ____
ROOT
ATOM      1  O   UNL     1       8.932   9.080  19.246  0.00  0.00    +0.000 OA
ATOM      2  C   UNL     1       8.406   9.544  18.246  0.00  0.00    +0.000 C 
ATOM      3  N   UNL     1       7.480   8.923  17.427  0.00  0.00    +0.000 N 
ATOM      4  N   UNL     1       8.711  10.801  17.771  0.00  0.00    +0.000 N 
ATOM      5  H   UNL     1       7.028   9.498  16.735  0.00  0.00    +0.000 HD
ATOM      6  H   UNL     1       8.571  10.912  16.779  0.00  0.00    +0.000 HD
ENDROOT
BRANCH   4   7
ATOM      7  C   UNL     1       9.749  11.654  18.363  0.00  0.00    +0.000 C 
ATOM      8  C   UNL     1       9.350  13.154  18.363  0.00  0.00    +0.000 C 
ATOM      9  C   UNL     1      10.424  13.996  19.079  0.00  0.00    +0.000 C 
ATOM     10  C   UNL     1      10.572  13.509  20.528  0.00  0.00    +0.000 C 
ATOM     11  C   UNL     1      10.997  12.032  20.545  0.00  0.00    +0.000 C 
ATOM     12  C   UNL     1      12.333  11.868  19.806  0.00  0.00    +0.000 C 
ATOM     13  C   UNL     1      12.193  12.350  18.355  0.00  0.00    +0.000 C 
ATOM     14  C   UNL     1      11.771  13.830  18.352  0.00  0.00    +0.000 C 
ATOM     15  C   UNL     1      11.117  11.510  17.644  0.00  0.00    +0.000 C 
ATOM     16  C   UNL     1       9.926  11.198  19.833  0.00  0.00    +0.000 C 
ENDBRANCH   4   7
BRANCH   3  17
ATOM     17  C   UNL     1       7.060   7.583  17.515  0.00  0.00    +0.000 A 
ATOM     18  C   UNL     1       7.841   6.600  18.108  0.00  0.00    +0.000 A 
ATOM     19  C   UNL     1       7.406   5.284  18.168  0.00  0.00    +0.000 A 
ATOM     20  C   UNL     1       6.154   4.920  17.673  0.00  0.00    +0.000 A 
ATOM     21  C   UNL     1       5.377   5.886  17.039  0.00  0.00    +0.000 A 
ATOM     22  C   UNL     1       5.821   7.215  16.968  0.00  0.00    +0.000 A 
BRANCH  20  23
ATOM     23  O   UNL     1       5.629   3.655  17.797  0.00  0.00    +0.000 OA
BRANCH  23  24
ATOM     24  C   UNL     1       4.349   3.534  17.160  0.00  0.00    +0.000 C 
BRANCH  24  25
ATOM     25  C   UNL     1       3.349   2.743  18.003  0.00  0.00    +0.000 C 
BRANCH  25  26
ATOM     26  N   UNL     1       2.039   3.423  18.066  0.00  0.00    +0.000 NA
ATOM     27  C   UNL     1       2.086   4.813  18.570  0.00  0.00    +0.000 C 
ATOM     28  C   UNL     1       2.291   4.939  20.091  0.00  0.00    +0.000 C 
ATOM     29  O   UNL     1       1.361   4.138  20.831  0.00  0.00    +0.000 OA
ATOM     30  C   UNL     1       1.393   2.773  20.398  0.00  0.00    +0.000 C 
ATOM     31  C   UNL     1       1.083   2.668  18.899  0.00  0.00    +0.000 C 
ENDBRANCH  25  26
ENDBRANCH  24  25
ENDBRANCH  23  24
ENDBRANCH  20  23
ENDBRANCH   3  17
TORSDOF 6
ENDMDL
MODEL 2
REMARK VINA RESULT:      -8.8      0.434      1.454
REMARK  Name = 
REMARK  6 active torsions:
REMARK  status: ('A' for Active; 'I' for Inactive)
REMARK    1  A    between atoms: N_3  and  C_4
REMARK    2  A    between atoms: C_7  and  O_8
REMARK    3  A    between atoms: O_8  and  C_9
REMARK    4  A    between atoms: C_9  and  C_10
REMARK    5  A    between atoms: C_10  and  N_11
REMARK    6  A    between atoms: N_19  and  C_20
REMARK                            x       y       z     vdW  Elec       q    Type
REMARK                         _______ _______ _______ _____ _____    ______ ____
ROOT
ATOM      1  O   UNL     1       8.923   8.925  19.165  0.00  0.00    +0.000 OA
ATOM      2  C   UNL     1       8.324   9.455  18.242  0.00  0.00    +0.000 C 
ATOM      3  N   UNL     1       7.355   8.881  17.438  0.00  0.00    +0.000 N 
ATOM      4  N   UNL     1       8.575  10.753  17.851  0.00  0.00    +0.000 N 
ATOM      5  H   UNL     1       6.848   9.499  16.826  0.00  0.00    +0.000 HD
ATOM      6  H   UNL     1       8.367  10.938  16.883  0.00  0.00    +0.000 HD
ENDROOT
BRANCH   4   7
ATOM      7  C   UNL     1       9.636  11.579  18.441  0.00  0.00    +0.000 C 
ATOM      8  C   UNL     1       9.879  11.246  19.937  0.00  0.00    +0.000 C 
ATOM      9  C   UNL     1      11.062  12.068  20.486  0.00  0.00    +0.000 C 
ATOM     10  C   UNL     1      12.328  11.740  19.679  0.00  0.00    +0.000 C 
ATOM     11  C   UNL     1      12.113  12.093  18.198  0.00  0.00    +0.000 C 
ATOM     12  C   UNL     1      11.787  13.587  18.063  0.00  0.00    +0.000 C 
ATOM     13  C   UNL     1      10.521  13.923  18.865  0.00  0.00    +0.000 C 
ATOM     14  C   UNL     1      10.749  13.569  20.344  0.00  0.00    +0.000 C 
ATOM     15  C   UNL     1       9.342  13.098  18.317  0.00  0.00    +0.000 C 
ATOM     16  C   UNL     1      10.937  11.274  17.657  0.00  0.00    +0.000 C 
ENDBRANCH   4   7
BRANCH   3  17
ATOM     17  C   UNL     1       6.965   7.529  17.445  0.00  0.00    +0.000 A 
ATOM     18  C   UNL     1       7.789   6.523  17.933  0.00  0.00    +0.000 A 
ATOM     19  C   UNL     1       7.382   5.198  17.914  0.00  0.00    +0.000 A 
ATOM     20  C   UNL     1       6.117   4.843  17.445  0.00  0.00    +0.000 A 
ATOM     21  C   UNL     1       5.295   5.835  16.915  0.00  0.00    +0.000 A 
ATOM     22  C   UNL     1       5.711   7.174  16.924  0.00  0.00    +0.000 A 
BRANCH  20  23
ATOM     23  O   UNL     1       5.622   3.560  17.497  0.00  0.00    +0.000 OA
BRANCH  23  24
ATOM     24  C   UNL     1       4.191   3.527  17.397  0.00  0.00    +0.000 C 
BRANCH  24  25
ATOM     25  C   UNL     1       3.555   2.583  18.415  0.00  0.00    +0.000 C 
BRANCH  25  26
ATOM     26  N   UNL     1       2.182   3.005  18.760  0.00  0.00    +0.000 NA
ATOM     27  C   UNL     1       1.987   4.470  18.845  0.00  0.00    +0.000 C 
ATOM     28  C   UNL     1       2.570   5.123  20.111  0.00  0.00    +0.000 C 
ATOM     29  O   UNL     1       2.142   4.461  21.308  0.00  0.00    +0.000 OA
ATOM     30  C   UNL     1       2.423   3.057  21.254  0.00  0.00    +0.000 C 
ATOM     31  C   UNL     1       1.743   2.412  20.038  0.00  0.00    +0.000 C 
ENDBRANCH  25  26
ENDBRANCH  24  25
ENDBRANCH  23  24
ENDBRANCH  20  23
ENDBRANCH   3  17
TORSDOF 6
ENDMDL
MODEL 3
REMARK VINA RESULT:      -8.7      1.248      1.876
REMARK  Name = 
REMARK  6 active torsions:
REMARK  status: ('A' for Active; 'I' for Inactive)
REMARK    1  A    between atoms: N_3  and  C_4
REMARK    2  A    between atoms: C_7  and  O_8
REMARK    3  A    between atoms: O_8  and  C_9
REMARK    4  A    between atoms: C_9  and  C_10
REMARK    5  A    between atoms: C_10  and  N_11
REMARK    6  A    between atoms: N_19  and  C_20
REMARK                            x       y       z     vdW  Elec       q    Type
REMARK                         _______ _______ _______ _____ _____    ______ ____
ROOT
ATOM      1  O   UNL     1       7.978   9.765  17.927  0.00  0.00    +0.000 OA
ATOM      2  C   UNL     1       8.718   9.219  18.731  0.00  0.00    +0.000 C 
ATOM      3  N   UNL     1       8.780   7.868  19.022  0.00  0.00    +0.000 N 
ATOM      4  N   UNL     1       9.610   9.927  19.507  0.00  0.00    +0.000 N 
ATOM      5  H   UNL     1       9.551   7.562  19.593  0.00  0.00    +0.000 HD
ATOM      6  H   UNL     1       9.841   9.480  20.380  0.00  0.00    +0.000 HD
ENDROOT
BRANCH   4   7
ATOM      7  C   UNL     1       9.690  11.393  19.505  0.00  0.00    +0.000 C 
ATOM      8  C   UNL     1       8.708  12.039  20.519  0.00  0.00    +0.000 C 
ATOM      9  C   UNL     1       8.896  13.568  20.550  0.00  0.00    +0.000 C 
ATOM     10  C   UNL     1      10.340  13.896  20.961  0.00  0.00    +0.000 C 
ATOM     11  C   UNL     1      11.325  13.289  19.949  0.00  0.00    +0.000 C 
ATOM     12  C   UNL     1      11.045  13.854  18.549  0.00  0.00    +0.000 C 
ATOM     13  C   UNL     1       9.604  13.527  18.130  0.00  0.00    +0.000 C 
ATOM     14  C   UNL     1       8.628  14.144  19.148  0.00  0.00    +0.000 C 
ATOM     15  C   UNL     1       9.418  12.000  18.103  0.00  0.00    +0.000 C 
ATOM     16  C   UNL     1      11.135  11.768  19.921  0.00  0.00    +0.000 C 
ENDBRANCH   4   7
BRANCH   3  17
ATOM     17  C   UNL     1       7.908   6.874  18.541  0.00  0.00    +0.000 A 
ATOM     18  C   UNL     1       7.494   5.809  19.330  0.00  0.00    +0.000 A 
ATOM     19  C   UNL     1       6.645   4.836  18.823  0.00  0.00    +0.000 A 
ATOM     20  C   UNL     1       6.149   4.924  17.523  0.00  0.00    +0.000 A 
ATOM     21  C   UNL     1       6.587   5.965  16.707  0.00  0.00    +0.000 A 
ATOM     22  C   UNL     1       7.455   6.942  17.215  0.00  0.00    +0.000 A 
BRANCH  20  23
ATOM     23  O   UNL     1       5.226   4.047  17.002  0.00  0.00    +0.000 OA
BRANCH  23  24
ATOM     24  C   UNL     1       3.929   4.645  16.861  0.00  0.00    +0.000 C 
BRANCH  24  25
ATOM     25  C   UNL     1       3.068   4.476  18.111  0.00  0.00    +0.000 C 
BRANCH  25  26
ATOM     26  N   UNL     1       3.133   3.095  18.629  0.00  0.00    +0.000 NA
ATOM     27  C   UNL     1       1.887   2.312  18.465  0.00  0.00    +0.000 C 
ATOM     28  C   UNL     1       0.758   2.689  19.441  0.00  0.00    +0.000 C 
ATOM     29  O   UNL     1       1.201   2.699  20.804  0.00  0.00    +0.000 OA
ATOM     30  C   UNL     1       2.351   3.537  20.970  0.00  0.00    +0.000 C 
ATOM     31  C   UNL     1       3.498   3.075  20.059  0.00  0.00    +0.000 C 
ENDBRANCH  25  26
ENDBRANCH  24  25
ENDBRANCH  23  24
ENDBRANCH  20  23
ENDBRANCH   3  17
TORSDOF 6
ENDMDL
MODEL 4
REMARK VINA RESULT:      -8.7      1.221      1.748
REMARK  Name = 
REMARK  6 active torsions:
REMARK  status: ('A' for Active; 'I' for Inactive)
REMARK    1  A    between atoms: N_3  and  C_4
REMARK    2  A    between atoms: C_7  and  O_8
REMARK    3  A    between atoms: O_8  and  C_9
REMARK    4  A    between atoms: C_9  and  C_10
REMARK    5  A    between atoms: C_10  and  N_11
REMARK    6  A    between atoms: N_19  and  C_20
REMARK                            x       y       z     vdW  Elec       q    Type
REMARK                         _______ _______ _______ _____ _____    ______ ____
ROOT
ATOM      1  O   UNL     1       8.723   9.643  17.411  0.00  0.00    +0.000 OA
ATOM      2  C   UNL     1       8.922   9.223  18.540  0.00  0.00    +0.000 C 
ATOM      3  N   UNL     1       8.565   7.985  19.044  0.00  0.00    +0.000 N 
ATOM      4  N   UNL     1       9.533   9.986  19.512  0.00  0.00    +0.000 N 
ATOM      5  H   UNL     1       8.939   7.736  19.945  0.00  0.00    +0.000 HD
ATOM      6  H   UNL     1       9.274   9.739  20.453  0.00  0.00    +0.000 HD
ENDROOT
BRANCH   4   7
ATOM      7  C   UNL     1       9.917  11.389  19.308  0.00  0.00    +0.000 C 
ATOM      8  C   UNL     1       8.770  12.231  18.689  0.00  0.00    +0.000 C 
ATOM      9  C   UNL     1       9.185  13.711  18.583  0.00  0.00    +0.000 C 
ATOM     10  C   UNL     1       9.513  14.250  19.984  0.00  0.00    +0.000 C 
ATOM     11  C   UNL     1      10.670  13.445  20.599  0.00  0.00    +0.000 C 
ATOM     12  C   UNL     1      11.911  13.551  19.701  0.00  0.00    +0.000 C 
ATOM     13  C   UNL     1      11.592  13.012  18.299  0.00  0.00    +0.000 C 
ATOM     14  C   UNL     1      10.436  13.827  17.694  0.00  0.00    +0.000 C 
ATOM     15  C   UNL     1      11.173  11.534  18.408  0.00  0.00    +0.000 C 
ATOM     16  C   UNL     1      10.252  11.974  20.703  0.00  0.00    +0.000 C 
ENDBRANCH   4   7
BRANCH   3  17
ATOM     17  C   UNL     1       7.786   7.014  18.387  0.00  0.00    +0.000 A 
ATOM     18  C   UNL     1       6.836   7.350  17.432  0.00  0.00    +0.000 A 
ATOM     19  C   UNL     1       6.074   6.371  16.811  0.00  0.00    +0.000 A 
ATOM     20  C   UNL     1       6.271   5.021  17.098  0.00  0.00    +0.000 A 
ATOM     21  C   UNL     1       7.191   4.671  18.083  0.00  0.00    +0.000 A 
ATOM     22  C   UNL     1       7.954   5.660  18.719  0.00  0.00    +0.000 A 
BRANCH  20  23
ATOM     23  O   UNL     1       5.618   4.003  16.441  0.00  0.00    +0.000 OA
BRANCH  23  24
ATOM     24  C   UNL     1       4.224   3.947  16.777  0.00  0.00    +0.000 C 
BRANCH  24  25
ATOM     25  C   UNL     1       3.985   3.964  18.286  0.00  0.00    +0.000 C 
BRANCH  25  26
ATOM     26  N   UNL     1       3.582   2.632  18.783  0.00  0.00    +0.000 NA
ATOM     27  C   UNL     1       2.329   2.105  18.198  0.00  0.00    +0.000 C 
ATOM     28  C   UNL     1       1.044   2.761  18.735  0.00  0.00    +0.000 C 
ATOM     29  O   UNL     1       0.997   2.769  20.167  0.00  0.00    +0.000 OA
ATOM     30  C   UNL     1       2.174   3.369  20.721  0.00  0.00    +0.000 C 
ATOM     31  C   UNL     1       3.435   2.631  20.252  0.00  0.00    +0.000 C 
ENDBRANCH  25  26
ENDBRANCH  24  25
ENDBRANCH  23  24
ENDBRANCH  20  23
ENDBRANCH   3  17
TORSDOF 6
ENDMDL
MODEL 5
REMARK VINA RESULT:      -8.6      1.052      1.659
REMARK  Name = 
REMARK  6 active torsions:
REMARK  status: ('A' for Active; 'I' for Inactive)
REMARK    1  A    between atoms: N_3  and  C_4
REMARK    2  A    between atoms: C_7  and  O_8
REMARK    3  A    between atoms: O_8  and  C_9
REMARK    4  A    between atoms: C_9  and  C_10
REMARK    5  A    between atoms: C_10  and  N_11
REMARK    6  A    between atoms: N_19  and  C_20
REMARK                            x       y       z     vdW  Elec       q    Type
REMARK                         _______ _______ _______ _____ _____    ______ ____
ROOT
ATOM      1  O   UNL     1       7.973   9.851  17.884  0.00  0.00    +0.000 OA
ATOM      2  C   UNL     1       8.684   9.245  18.672  0.00  0.00    +0.000 C 
ATOM      3  N   UNL     1       8.689   7.883  18.912  0.00  0.00    +0.000 N 
ATOM      4  N   UNL     1       9.597   9.886  19.481  0.00  0.00    +0.000 N 
ATOM      5  H   UNL     1       9.442   7.524  19.475  0.00  0.00    +0.000 HD
ATOM      6  H   UNL     1       9.803   9.397  20.337  0.00  0.00    +0.000 HD
ENDROOT
BRANCH   4   7
ATOM      7  C   UNL     1       9.736  11.346  19.536  0.00  0.00    +0.000 C 
ATOM      8  C   UNL     1       9.309  12.030  18.210  0.00  0.00    +0.000 C 
ATOM      9  C   UNL     1       9.381  13.564  18.348  0.00  0.00    +0.000 C 
ATOM     10  C   UNL     1       8.446  14.018  19.479  0.00  0.00    +0.000 C 
ATOM     11  C   UNL     1       8.875  13.373  20.807  0.00  0.00    +0.000 C 
ATOM     12  C   UNL     1      10.319  13.777  21.136  0.00  0.00    +0.000 C 
ATOM     13  C   UNL     1      11.261  13.323  20.011  0.00  0.00    +0.000 C 
ATOM     14  C   UNL     1      10.823  13.978  18.689  0.00  0.00    +0.000 C 
ATOM     15  C   UNL     1      11.185  11.792  19.873  0.00  0.00    +0.000 C 
ATOM     16  C   UNL     1       8.802  11.848  20.666  0.00  0.00    +0.000 C 
ENDBRANCH   4   7
BRANCH   3  17
ATOM     17  C   UNL     1       7.782   6.944  18.387  0.00  0.00    +0.000 A 
ATOM     18  C   UNL     1       7.002   7.212  17.270  0.00  0.00    +0.000 A 
ATOM     19  C   UNL     1       6.107   6.271  16.783  0.00  0.00    +0.000 A 
ATOM     20  C   UNL     1       5.996   5.014  17.376  0.00  0.00    +0.000 A 
ATOM     21  C   UNL     1       6.742   4.744  18.522  0.00  0.00    +0.000 A 
ATOM     22  C   UNL     1       7.639   5.699  19.021  0.00  0.00    +0.000 A 
BRANCH  20  23
ATOM     23  O   UNL     1       5.202   4.007  16.877  0.00  0.00    +0.000 OA
BRANCH  23  24
ATOM     24  C   UNL     1       3.805   4.289  17.035  0.00  0.00    +0.000 C 
BRANCH  24  25
ATOM     25  C   UNL     1       3.087   3.237  17.879  0.00  0.00    +0.000 C 
BRANCH  25  26
ATOM     26  N   UNL     1       1.778   3.727  18.355  0.00  0.00    +0.000 NA
ATOM     27  C   UNL     1       1.837   4.958  19.175  0.00  0.00    +0.000 C 
ATOM     28  C   UNL     1       2.348   4.749  20.612  0.00  0.00    +0.000 C 
ATOM     29  O   UNL     1       1.649   3.696  21.287  0.00  0.00    +0.000 OA
ATOM     30  C   UNL     1       1.680   2.482  20.528  0.00  0.00    +0.000 C 
ATOM     31  C   UNL     1       1.070   2.694  19.136  0.00  0.00    +0.000 C 
ENDBRANCH  25  26
ENDBRANCH  24  25
ENDBRANCH  23  24
ENDBRANCH  20  23
ENDBRANCH   3  17
TORSDOF 6
ENDMDL
MODEL 6
REMARK VINA RESULT:      -8.6      1.152      1.362
REMARK  Name = 
REMARK  6 active torsions:
REMARK  status: ('A' for Active; 'I' for Inactive)
REMARK    1  A    between atoms: N_3  and  C_4
REMARK    2  A    between atoms: C_7  and  O_8
REMARK    3  A    between atoms: O_8  and  C_9
REMARK    4  A    between atoms: C_9  and  C_10
REMARK    5  A    between atoms: C_10  and  N_11
REMARK    6  A    between atoms: N_19  and  C_20
REMARK                            x       y       z     vdW  Elec       q    Type
REMARK                         _______ _______ _______ _____ _____    ______ ____
ROOT
ATOM      1  O   UNL     1       8.383   9.550  17.439  0.00  0.00    +0.000 OA
ATOM      2  C   UNL     1       8.764   9.080  18.500  0.00  0.00    +0.000 C 
ATOM      3  N   UNL     1       8.533   7.802  18.976  0.00  0.00    +0.000 N 
ATOM      4  N   UNL     1       9.486   9.817  19.414  0.00  0.00    +0.000 N 
ATOM      5  H   UNL     1       9.048   7.522  19.795  0.00  0.00    +0.000 HD
ATOM      6  H   UNL     1       9.381   9.508  20.366  0.00  0.00    +0.000 HD
ENDROOT
BRANCH   4   7
ATOM      7  C   UNL     1       9.783  11.244  19.239  0.00  0.00    +0.000 C 
ATOM      8  C   UNL     1       8.642  11.999  18.507  0.00  0.00    +0.000 C 
ATOM      9  C   UNL     1       8.955  13.507  18.432  0.00  0.00    +0.000 C 
ATOM     10  C   UNL     1       9.106  14.067  19.855  0.00  0.00    +0.000 C 
ATOM     11  C   UNL     1      10.254  13.350  20.584  0.00  0.00    +0.000 C 
ATOM     12  C   UNL     1      11.564  13.548  19.809  0.00  0.00    +0.000 C 
ATOM     13  C   UNL     1      11.423  12.988  18.386  0.00  0.00    +0.000 C 
ATOM     14  C   UNL     1      10.274  13.716  17.667  0.00  0.00    +0.000 C 
ATOM     15  C   UNL     1      11.107  11.483  18.463  0.00  0.00    +0.000 C 
ATOM     16  C   UNL     1       9.938  11.851  20.656  0.00  0.00    +0.000 C 
ENDBRANCH   4   7
BRANCH   3  17
ATOM     17  C   UNL     1       7.701   6.833  18.385  0.00  0.00    +0.000 A 
ATOM     18  C   UNL     1       7.834   5.478  18.657  0.00  0.00    +0.000 A 
ATOM     19  C   UNL     1       7.007   4.545  18.048  0.00  0.00    +0.000 A 
ATOM     20  C   UNL     1       5.992   4.946  17.181  0.00  0.00    +0.000 A 
ATOM     21  C   UNL     1       5.871   6.298  16.867  0.00  0.00    +0.000 A 
ATOM     22  C   UNL     1       6.714   7.240  17.473  0.00  0.00    +0.000 A 
BRANCH  20  23
ATOM     23  O   UNL     1       5.078   4.077  16.630  0.00  0.00    +0.000 OA
BRANCH  23  24
ATOM     24  C   UNL     1       3.734   4.375  17.032  0.00  0.00    +0.000 C 
BRANCH  24  25
ATOM     25  C   UNL     1       3.468   4.021  18.494  0.00  0.00    +0.000 C 
BRANCH  25  26
ATOM     26  N   UNL     1       2.108   4.423  18.909  0.00  0.00    +0.000 NA
ATOM     27  C   UNL     1       2.016   4.974  20.279  0.00  0.00    +0.000 C 
ATOM     28  C   UNL     1       2.112   3.925  21.401  0.00  0.00    +0.000 C 
ATOM     29  O   UNL     1       1.201   2.836  21.205  0.00  0.00    +0.000 OA
ATOM     30  C   UNL     1       1.365   2.249  19.909  0.00  0.00    +0.000 C 
ATOM     31  C   UNL     1       1.161   3.296  18.805  0.00  0.00    +0.000 C 
ENDBRANCH  25  26
ENDBRANCH  24  25
ENDBRANCH  23  24
ENDBRANCH  20  23
ENDBRANCH   3  17
TORSDOF 6
ENDMDL
MODEL 7
REMARK VINA RESULT:      -8.6      7.282     11.308
REMARK  Name = 
REMARK  6 active torsions:
REMARK  status: ('A' for Active; 'I' for Inactive)
REMARK    1  A    between atoms: N_3  and  C_4
REMARK    2  A    between atoms: C_7  and  O_8
REMARK    3  A    between atoms: O_8  and  C_9
REMARK    4  A    between atoms: C_9  and  C_10
REMARK    5  A    between atoms: C_10  and  N_11
REMARK    6  A    between atoms: N_19  and  C_20
REMARK                            x       y       z     vdW  Elec       q    Type
REMARK                         _______ _______ _______ _____ _____    ______ ____
ROOT
ATOM      1  O   UNL     1       0.574   6.463  20.644  0.00  0.00    +0.000 OA
ATOM      2  C   UNL     1       1.645   7.048  20.674  0.00  0.00    +0.000 C 
ATOM      3  N   UNL     1       1.873   8.349  21.088  0.00  0.00    +0.000 N 
ATOM      4  N   UNL     1       2.817   6.459  20.249  0.00  0.00    +0.000 N 
ATOM      5  H   UNL     1       2.835   8.627  21.200  0.00  0.00    +0.000 HD
ATOM      6  H   UNL     1       3.511   7.112  19.924  0.00  0.00    +0.000 HD
ENDROOT
BRANCH   4   7
ATOM      7  C   UNL     1       2.871   5.123  19.645  0.00  0.00    +0.000 C 
ATOM      8  C   UNL     1       2.002   5.019  18.363  0.00  0.00    +0.000 C 
ATOM      9  C   UNL     1       2.166   3.632  17.713  0.00  0.00    +0.000 C 
ATOM     10  C   UNL     1       3.642   3.411  17.346  0.00  0.00    +0.000 C 
ATOM     11  C   UNL     1       4.513   3.480  18.611  0.00  0.00    +0.000 C 
ATOM     12  C   UNL     1       4.062   2.405  19.610  0.00  0.00    +0.000 C 
ATOM     13  C   UNL     1       2.588   2.620  19.984  0.00  0.00    +0.000 C 
ATOM     14  C   UNL     1       1.727   2.545  18.711  0.00  0.00    +0.000 C 
ATOM     15  C   UNL     1       2.427   4.008  20.630  0.00  0.00    +0.000 C 
ATOM     16  C   UNL     1       4.347   4.861  19.254  0.00  0.00    +0.000 C 
ENDBRANCH   4   7
BRANCH   3  17
ATOM     17  C   UNL     1       0.891   9.295  21.432  0.00  0.00    +0.000 A 
ATOM     18  C   UNL     1       0.359   9.377  22.712  0.00  0.00    +0.000 A 
ATOM     19  C   UNL     1      -0.618  10.313  23.018  0.00  0.00    +0.000 A 
ATOM     20  C   UNL     1      -1.063  11.224  22.061  0.00  0.00    +0.000 A 
ATOM     21  C   UNL     1      -0.570  11.127  20.762  0.00  0.00    +0.000 A 
ATOM     22  C   UNL     1       0.411  10.175  20.449  0.00  0.00    +0.000 A 
BRANCH  20  23
ATOM     23  O   UNL     1      -1.953  12.237  22.334  0.00  0.00    +0.000 OA
BRANCH  23  24
ATOM     24  C   UNL     1      -2.730  11.974  23.511  0.00  0.00    +0.000 C 
BRANCH  24  25
ATOM     25  C   UNL     1      -3.887  12.957  23.681  0.00  0.00    +0.000 C 
BRANCH  25  26
ATOM     26  N   UNL     1      -5.119  12.457  23.039  0.00  0.00    +0.000 NA
ATOM     27  C   UNL     1      -5.311  12.898  21.639  0.00  0.00    +0.000 C 
ATOM     28  C   UNL     1      -5.752  14.365  21.482  0.00  0.00    +0.000 C 
ATOM     29  O   UNL     1      -6.889  14.678  22.296  0.00  0.00    +0.000 OA
ATOM     30  C   UNL     1      -6.655  14.335  23.667  0.00  0.00    +0.000 C 
ATOM     31  C   UNL     1      -6.319  12.844  23.807  0.00  0.00    +0.000 C 
ENDBRANCH  25  26
ENDBRANCH  24  25
ENDBRANCH  23  24
ENDBRANCH  20  23
ENDBRANCH   3  17
TORSDOF 6
ENDMDL
MODEL 8
REMARK VINA RESULT:      -8.6      1.204      2.247
REMARK  Name = 
REMARK  6 active torsions:
REMARK  status: ('A' for Active; 'I' for Inactive)
REMARK    1  A    between atoms: N_3  and  C_4
REMARK    2  A    between atoms: C_7  and  O_8
REMARK    3  A    between atoms: O_8  and  C_9
REMARK    4  A    between atoms: C_9  and  C_10
REMARK    5  A    between atoms: C_10  and  N_11
REMARK    6  A    between atoms: N_19  and  C_20
REMARK                            x       y       z     vdW  Elec       q    Type
REMARK                         _______ _______ _______ _____ _____    ______ ____
ROOT
ATOM      1  O   UNL     1       7.946   9.868  17.697  0.00  0.00    +0.000 OA
ATOM      2  C   UNL     1       8.587   9.205  18.498  0.00  0.00    +0.000 C 
ATOM      3  N   UNL     1       8.503   7.840  18.705  0.00  0.00    +0.000 N 
ATOM      4  N   UNL     1       9.500   9.774  19.359  0.00  0.00    +0.000 N 
ATOM      5  H   UNL     1       9.210   7.425  19.290  0.00  0.00    +0.000 HD
ATOM      6  H   UNL     1       9.640   9.255  20.211  0.00  0.00    +0.000 HD
ENDROOT
BRANCH   4   7
ATOM      7  C   UNL     1       9.719  11.222  19.455  0.00  0.00    +0.000 C 
ATOM      8  C   UNL     1      11.225  11.585  19.547  0.00  0.00    +0.000 C 
ATOM      9  C   UNL     1      11.411  13.115  19.550  0.00  0.00    +0.000 C 
ATOM     10  C   UNL     1      10.824  13.702  18.256  0.00  0.00    +0.000 C 
ATOM     11  C   UNL     1       9.324  13.377  18.165  0.00  0.00    +0.000 C 
ATOM     12  C   UNL     1       8.591  13.966  19.379  0.00  0.00    +0.000 C 
ATOM     13  C   UNL     1       9.170  13.382  20.676  0.00  0.00    +0.000 C 
ATOM     14  C   UNL     1      10.670  13.717  20.757  0.00  0.00    +0.000 C 
ATOM     15  C   UNL     1       8.987  11.854  20.670  0.00  0.00    +0.000 C 
ATOM     16  C   UNL     1       9.144  11.855  18.163  0.00  0.00    +0.000 C 
ENDBRANCH   4   7
BRANCH   3  17
ATOM     17  C   UNL     1       7.568   6.966  18.120  0.00  0.00    +0.000 A 
ATOM     18  C   UNL     1       6.585   7.412  17.246  0.00  0.00    +0.000 A 
ATOM     19  C   UNL     1       5.668   6.528  16.696  0.00  0.00    +0.000 A 
ATOM     20  C   UNL     1       5.733   5.163  16.973  0.00  0.00    +0.000 A 
ATOM     21  C   UNL     1       6.687   4.707  17.880  0.00  0.00    +0.000 A 
ATOM     22  C   UNL     1       7.608   5.601  18.444  0.00  0.00    +0.000 A 
BRANCH  20  23
ATOM     23  O   UNL     1       4.916   4.229  16.378  0.00  0.00    +0.000 OA
BRANCH  23  24
ATOM     24  C   UNL     1       4.360   3.311  17.329  0.00  0.00    +0.000 C 
BRANCH  24  25
ATOM     25  C   UNL     1       2.855   3.501  17.514  0.00  0.00    +0.000 C 
BRANCH  25  26
ATOM     26  N   UNL     1       2.238   2.325  18.162  0.00  0.00    +0.000 NA
ATOM     27  C   UNL     1       0.884   2.560  18.710  0.00  0.00    +0.000 C 
ATOM     28  C   UNL     1       0.851   3.373  20.017  0.00  0.00    +0.000 C 
ATOM     29  O   UNL     1       1.738   2.841  21.008  0.00  0.00    +0.000 OA
ATOM     30  C   UNL     1       3.069   2.708  20.496  0.00  0.00    +0.000 C 
ATOM     31  C   UNL     1       3.088   1.808  19.253  0.00  0.00    +0.000 C 
ENDBRANCH  25  26
ENDBRANCH  24  25
ENDBRANCH  23  24
ENDBRANCH  20  23
ENDBRANCH   3  17
TORSDOF 6
ENDMDL
MODEL 9
REMARK VINA RESULT:      -8.6      7.403     11.383
REMARK  Name = 
REMARK  6 active torsions:
REMARK  status: ('A' for Active; 'I' for Inactive)
REMARK    1  A    between atoms: N_3  and  C_4
REMARK    2  A    between atoms: C_7  and  O_8
REMARK    3  A    between atoms: O_8  and  C_9
REMARK    4  A    between atoms: C_9  and  C_10
REMARK    5  A    between atoms: C_10  and  N_11
REMARK    6  A    between atoms: N_19  and  C_20
REMARK                            x       y       z     vdW  Elec       q    Type
REMARK                         _______ _______ _______ _____ _____    ______ ____
ROOT
ATOM      1  O   UNL     1       0.605   6.469  20.863  0.00  0.00    +0.000 OA
ATOM      2  C   UNL     1       1.626   7.130  20.748  0.00  0.00    +0.000 C 
ATOM      3  N   UNL     1       1.807   8.453  21.111  0.00  0.00    +0.000 N 
ATOM      4  N   UNL     1       2.775   6.617  20.186  0.00  0.00    +0.000 N 
ATOM      5  H   UNL     1       2.751   8.802  21.095  0.00  0.00    +0.000 HD
ATOM      6  H   UNL     1       3.372   7.311  19.765  0.00  0.00    +0.000 HD
ENDROOT
BRANCH   4   7
ATOM      7  C   UNL     1       2.851   5.274  19.598  0.00  0.00    +0.000 C 
ATOM      8  C   UNL     1       2.054   5.165  18.271  0.00  0.00    +0.000 C 
ATOM      9  C   UNL     1       2.242   3.769  17.643  0.00  0.00    +0.000 C 
ATOM     10  C   UNL     1       3.734   3.534  17.362  0.00  0.00    +0.000 C 
ATOM     11  C   UNL     1       4.534   3.609  18.672  0.00  0.00    +0.000 C 
ATOM     12  C   UNL     1       4.021   2.547  19.655  0.00  0.00    +0.000 C 
ATOM     13  C   UNL     1       2.530   2.777  19.944  0.00  0.00    +0.000 C 
ATOM     14  C   UNL     1       1.740   2.697  18.626  0.00  0.00    +0.000 C 
ATOM     15  C   UNL     1       2.345   4.173  20.567  0.00  0.00    +0.000 C 
ATOM     16  C   UNL     1       4.345   4.998  19.292  0.00  0.00    +0.000 C 
ENDBRANCH   4   7
BRANCH   3  17
ATOM     17  C   UNL     1       0.808   9.334  21.565  0.00  0.00    +0.000 A 
ATOM     18  C   UNL     1       0.313   9.286  22.862  0.00  0.00    +0.000 A 
ATOM     19  C   UNL     1      -0.682  10.159  23.276  0.00  0.00    +0.000 A 
ATOM     20  C   UNL     1      -1.181  11.136  22.416  0.00  0.00    +0.000 A 
ATOM     21  C   UNL     1      -0.724  11.171  21.101  0.00  0.00    +0.000 A 
ATOM     22  C   UNL     1       0.274  10.281  20.678  0.00  0.00    +0.000 A 
BRANCH  20  23
ATOM     23  O   UNL     1      -2.092  12.093  22.803  0.00  0.00    +0.000 OA
BRANCH  23  24
ATOM     24  C   UNL     1      -2.839  12.611  21.693  0.00  0.00    +0.000 C 
BRANCH  24  25
ATOM     25  C   UNL     1      -4.273  12.977  22.072  0.00  0.00    +0.000 C 
BRANCH  25  26
ATOM     26  N   UNL     1      -4.372  13.370  23.493  0.00  0.00    +0.000 NA
ATOM     27  C   UNL     1      -5.328  12.571  24.291  0.00  0.00    +0.000 C 
ATOM     28  C   UNL     1      -6.811  12.900  24.035  0.00  0.00    +0.000 C 
ATOM     29  O   UNL     1      -7.079  14.304  24.136  0.00  0.00    +0.000 OA
ATOM     30  C   UNL     1      -6.210  15.061  23.286  0.00  0.00    +0.000 C 
ATOM     31  C   UNL     1      -4.739  14.792  23.632  0.00  0.00    +0.000 C 
ENDBRANCH  25  26
ENDBRANCH  24  25
ENDBRANCH  23  24
ENDBRANCH  20  23
ENDBRANCH   3  17
TORSDOF 6
ENDMDL
