MODEL 1
REMARK VINA RESULT:      -8.2      0.000      0.000
REMARK  Name = 
REMARK  6 active torsions:
REMARK  status: ('A' for Active; 'I' for Inactive)
REMARK    1  A    between atoms: C_1  and  O_2
REMARK    2  A    between atoms: O_2  and  C_3
REMARK    3  A    between atoms: C_3  and  C_5
REMARK    4  A    between atoms: C_9  and  C_10
REMARK    5  A    between atoms: C_13  and  C_14
REMARK    6  A    between atoms: N_22  and  C_23
REMARK                            x       y       z     vdW  Elec       q    Type
REMARK                         _______ _______ _______ _____ _____    ______ ____
ROOT
ATOM      1  C   UNL     1       2.835   7.517  17.931  0.00  0.00    +0.000 A 
ATOM      2  N   UNL     1       2.919   8.558  17.087  0.00  0.00    +0.000 NA
ATOM      3  O   UNL     1       2.109   9.524  17.678  0.00  0.00    +0.000 OA
ATOM      4  C   UNL     1       1.613   8.972  18.823  0.00  0.00    +0.000 A 
ATOM      5  N   UNL     1       2.030   7.745  19.025  0.00  0.00    +0.000 NA
ENDROOT
BRANCH   4   6
ATOM      6  C   UNL     1       0.704   9.776  19.612  0.00  0.00    +0.000 A 
ATOM      7  C   UNL     1      -0.148  10.686  18.974  0.00  0.00    +0.000 A 
ATOM      8  N   UNL     1      -1.017  11.541  19.579  0.00  0.00    +0.000 NA
ATOM      9  C   UNL     1      -0.972  11.433  20.920  0.00  0.00    +0.000 A 
ATOM     10  C   UNL     1      -0.191  10.573  21.682  0.00  0.00    +0.000 A 
ATOM     11  C   UNL     1       0.669   9.701  21.010  0.00  0.00    +0.000 A 
ATOM     12  N   UNL     1      -0.411  10.762  23.021  0.00  0.00    +0.000 NA
ATOM     13  C   UNL     1      -1.299  11.733  23.083  0.00  0.00    +0.000 A 
ATOM     14  N   UNL     1      -1.673  12.160  21.840  0.00  0.00    +0.000 N 
ATOM     15  C   UNL     1      -2.615  13.205  21.541  0.00  0.00    +0.000 C 
ENDBRANCH   4   6
BRANCH   1  20
ATOM     16  C   UNL     1       5.588   5.076  17.171  0.00  0.00    +0.000 A 
ATOM     17  C   UNL     1       4.908   3.856  17.292  0.00  0.00    +0.000 A 
ATOM     18  C   UNL     1       3.563   3.833  17.653  0.00  0.00    +0.000 A 
ATOM     19  C   UNL     1       2.883   5.028  17.883  0.00  0.00    +0.000 A 
ATOM     20  C   UNL     1       3.544   6.259  17.755  0.00  0.00    +0.000 A 
ATOM     21  C   UNL     1       4.905   6.272  17.413  0.00  0.00    +0.000 A 
BRANCH  16  22
ATOM     22  C   UNL     1       7.013   5.051  16.753  0.00  0.00    +0.000 C 
ATOM     23  O   UNL     1       7.890   4.497  17.401  0.00  0.00    +0.000 OA
BRANCH  22  25
ATOM     24  C   UNL     1       6.969   4.893  14.426  0.00  0.00    +0.000 C 
ATOM     25  O   UNL     1       7.188   5.705  15.581  0.00  0.00    +0.000 OA
ENDBRANCH  22  25
ENDBRANCH  16  22
ENDBRANCH   1  20
TORSDOF 4
ENDMDL
MODEL 2
REMARK VINA RESULT:      -8.0      0.663      1.227
REMARK  Name = 
REMARK  6 active torsions:
REMARK  status: ('A' for Active; 'I' for Inactive)
REMARK    1  A    between atoms: C_1  and  O_2
REMARK    2  A    between atoms: O_2  and  C_3
REMARK    3  A    between atoms: C_3  and  C_5
REMARK    4  A    between atoms: C_9  and  C_10
REMARK    5  A    between atoms: C_13  and  C_14
REMARK    6  A    between atoms: N_22  and  C_23
REMARK                            x       y       z     vdW  Elec       q    Type
REMARK                         _______ _______ _______ _____ _____    ______ ____
ROOT
ATOM      1  C   UNL     1       2.691   7.576  18.075  0.00  0.00    +0.000 A 
ATOM      2  N   UNL     1       2.826   8.629  17.252  0.00  0.00    +0.000 NA
ATOM      3  O   UNL     1       2.014   9.601  17.829  0.00  0.00    +0.000 OA
ATOM      4  C   UNL     1       1.468   9.042  18.947  0.00  0.00    +0.000 A 
ATOM      5  N   UNL     1       1.854   7.804  19.144  0.00  0.00    +0.000 NA
ENDROOT
BRANCH   4   6
ATOM      6  C   UNL     1       0.547   9.852  19.717  0.00  0.00    +0.000 A 
ATOM      7  C   UNL     1      -0.360  10.689  19.054  0.00  0.00    +0.000 A 
ATOM      8  N   UNL     1      -1.248  11.541  19.637  0.00  0.00    +0.000 NA
ATOM      9  C   UNL     1      -1.161  11.511  20.979  0.00  0.00    +0.000 A 
ATOM     10  C   UNL     1      -0.324  10.729  21.765  0.00  0.00    +0.000 A 
ATOM     11  C   UNL     1       0.554   9.856  21.117  0.00  0.00    +0.000 A 
ATOM     12  N   UNL     1      -0.514  10.985  23.098  0.00  0.00    +0.000 NA
ATOM     13  C   UNL     1      -1.441  11.921  23.131  0.00  0.00    +0.000 A 
ATOM     14  N   UNL     1      -1.867  12.260  21.878  0.00  0.00    +0.000 N 
ATOM     15  C   UNL     1      -2.860  13.247  21.549  0.00  0.00    +0.000 C 
ENDBRANCH   4   6
BRANCH   1  20
ATOM     16  C   UNL     1       5.448   5.092  17.493  0.00  0.00    +0.000 A 
ATOM     17  C   UNL     1       4.726   3.892  17.453  0.00  0.00    +0.000 A 
ATOM     18  C   UNL     1       3.346   3.893  17.649  0.00  0.00    +0.000 A 
ATOM     19  C   UNL     1       2.677   5.096  17.873  0.00  0.00    +0.000 A 
ATOM     20  C   UNL     1       3.382   6.308  17.904  0.00  0.00    +0.000 A 
ATOM     21  C   UNL     1       4.774   6.294  17.729  0.00  0.00    +0.000 A 
BRANCH  16  22
ATOM     22  C   UNL     1       6.912   5.042  17.247  0.00  0.00    +0.000 C 
ATOM     23  O   UNL     1       7.421   5.347  16.178  0.00  0.00    +0.000 OA
BRANCH  22  25
ATOM     24  C   UNL     1       7.932   5.687  19.243  0.00  0.00    +0.000 C 
ATOM     25  O   UNL     1       7.577   4.628  18.350  0.00  0.00    +0.000 OA
ENDBRANCH  22  25
ENDBRANCH  16  22
ENDBRANCH   1  20
TORSDOF 4
ENDMDL
MODEL 3
REMARK VINA RESULT:      -8.0      1.570      1.937
REMARK  Name = 
REMARK  6 active torsions:
REMARK  status: ('A' for Active; 'I' for Inactive)
REMARK    1  A    between atoms: C_1  and  O_2
REMARK    2  A    between atoms: O_2  and  C_3
REMARK    3  A    between atoms: C_3  and  C_5
REMARK    4  A    between atoms: C_9  and  C_10
REMARK    5  A    between atoms: C_13  and  C_14
REMARK    6  A    between atoms: N_22  and  C_23
REMARK                            x       y       z     vdW  Elec       q    Type
REMARK                         _______ _______ _______ _____ _____    ______ ____
ROOT
ATOM      1  C   UNL     1       2.654   6.201  19.408  0.00  0.00    +0.000 A 
ATOM      2  N   UNL     1       2.087   5.654  20.496  0.00  0.00    +0.000 NA
ATOM      3  O   UNL     1       1.344   6.699  21.038  0.00  0.00    +0.000 OA
ATOM      4  C   UNL     1       1.534   7.778  20.223  0.00  0.00    +0.000 A 
ATOM      5  N   UNL     1       2.326   7.524  19.209  0.00  0.00    +0.000 NA
ENDROOT
BRANCH   4   6
ATOM      6  C   UNL     1       0.884   9.017  20.596  0.00  0.00    +0.000 A 
ATOM      7  C   UNL     1       0.922  10.109  19.721  0.00  0.00    +0.000 A 
ATOM      8  N   UNL     1       0.402  11.347  19.949  0.00  0.00    +0.000 NA
ATOM      9  C   UNL     1      -0.171  11.431  21.164  0.00  0.00    +0.000 A 
ATOM     10  C   UNL     1      -0.292  10.433  22.123  0.00  0.00    +0.000 A 
ATOM     11  C   UNL     1       0.240   9.175  21.830  0.00  0.00    +0.000 A 
ATOM     12  N   UNL     1      -0.929  10.899  23.244  0.00  0.00    +0.000 NA
ATOM     13  C   UNL     1      -1.181  12.166  22.985  0.00  0.00    +0.000 A 
ATOM     14  N   UNL     1      -0.752  12.526  21.739  0.00  0.00    +0.000 N 
ATOM     15  C   UNL     1      -0.860  13.829  21.139  0.00  0.00    +0.000 C 
ENDBRANCH   4   6
BRANCH   1  20
ATOM     16  C   UNL     1       5.463   5.458  17.027  0.00  0.00    +0.000 A 
ATOM     17  C   UNL     1       5.123   4.166  16.603  0.00  0.00    +0.000 A 
ATOM     18  C   UNL     1       3.998   3.529  17.121  0.00  0.00    +0.000 A 
ATOM     19  C   UNL     1       3.196   4.183  18.056  0.00  0.00    +0.000 A 
ATOM     20  C   UNL     1       3.513   5.481  18.481  0.00  0.00    +0.000 A 
ATOM     21  C   UNL     1       4.662   6.107  17.972  0.00  0.00    +0.000 A 
BRANCH  16  22
ATOM     22  C   UNL     1       6.654   6.108  16.422  0.00  0.00    +0.000 C 
ATOM     23  O   UNL     1       7.458   5.510  15.721  0.00  0.00    +0.000 OA
BRANCH  22  25
ATOM     24  C   UNL     1       7.808   7.759  17.599  0.00  0.00    +0.000 C 
ATOM     25  O   UNL     1       6.711   7.420  16.748  0.00  0.00    +0.000 OA
ENDBRANCH  22  25
ENDBRANCH  16  22
ENDBRANCH   1  20
TORSDOF 4
ENDMDL
MODEL 4
REMARK VINA RESULT:      -8.0      6.456      7.857
REMARK  Name = 
REMARK  6 active torsions:
REMARK  status: ('A' for Active; 'I' for Inactive)
REMARK    1  A    between atoms: C_1  and  O_2
REMARK    2  A    between atoms: O_2  and  C_3
REMARK    3  A    between atoms: C_3  and  C_5
REMARK    4  A    between atoms: C_9  and  C_10
REMARK    5  A    between atoms: C_13  and  C_14
REMARK    6  A    between atoms: N_22  and  C_23
REMARK                            x       y       z     vdW  Elec       q    Type
REMARK                         _______ _______ _______ _____ _____    ______ ____
ROOT
ATOM      1  C   UNL     1       7.332   6.860  17.638  0.00  0.00    +0.000 A 
ATOM      2  N   UNL     1       8.092   6.521  18.692  0.00  0.00    +0.000 NA
ATOM      3  O   UNL     1       8.679   7.725  19.071  0.00  0.00    +0.000 OA
ATOM      4  C   UNL     1       8.215   8.675  18.209  0.00  0.00    +0.000 A 
ATOM      5  N   UNL     1       7.385   8.197  17.314  0.00  0.00    +0.000 NA
ENDROOT
BRANCH   4   6
ATOM      6  C   UNL     1       8.710  10.026  18.376  0.00  0.00    +0.000 A 
ATOM      7  C   UNL     1       8.208  11.053  17.568  0.00  0.00    +0.000 A 
ATOM      8  N   UNL     1       8.606  12.355  17.573  0.00  0.00    +0.000 NA
ATOM      9  C   UNL     1       9.589  12.573  18.467  0.00  0.00    +0.000 A 
ATOM     10  C   UNL     1      10.171  11.658  19.336  0.00  0.00    +0.000 A 
ATOM     11  C   UNL     1       9.711  10.339  19.305  0.00  0.00    +0.000 A 
ATOM     12  N   UNL     1      11.152  12.248  20.090  0.00  0.00    +0.000 NA
ATOM     13  C   UNL     1      11.184  13.500  19.680  0.00  0.00    +0.000 A 
ATOM     14  N   UNL     1      10.252  13.742  18.711  0.00  0.00    +0.000 N 
ATOM     15  C   UNL     1      10.019  14.993  18.040  0.00  0.00    +0.000 C 
ENDBRANCH   4   6
BRANCH   1  20
ATOM     16  C   UNL     1       4.538   4.477  16.844  0.00  0.00    +0.000 A 
ATOM     17  C   UNL     1       4.906   4.047  15.562  0.00  0.00    +0.000 A 
ATOM     18  C   UNL     1       6.046   4.561  14.947  0.00  0.00    +0.000 A 
ATOM     19  C   UNL     1       6.834   5.498  15.614  0.00  0.00    +0.000 A 
ATOM     20  C   UNL     1       6.488   5.930  16.903  0.00  0.00    +0.000 A 
ATOM     21  C   UNL     1       5.325   5.425  17.505  0.00  0.00    +0.000 A 
BRANCH  16  22
ATOM     22  C   UNL     1       3.332   3.876  17.469  0.00  0.00    +0.000 C 
ATOM     23  O   UNL     1       2.454   3.317  16.828  0.00  0.00    +0.000 OA
BRANCH  22  25
ATOM     24  C   UNL     1       3.463   2.802  19.535  0.00  0.00    +0.000 C 
ATOM     25  O   UNL     1       3.353   4.030  18.814  0.00  0.00    +0.000 OA
ENDBRANCH  22  25
ENDBRANCH  16  22
ENDBRANCH   1  20
TORSDOF 4
ENDMDL
MODEL 5
REMARK VINA RESULT:      -7.9      1.645      2.352
REMARK  Name = 
REMARK  6 active torsions:
REMARK  status: ('A' for Active; 'I' for Inactive)
REMARK    1  A    between atoms: C_1  and  O_2
REMARK    2  A    between atoms: O_2  and  C_3
REMARK    3  A    between atoms: C_3  and  C_5
REMARK    4  A    between atoms: C_9  and  C_10
REMARK    5  A    between atoms: C_13  and  C_14
REMARK    6  A    between atoms: N_22  and  C_23
REMARK                            x       y       z     vdW  Elec       q    Type
REMARK                         _______ _______ _______ _____ _____    ______ ____
ROOT
ATOM      1  C   UNL     1       2.643   6.073  19.588  0.00  0.00    +0.000 A 
ATOM      2  N   UNL     1       1.995   5.526  20.630  0.00  0.00    +0.000 NA
ATOM      3  O   UNL     1       1.298   6.598  21.180  0.00  0.00    +0.000 OA
ATOM      4  C   UNL     1       1.592   7.690  20.416  0.00  0.00    +0.000 A 
ATOM      5  N   UNL     1       2.409   7.420  19.427  0.00  0.00    +0.000 NA
ENDROOT
BRANCH   4   6
ATOM      6  C   UNL     1       1.007   8.955  20.809  0.00  0.00    +0.000 A 
ATOM      7  C   UNL     1       0.830   9.245  22.167  0.00  0.00    +0.000 A 
ATOM      8  N   UNL     1       0.253  10.364  22.687  0.00  0.00    +0.000 NA
ATOM      9  C   UNL     1      -0.162  11.205  21.722  0.00  0.00    +0.000 A 
ATOM     10  C   UNL     1      -0.042  11.054  20.346  0.00  0.00    +0.000 A 
ATOM     11  C   UNL     1       0.577   9.897  19.865  0.00  0.00    +0.000 A 
ATOM     12  N   UNL     1      -0.596  12.117  19.682  0.00  0.00    +0.000 NA
ATOM     13  C   UNL     1      -1.064  12.900  20.631  0.00  0.00    +0.000 A 
ATOM     14  N   UNL     1      -0.815  12.395  21.877  0.00  0.00    +0.000 N 
ATOM     15  C   UNL     1      -1.192  12.987  23.132  0.00  0.00    +0.000 C 
ENDBRANCH   4   6
BRANCH   1  20
ATOM     16  C   UNL     1       5.708   4.893  17.765  0.00  0.00    +0.000 A 
ATOM     17  C   UNL     1       5.146   4.007  16.836  0.00  0.00    +0.000 A 
ATOM     18  C   UNL     1       3.773   3.772  16.830  0.00  0.00    +0.000 A 
ATOM     19  C   UNL     1       2.950   4.431  17.742  0.00  0.00    +0.000 A 
ATOM     20  C   UNL     1       3.494   5.331  18.671  0.00  0.00    +0.000 A 
ATOM     21  C   UNL     1       4.881   5.543  18.686  0.00  0.00    +0.000 A 
BRANCH  16  22
ATOM     22  C   UNL     1       7.173   5.133  17.712  0.00  0.00    +0.000 C 
ATOM     23  O   UNL     1       7.983   4.468  18.340  0.00  0.00    +0.000 OA
BRANCH  22  25
ATOM     24  C   UNL     1       7.620   7.417  17.553  0.00  0.00    +0.000 C 
ATOM     25  O   UNL     1       7.468   6.163  16.885  0.00  0.00    +0.000 OA
ENDBRANCH  22  25
ENDBRANCH  16  22
ENDBRANCH   1  20
TORSDOF 4
ENDMDL
MODEL 6
REMARK VINA RESULT:      -7.9      0.548      1.446
REMARK  Name = 
REMARK  6 active torsions:
REMARK  status: ('A' for Active; 'I' for Inactive)
REMARK    1  A    between atoms: C_1  and  O_2
REMARK    2  A    between atoms: O_2  and  C_3
REMARK    3  A    between atoms: C_3  and  C_5
REMARK    4  A    between atoms: C_9  and  C_10
REMARK    5  A    between atoms: C_13  and  C_14
REMARK    6  A    between atoms: N_22  and  C_23
REMARK                            x       y       z     vdW  Elec       q    Type
REMARK                         _______ _______ _______ _____ _____    ______ ____
ROOT
ATOM      1  C   UNL     1       2.833   7.586  17.973  0.00  0.00    +0.000 A 
ATOM      2  N   UNL     1       2.874   8.569  17.060  0.00  0.00    +0.000 NA
ATOM      3  O   UNL     1       2.088   9.571  17.623  0.00  0.00    +0.000 OA
ATOM      4  C   UNL     1       1.649   9.094  18.824  0.00  0.00    +0.000 A 
ATOM      5  N   UNL     1       2.081   7.884  19.086  0.00  0.00    +0.000 NA
ENDROOT
BRANCH   4   6
ATOM      6  C   UNL     1       0.775   9.948  19.601  0.00  0.00    +0.000 A 
ATOM      7  C   UNL     1       0.971  10.069  20.982  0.00  0.00    +0.000 A 
ATOM      8  N   UNL     1       0.207  10.790  21.848  0.00  0.00    +0.000 NA
ATOM      9  C   UNL     1      -0.817  11.399  21.222  0.00  0.00    +0.000 A 
ATOM     10  C   UNL     1      -1.125  11.377  19.867  0.00  0.00    +0.000 A 
ATOM     11  C   UNL     1      -0.296  10.639  19.018  0.00  0.00    +0.000 A 
ATOM     12  N   UNL     1      -2.253  12.110  19.604  0.00  0.00    +0.000 NA
ATOM     13  C   UNL     1      -2.643  12.560  20.779  0.00  0.00    +0.000 A 
ATOM     14  N   UNL     1      -1.800  12.165  21.781  0.00  0.00    +0.000 N 
ATOM     15  C   UNL     1      -1.930  12.472  23.180  0.00  0.00    +0.000 C 
ENDBRANCH   4   6
BRANCH   1  20
ATOM     16  C   UNL     1       5.575   5.108  17.293  0.00  0.00    +0.000 A 
ATOM     17  C   UNL     1       4.896   3.897  17.478  0.00  0.00    +0.000 A 
ATOM     18  C   UNL     1       3.555   3.892  17.856  0.00  0.00    +0.000 A 
ATOM     19  C   UNL     1       2.879   5.098  18.039  0.00  0.00    +0.000 A 
ATOM     20  C   UNL     1       3.539   6.320  17.846  0.00  0.00    +0.000 A 
ATOM     21  C   UNL     1       4.896   6.315  17.488  0.00  0.00    +0.000 A 
BRANCH  16  22
ATOM     22  C   UNL     1       6.995   5.061  16.859  0.00  0.00    +0.000 C 
ATOM     23  O   UNL     1       7.871   4.499  17.499  0.00  0.00    +0.000 OA
BRANCH  22  25
ATOM     24  C   UNL     1       6.960   4.885  14.533  0.00  0.00    +0.000 C 
ATOM     25  O   UNL     1       7.166   5.709  15.683  0.00  0.00    +0.000 OA
ENDBRANCH  22  25
ENDBRANCH  16  22
ENDBRANCH   1  20
TORSDOF 4
ENDMDL
MODEL 7
REMARK VINA RESULT:      -7.8      1.750      2.633
REMARK  Name = 
REMARK  6 active torsions:
REMARK  status: ('A' for Active; 'I' for Inactive)
REMARK    1  A    between atoms: C_1  and  O_2
REMARK    2  A    between atoms: O_2  and  C_3
REMARK    3  A    between atoms: C_3  and  C_5
REMARK    4  A    between atoms: C_9  and  C_10
REMARK    5  A    between atoms: C_13  and  C_14
REMARK    6  A    between atoms: N_22  and  C_23
REMARK                            x       y       z     vdW  Elec       q    Type
REMARK                         _______ _______ _______ _____ _____    ______ ____
ROOT
ATOM      1  C   UNL     1       2.765   7.658  18.082  0.00  0.00    +0.000 A 
ATOM      2  N   UNL     1       2.673   8.593  17.122  0.00  0.00    +0.000 NA
ATOM      3  O   UNL     1       1.807   9.537  17.668  0.00  0.00    +0.000 OA
ATOM      4  C   UNL     1       1.460   9.079  18.906  0.00  0.00    +0.000 A 
ATOM      5  N   UNL     1       2.022   7.934  19.208  0.00  0.00    +0.000 NA
ENDROOT
BRANCH   4   6
ATOM      6  C   UNL     1       0.527   9.878  19.674  0.00  0.00    +0.000 A 
ATOM      7  C   UNL     1      -0.422  10.664  19.010  0.00  0.00    +0.000 A 
ATOM      8  N   UNL     1      -1.328  11.500  19.589  0.00  0.00    +0.000 NA
ATOM      9  C   UNL     1      -1.212  11.509  20.930  0.00  0.00    +0.000 A 
ATOM     10  C   UNL     1      -0.332  10.777  21.717  0.00  0.00    +0.000 A 
ATOM     11  C   UNL     1       0.563   9.918  21.073  0.00  0.00    +0.000 A 
ATOM     12  N   UNL     1      -0.504  11.061  23.047  0.00  0.00    +0.000 NA
ATOM     13  C   UNL     1      -1.461  11.965  23.076  0.00  0.00    +0.000 A 
ATOM     14  N   UNL     1      -1.925  12.257  21.824  0.00  0.00    +0.000 N 
ATOM     15  C   UNL     1      -2.959  13.200  21.492  0.00  0.00    +0.000 C 
ENDBRANCH   4   6
BRANCH   1  20
ATOM     16  C   UNL     1       4.154   4.241  18.797  0.00  0.00    +0.000 A 
ATOM     17  C   UNL     1       5.243   4.203  17.917  0.00  0.00    +0.000 A 
ATOM     18  C   UNL     1       5.502   5.278  17.069  0.00  0.00    +0.000 A 
ATOM     19  C   UNL     1       4.681   6.405  17.105  0.00  0.00    +0.000 A 
ATOM     20  C   UNL     1       3.594   6.466  17.988  0.00  0.00    +0.000 A 
ATOM     21  C   UNL     1       3.327   5.368  18.822  0.00  0.00    +0.000 A 
BRANCH  16  22
ATOM     22  C   UNL     1       3.938   3.083  19.702  0.00  0.00    +0.000 C 
ATOM     23  O   UNL     1       4.833   2.323  20.041  0.00  0.00    +0.000 OA
BRANCH  22  25
ATOM     24  C   UNL     1       1.855   2.115  19.294  0.00  0.00    +0.000 C 
ATOM     25  O   UNL     1       2.643   3.003  20.089  0.00  0.00    +0.000 OA
ENDBRANCH  22  25
ENDBRANCH  16  22
ENDBRANCH   1  20
TORSDOF 4
ENDMDL
MODEL 8
REMARK VINA RESULT:      -7.7      6.529      7.755
REMARK  Name = 
REMARK  6 active torsions:
REMARK  status: ('A' for Active; 'I' for Inactive)
REMARK    1  A    between atoms: C_1  and  O_2
REMARK    2  A    between atoms: O_2  and  C_3
REMARK    3  A    between atoms: C_3  and  C_5
REMARK    4  A    between atoms: C_9  and  C_10
REMARK    5  A    between atoms: C_13  and  C_14
REMARK    6  A    between atoms: N_22  and  C_23
REMARK                            x       y       z     vdW  Elec       q    Type
REMARK                         _______ _______ _______ _____ _____    ______ ____
ROOT
ATOM      1  C   UNL     1       7.329   6.731  17.629  0.00  0.00    +0.000 A 
ATOM      2  N   UNL     1       8.059   6.397  18.705  0.00  0.00    +0.000 NA
ATOM      3  O   UNL     1       8.639   7.601  19.093  0.00  0.00    +0.000 OA
ATOM      4  C   UNL     1       8.203   8.547  18.212  0.00  0.00    +0.000 A 
ATOM      5  N   UNL     1       7.396   8.066  17.298  0.00  0.00    +0.000 NA
ENDROOT
BRANCH   4   6
ATOM      6  C   UNL     1       8.699   9.897  18.384  0.00  0.00    +0.000 A 
ATOM      7  C   UNL     1       9.683  10.157  19.346  0.00  0.00    +0.000 A 
ATOM      8  N   UNL     1      10.210  11.373  19.656  0.00  0.00    +0.000 NA
ATOM      9  C   UNL     1       9.659  12.358  18.921  0.00  0.00    +0.000 A 
ATOM     10  C   UNL     1       8.690  12.246  17.931  0.00  0.00    +0.000 A 
ATOM     11  C   UNL     1       8.198  10.971  17.637  0.00  0.00    +0.000 A 
ATOM     12  N   UNL     1       8.370  13.473  17.412  0.00  0.00    +0.000 NA
ATOM     13  C   UNL     1       9.116  14.327  18.083  0.00  0.00    +0.000 A 
ATOM     14  N   UNL     1       9.916  13.697  18.994  0.00  0.00    +0.000 N 
ATOM     15  C   UNL     1      10.847  14.324  19.895  0.00  0.00    +0.000 C 
ENDBRANCH   4   6
BRANCH   1  20
ATOM     16  C   UNL     1       4.575   4.318  16.789  0.00  0.00    +0.000 A 
ATOM     17  C   UNL     1       4.953   3.913  15.502  0.00  0.00    +0.000 A 
ATOM     18  C   UNL     1       6.087   4.454  14.899  0.00  0.00    +0.000 A 
ATOM     19  C   UNL     1       6.859   5.392  15.584  0.00  0.00    +0.000 A 
ATOM     20  C   UNL     1       6.502   5.799  16.877  0.00  0.00    +0.000 A 
ATOM     21  C   UNL     1       5.345   5.268  17.468  0.00  0.00    +0.000 A 
BRANCH  16  22
ATOM     22  C   UNL     1       3.376   3.690  17.401  0.00  0.00    +0.000 C 
ATOM     23  O   UNL     1       2.379   3.388  16.762  0.00  0.00    +0.000 OA
BRANCH  22  25
ATOM     24  C   UNL     1       3.767   2.138  19.098  0.00  0.00    +0.000 C 
ATOM     25  O   UNL     1       3.550   3.501  18.730  0.00  0.00    +0.000 OA
ENDBRANCH  22  25
ENDBRANCH  16  22
ENDBRANCH   1  20
TORSDOF 4
ENDMDL
MODEL 9
REMARK VINA RESULT:      -7.7      1.503      1.736
REMARK  Name = 
REMARK  6 active torsions:
REMARK  status: ('A' for Active; 'I' for Inactive)
REMARK    1  A    between atoms: C_1  and  O_2
REMARK    2  A    between atoms: O_2  and  C_3
REMARK    3  A    between atoms: C_3  and  C_5
REMARK    4  A    between atoms: C_9  and  C_10
REMARK    5  A    between atoms: C_13  and  C_14
REMARK    6  A    between atoms: N_22  and  C_23
REMARK                            x       y       z     vdW  Elec       q    Type
REMARK                         _______ _______ _______ _____ _____    ______ ____
ROOT
ATOM      1  C   UNL     1       2.644   6.129  19.419  0.00  0.00    +0.000 A 
ATOM      2  N   UNL     1       2.099   5.672  20.558  0.00  0.00    +0.000 NA
ATOM      3  O   UNL     1       1.404   6.773  21.053  0.00  0.00    +0.000 OA
ATOM      4  C   UNL     1       1.597   7.789  20.163  0.00  0.00    +0.000 A 
ATOM      5  N   UNL     1       2.346   7.445  19.143  0.00  0.00    +0.000 NA
ENDROOT
BRANCH   4   6
ATOM      6  C   UNL     1       0.995   9.069  20.472  0.00  0.00    +0.000 A 
ATOM      7  C   UNL     1       1.008  10.091  19.515  0.00  0.00    +0.000 A 
ATOM      8  N   UNL     1       0.529  11.355  19.675  0.00  0.00    +0.000 NA
ATOM      9  C   UNL     1       0.024  11.546  20.908  0.00  0.00    +0.000 A 
ATOM     10  C   UNL     1      -0.066  10.626  21.946  0.00  0.00    +0.000 A 
ATOM     11  C   UNL     1       0.422   9.336  21.722  0.00  0.00    +0.000 A 
ATOM     12  N   UNL     1      -0.632  11.192  23.059  0.00  0.00    +0.000 NA
ATOM     13  C   UNL     1      -0.870  12.441  22.717  0.00  0.00    +0.000 A 
ATOM     14  N   UNL     1      -0.501  12.696  21.426  0.00  0.00    +0.000 N 
ATOM     15  C   UNL     1      -0.613  13.952  20.734  0.00  0.00    +0.000 C 
ENDBRANCH   4   6
BRANCH   1  20
ATOM     16  C   UNL     1       5.268   5.177  16.905  0.00  0.00    +0.000 A 
ATOM     17  C   UNL     1       4.949   3.831  16.678  0.00  0.00    +0.000 A 
ATOM     18  C   UNL     1       3.900   3.230  17.371  0.00  0.00    +0.000 A 
ATOM     19  C   UNL     1       3.153   3.973  18.285  0.00  0.00    +0.000 A 
ATOM     20  C   UNL     1       3.450   5.324  18.515  0.00  0.00    +0.000 A 
ATOM     21  C   UNL     1       4.524   5.915  17.831  0.00  0.00    +0.000 A 
BRANCH  16  22
ATOM     22  C   UNL     1       6.375   5.781  16.120  0.00  0.00    +0.000 C 
ATOM     23  O   UNL     1       7.370   6.271  16.635  0.00  0.00    +0.000 OA
BRANCH  22  25
ATOM     24  C   UNL     1       7.041   4.864  14.082  0.00  0.00    +0.000 C 
ATOM     25  O   UNL     1       6.128   5.703  14.792  0.00  0.00    +0.000 OA
ENDBRANCH  22  25
ENDBRANCH  16  22
ENDBRANCH   1  20
TORSDOF 4
ENDMDL
