MODEL 1
REMARK VINA RESULT:      -7.6      0.000      0.000
REMARK  Name = 
REMARK  9 active torsions:
REMARK  status: ('A' for Active; 'I' for Inactive)
REMARK    1  A    between atoms: C_1  and  O_2
REMARK    2  A    between atoms: O_2  and  C_3
REMARK    3  A    between atoms: C_5  and  C_6
REMARK    4  A    between atoms: C_6  and  C_8
REMARK    5  A    between atoms: N_15  and  C_16
REMARK    6  A    between atoms: C_19  and  O_20
REMARK    7  A    between atoms: O_20  and  C_21
REMARK    8  A    between atoms: C_22  and  O_23
REMARK    9  A    between atoms: O_23  and  C_24
REMARK                            x       y       z     vdW  Elec       q    Type
REMARK                         _______ _______ _______ _____ _____    ______ ____
ROOT
ATOM      1  C   UNL     1       6.163   3.968  14.425  0.00  0.00    +0.000 A 
ATOM      2  C   UNL     1       5.056   3.573  15.188  0.00  0.00    +0.000 A 
ATOM      3  C   UNL     1       4.750   4.234  16.373  0.00  0.00    +0.000 A 
ATOM      4  C   UNL     1       5.652   5.157  16.893  0.00  0.00    +0.000 A 
ATOM      5  C   UNL     1       6.772   5.563  16.153  0.00  0.00    +0.000 A 
ATOM      6  C   UNL     1       7.029   4.984  14.891  0.00  0.00    +0.000 A 
ENDROOT
BRANCH   1   8
ATOM      7  C   UNL     1       5.347   3.345  12.292  0.00  0.00    +0.000 C 
ATOM      8  O   UNL     1       6.424   3.346  13.231  0.00  0.00    +0.000 OA
ENDBRANCH   1   8
BRANCH   3   9
ATOM      9  C   UNL     1       3.395   4.022  16.953  0.00  0.00    +0.000 C 
ATOM     10  O   UNL     1       2.590   3.350  16.308  0.00  0.00    +0.000 OA
BRANCH   9  11
ATOM     11  C   UNL     1       2.983   4.726  18.204  0.00  0.00    +0.000 A 
ATOM     12  C   UNL     1       2.655   6.102  18.139  0.00  0.00    +0.000 A 
ATOM     13  C   UNL     1       2.299   6.834  19.261  0.00  0.00    +0.000 A 
ATOM     14  C   UNL     1       2.176   6.196  20.489  0.00  0.00    +0.000 A 
ATOM     15  C   UNL     1       2.413   4.809  20.590  0.00  0.00    +0.000 A 
ATOM     16  C   UNL     1       2.302   3.913  21.677  0.00  0.00    +0.000 A 
ATOM     17  C   UNL     1       2.656   2.668  21.224  0.00  0.00    +0.000 A 
ATOM     18  N   UNL     1       3.017   2.780  19.902  0.00  0.00    +0.000 N 
ATOM     19  C   UNL     1       3.531   1.651  19.158  0.00  0.00    +0.000 C 
ATOM     20  C   UNL     1       2.831   4.081  19.457  0.00  0.00    +0.000 A 
ENDBRANCH   9  11
ENDBRANCH   3   9
BRANCH   5  21
ATOM     21  O   UNL     1       7.442   6.566  16.804  0.00  0.00    +0.000 OA
ATOM     22  C   UNL     1       7.627   6.498  18.208  0.00  0.00    +0.000 C 
ENDBRANCH   5  21
BRANCH   6  23
ATOM     23  O   UNL     1       8.136   5.434  14.215  0.00  0.00    +0.000 OA
ATOM     24  C   UNL     1       8.020   5.704  12.823  0.00  0.00    +0.000 C 
ENDBRANCH   6  23
TORSDOF 5
ENDMDL
MODEL 2
REMARK VINA RESULT:      -7.1      0.248      2.688
REMARK  Name = 
REMARK  9 active torsions:
REMARK  status: ('A' for Active; 'I' for Inactive)
REMARK    1  A    between atoms: C_1  and  O_2
REMARK    2  A    between atoms: O_2  and  C_3
REMARK    3  A    between atoms: C_5  and  C_6
REMARK    4  A    between atoms: C_6  and  C_8
REMARK    5  A    between atoms: N_15  and  C_16
REMARK    6  A    between atoms: C_19  and  O_20
REMARK    7  A    between atoms: O_20  and  C_21
REMARK    8  A    between atoms: C_22  and  O_23
REMARK    9  A    between atoms: O_23  and  C_24
REMARK                            x       y       z     vdW  Elec       q    Type
REMARK                         _______ _______ _______ _____ _____    ______ ____
ROOT
ATOM      1  C   UNL     1       6.504   5.781  16.164  0.00  0.00    +0.000 A 
ATOM      2  C   UNL     1       5.250   5.494  16.717  0.00  0.00    +0.000 A 
ATOM      3  C   UNL     1       4.441   4.513  16.151  0.00  0.00    +0.000 A 
ATOM      4  C   UNL     1       4.798   3.958  14.926  0.00  0.00    +0.000 A 
ATOM      5  C   UNL     1       6.045   4.236  14.347  0.00  0.00    +0.000 A 
ATOM      6  C   UNL     1       6.927   5.141  14.976  0.00  0.00    +0.000 A 
ENDROOT
BRANCH   1   8
ATOM      7  C   UNL     1       7.559   6.505  18.156  0.00  0.00    +0.000 C 
ATOM      8  O   UNL     1       7.315   6.710  16.763  0.00  0.00    +0.000 OA
ENDBRANCH   1   8
BRANCH   3   9
ATOM      9  C   UNL     1       3.301   4.004  16.961  0.00  0.00    +0.000 C 
ATOM     10  O   UNL     1       2.631   3.081  16.498  0.00  0.00    +0.000 OA
BRANCH   9  11
ATOM     11  C   UNL     1       2.896   4.690  18.224  0.00  0.00    +0.000 A 
ATOM     12  C   UNL     1       2.532   6.057  18.175  0.00  0.00    +0.000 A 
ATOM     13  C   UNL     1       2.180   6.774  19.309  0.00  0.00    +0.000 A 
ATOM     14  C   UNL     1       2.100   6.125  20.535  0.00  0.00    +0.000 A 
ATOM     15  C   UNL     1       2.374   4.745  20.623  0.00  0.00    +0.000 A 
ATOM     16  C   UNL     1       2.309   3.839  21.706  0.00  0.00    +0.000 A 
ATOM     17  C   UNL     1       2.686   2.607  21.238  0.00  0.00    +0.000 A 
ATOM     18  N   UNL     1       3.016   2.735  19.909  0.00  0.00    +0.000 N 
ATOM     19  C   UNL     1       3.543   1.624  19.148  0.00  0.00    +0.000 C 
ATOM     20  C   UNL     1       2.788   4.034  19.476  0.00  0.00    +0.000 A 
ENDBRANCH   9  11
ENDBRANCH   3   9
BRANCH   5  21
ATOM     21  O   UNL     1       6.230   3.483  13.216  0.00  0.00    +0.000 OA
ATOM     22  C   UNL     1       5.167   3.323  12.292  0.00  0.00    +0.000 C 
ENDBRANCH   5  21
BRANCH   6  23
ATOM     23  O   UNL     1       8.135   5.360  14.362  0.00  0.00    +0.000 OA
ATOM     24  C   UNL     1       8.150   5.631  12.965  0.00  0.00    +0.000 C 
ENDBRANCH   6  23
TORSDOF 5
ENDMDL
MODEL 3
REMARK VINA RESULT:      -7.0      1.524      2.950
REMARK  Name = 
REMARK  9 active torsions:
REMARK  status: ('A' for Active; 'I' for Inactive)
REMARK    1  A    between atoms: C_1  and  O_2
REMARK    2  A    between atoms: O_2  and  C_3
REMARK    3  A    between atoms: C_5  and  C_6
REMARK    4  A    between atoms: C_6  and  C_8
REMARK    5  A    between atoms: N_15  and  C_16
REMARK    6  A    between atoms: C_19  and  O_20
REMARK    7  A    between atoms: O_20  and  C_21
REMARK    8  A    between atoms: C_22  and  O_23
REMARK    9  A    between atoms: O_23  and  C_24
REMARK                            x       y       z     vdW  Elec       q    Type
REMARK                         _______ _______ _______ _____ _____    ______ ____
ROOT
ATOM      1  C   UNL     1       6.247   5.388  16.069  0.00  0.00    +0.000 A 
ATOM      2  C   UNL     1       5.147   4.529  16.181  0.00  0.00    +0.000 A 
ATOM      3  C   UNL     1       4.680   4.149  17.435  0.00  0.00    +0.000 A 
ATOM      4  C   UNL     1       5.424   4.468  18.567  0.00  0.00    +0.000 A 
ATOM      5  C   UNL     1       6.535   5.320  18.480  0.00  0.00    +0.000 A 
ATOM      6  C   UNL     1       6.948   5.810  17.222  0.00  0.00    +0.000 A 
ENDROOT
BRANCH   1   8
ATOM      7  C   UNL     1       6.842   4.760  13.865  0.00  0.00    +0.000 C 
ATOM      8  O   UNL     1       6.665   5.800  14.829  0.00  0.00    +0.000 OA
ENDBRANCH   1   8
BRANCH   3   9
ATOM      9  C   UNL     1       3.324   3.539  17.513  0.00  0.00    +0.000 C 
ATOM     10  O   UNL     1       2.827   3.103  16.475  0.00  0.00    +0.000 OA
BRANCH   9  11
ATOM     11  C   UNL     1       2.537   3.590  18.781  0.00  0.00    +0.000 A 
ATOM     12  C   UNL     1       2.197   2.376  19.426  0.00  0.00    +0.000 A 
ATOM     13  C   UNL     1       1.437   2.336  20.585  0.00  0.00    +0.000 A 
ATOM     14  C   UNL     1       1.053   3.524  21.196  0.00  0.00    +0.000 A 
ATOM     15  C   UNL     1       1.435   4.761  20.637  0.00  0.00    +0.000 A 
ATOM     16  C   UNL     1       1.241   6.091  21.073  0.00  0.00    +0.000 A 
ATOM     17  C   UNL     1       1.819   6.919  20.146  0.00  0.00    +0.000 A 
ATOM     18  N   UNL     1       2.330   6.140  19.136  0.00  0.00    +0.000 N 
ATOM     19  C   UNL     1       2.928   6.725  17.955  0.00  0.00    +0.000 C 
ATOM     20  C   UNL     1       2.159   4.794  19.426  0.00  0.00    +0.000 A 
ENDBRANCH   9  11
ENDBRANCH   3   9
BRANCH   5  21
ATOM     21  O   UNL     1       7.031   5.596  19.727  0.00  0.00    +0.000 OA
ATOM     22  C   UNL     1       8.381   5.291  20.034  0.00  0.00    +0.000 C 
ENDBRANCH   5  21
BRANCH   6  23
ATOM     23  O   UNL     1       8.036   6.647  17.208  0.00  0.00    +0.000 OA
ATOM     24  C   UNL     1       7.842   8.023  17.519  0.00  0.00    +0.000 C 
ENDBRANCH   6  23
TORSDOF 5
ENDMDL
MODEL 4
REMARK VINA RESULT:      -6.7      7.683     10.870
REMARK  Name = 
REMARK  9 active torsions:
REMARK  status: ('A' for Active; 'I' for Inactive)
REMARK    1  A    between atoms: C_1  and  O_2
REMARK    2  A    between atoms: O_2  and  C_3
REMARK    3  A    between atoms: C_5  and  C_6
REMARK    4  A    between atoms: C_6  and  C_8
REMARK    5  A    between atoms: N_15  and  C_16
REMARK    6  A    between atoms: C_19  and  O_20
REMARK    7  A    between atoms: O_20  and  C_21
REMARK    8  A    between atoms: C_22  and  O_23
REMARK    9  A    between atoms: O_23  and  C_24
REMARK                            x       y       z     vdW  Elec       q    Type
REMARK                         _______ _______ _______ _____ _____    ______ ____
ROOT
ATOM      1  C   UNL     1      -3.724  11.265  17.543  0.00  0.00    +0.000 A 
ATOM      2  C   UNL     1      -2.432  11.555  17.999  0.00  0.00    +0.000 A 
ATOM      3  C   UNL     1      -2.243  12.135  19.249  0.00  0.00    +0.000 A 
ATOM      4  C   UNL     1      -3.345  12.600  19.959  0.00  0.00    +0.000 A 
ATOM      5  C   UNL     1      -4.649  12.330  19.520  0.00  0.00    +0.000 A 
ATOM      6  C   UNL     1      -4.854  11.634  18.309  0.00  0.00    +0.000 A 
ENDROOT
BRANCH   1   8
ATOM      7  C   UNL     1      -2.760  10.667  15.466  0.00  0.00    +0.000 C 
ATOM      8  O   UNL     1      -3.895  10.643  16.333  0.00  0.00    +0.000 OA
ENDBRANCH   1   8
BRANCH   3   9
ATOM      9  C   UNL     1      -0.872  12.098  19.829  0.00  0.00    +0.000 C 
ATOM     10  O   UNL     1      -0.013  12.823  19.327  0.00  0.00    +0.000 OA
BRANCH   9  11
ATOM     11  C   UNL     1      -0.518  11.105  20.887  0.00  0.00    +0.000 A 
ATOM     12  C   UNL     1      -1.070  11.259  22.182  0.00  0.00    +0.000 A 
ATOM     13  C   UNL     1      -0.761  10.401  23.228  0.00  0.00    +0.000 A 
ATOM     14  C   UNL     1       0.054   9.300  22.996  0.00  0.00    +0.000 A 
ATOM     15  C   UNL     1       0.563   9.058  21.704  0.00  0.00    +0.000 A 
ATOM     16  C   UNL     1       1.346   8.003  21.183  0.00  0.00    +0.000 A 
ATOM     17  C   UNL     1       1.562   8.265  19.855  0.00  0.00    +0.000 A 
ATOM     18  N   UNL     1       0.966   9.466  19.552  0.00  0.00    +0.000 N 
ATOM     19  C   UNL     1       1.093  10.067  18.242  0.00  0.00    +0.000 C 
ATOM     20  C   UNL     1       0.292   9.965  20.658  0.00  0.00    +0.000 A 
ENDBRANCH   9  11
ENDBRANCH   3   9
BRANCH   5  21
ATOM     21  O   UNL     1      -5.568  12.769  20.438  0.00  0.00    +0.000 OA
ATOM     22  C   UNL     1      -5.220  12.832  21.811  0.00  0.00    +0.000 C 
ENDBRANCH   5  21
BRANCH   6  23
ATOM     23  O   UNL     1      -6.155  11.394  17.942  0.00  0.00    +0.000 OA
ATOM     24  C   UNL     1      -6.912  12.459  17.379  0.00  0.00    +0.000 C 
ENDBRANCH   6  23
TORSDOF 5
ENDMDL
MODEL 5
REMARK VINA RESULT:      -6.6      7.985     11.333
REMARK  Name = 
REMARK  9 active torsions:
REMARK  status: ('A' for Active; 'I' for Inactive)
REMARK    1  A    between atoms: C_1  and  O_2
REMARK    2  A    between atoms: O_2  and  C_3
REMARK    3  A    between atoms: C_5  and  C_6
REMARK    4  A    between atoms: C_6  and  C_8
REMARK    5  A    between atoms: N_15  and  C_16
REMARK    6  A    between atoms: C_19  and  O_20
REMARK    7  A    between atoms: O_20  and  C_21
REMARK    8  A    between atoms: C_22  and  O_23
REMARK    9  A    between atoms: O_23  and  C_24
REMARK                            x       y       z     vdW  Elec       q    Type
REMARK                         _______ _______ _______ _____ _____    ______ ____
ROOT
ATOM      1  C   UNL     1      -4.969  12.538  19.342  0.00  0.00    +0.000 A 
ATOM      2  C   UNL     1      -3.712  12.373  19.938  0.00  0.00    +0.000 A 
ATOM      3  C   UNL     1      -2.659  11.825  19.213  0.00  0.00    +0.000 A 
ATOM      4  C   UNL     1      -2.909  11.267  17.963  0.00  0.00    +0.000 A 
ATOM      5  C   UNL     1      -4.161  11.411  17.348  0.00  0.00    +0.000 A 
ATOM      6  C   UNL     1      -5.206  12.073  18.028  0.00  0.00    +0.000 A 
ENDROOT
BRANCH   1   8
ATOM      7  C   UNL     1      -6.672  12.276  20.965  0.00  0.00    +0.000 C 
ATOM      8  O   UNL     1      -5.985  13.130  20.049  0.00  0.00    +0.000 OA
ENDBRANCH   1   8
BRANCH   3   9
ATOM      9  C   UNL     1      -1.283  11.994  19.755  0.00  0.00    +0.000 C 
ATOM     10  O   UNL     1      -0.536  12.796  19.195  0.00  0.00    +0.000 OA
BRANCH   9  11
ATOM     11  C   UNL     1      -0.782  11.111  20.850  0.00  0.00    +0.000 A 
ATOM     12  C   UNL     1      -1.275  11.302  22.164  0.00  0.00    +0.000 A 
ATOM     13  C   UNL     1      -0.832  10.549  23.241  0.00  0.00    +0.000 A 
ATOM     14  C   UNL     1       0.069   9.512  23.031  0.00  0.00    +0.000 A 
ATOM     15  C   UNL     1       0.528   9.229  21.728  0.00  0.00    +0.000 A 
ATOM     16  C   UNL     1       1.377   8.216  21.229  0.00  0.00    +0.000 A 
ATOM     17  C   UNL     1       1.496   8.405  19.876  0.00  0.00    +0.000 A 
ATOM     18  N   UNL     1       0.775   9.525  19.535  0.00  0.00    +0.000 N 
ATOM     19  C   UNL     1       0.775  10.044  18.185  0.00  0.00    +0.000 C 
ATOM     20  C   UNL     1       0.118  10.036  20.645  0.00  0.00    +0.000 A 
ENDBRANCH   9  11
ENDBRANCH   3   9
BRANCH   5  21
ATOM     21  O   UNL     1      -4.137  10.898  16.077  0.00  0.00    +0.000 OA
ATOM     22  C   UNL     1      -2.906  10.794  15.380  0.00  0.00    +0.000 C 
ENDBRANCH   5  21
BRANCH   6  23
ATOM     23  O   UNL     1      -6.403  12.188  17.366  0.00  0.00    +0.000 OA
ATOM     24  C   UNL     1      -6.811  13.475  16.915  0.00  0.00    +0.000 C 
ENDBRANCH   6  23
TORSDOF 5
ENDMDL
MODEL 6
REMARK VINA RESULT:      -6.5      7.425     10.569
REMARK  Name = 
REMARK  9 active torsions:
REMARK  status: ('A' for Active; 'I' for Inactive)
REMARK    1  A    between atoms: C_1  and  O_2
REMARK    2  A    between atoms: O_2  and  C_3
REMARK    3  A    between atoms: C_5  and  C_6
REMARK    4  A    between atoms: C_6  and  C_8
REMARK    5  A    between atoms: N_15  and  C_16
REMARK    6  A    between atoms: C_19  and  O_20
REMARK    7  A    between atoms: O_20  and  C_21
REMARK    8  A    between atoms: C_22  and  O_23
REMARK    9  A    between atoms: O_23  and  C_24
REMARK                            x       y       z     vdW  Elec       q    Type
REMARK                         _______ _______ _______ _____ _____    ______ ____
ROOT
ATOM      1  C   UNL     1      -3.505  11.294  17.073  0.00  0.00    +0.000 A 
ATOM      2  C   UNL     1      -2.163  11.588  17.345  0.00  0.00    +0.000 A 
ATOM      3  C   UNL     1      -1.783  12.024  18.611  0.00  0.00    +0.000 A 
ATOM      4  C   UNL     1      -2.764  12.349  19.543  0.00  0.00    +0.000 A 
ATOM      5  C   UNL     1      -4.115  12.072  19.292  0.00  0.00    +0.000 A 
ATOM      6  C   UNL     1      -4.501  11.518  18.052  0.00  0.00    +0.000 A 
ENDROOT
BRANCH   1   8
ATOM      7  C   UNL     1      -2.869  10.021  15.182  0.00  0.00    +0.000 C 
ATOM      8  O   UNL     1      -3.859  10.814  15.838  0.00  0.00    +0.000 OA
ENDBRANCH   1   8
BRANCH   3   9
ATOM      9  C   UNL     1      -0.335  11.982  18.951  0.00  0.00    +0.000 C 
ATOM     10  O   UNL     1       0.278  13.048  18.996  0.00  0.00    +0.000 OA
BRANCH   9  11
ATOM     11  C   UNL     1       0.379  10.678  19.087  0.00  0.00    +0.000 A 
ATOM     12  C   UNL     1       0.971  10.098  17.939  0.00  0.00    +0.000 A 
ATOM     13  C   UNL     1       1.619   8.873  17.975  0.00  0.00    +0.000 A 
ATOM     14  C   UNL     1       1.774   8.212  19.187  0.00  0.00    +0.000 A 
ATOM     15  C   UNL     1       1.273   8.787  20.373  0.00  0.00    +0.000 A 
ATOM     16  C   UNL     1       1.344   8.373  21.723  0.00  0.00    +0.000 A 
ATOM     17  C   UNL     1       0.683   9.308  22.477  0.00  0.00    +0.000 A 
ATOM     18  N   UNL     1       0.177  10.263  21.629  0.00  0.00    +0.000 N 
ATOM     19  C   UNL     1      -0.655  11.344  22.113  0.00  0.00    +0.000 C 
ATOM     20  C   UNL     1       0.564  10.006  20.322  0.00  0.00    +0.000 A 
ENDBRANCH   9  11
ENDBRANCH   3   9
BRANCH   5  21
ATOM     21  O   UNL     1      -4.880  12.356  20.394  0.00  0.00    +0.000 OA
ATOM     22  C   UNL     1      -5.194  13.702  20.707  0.00  0.00    +0.000 C 
ENDBRANCH   5  21
BRANCH   6  23
ATOM     23  O   UNL     1      -5.838  11.262  17.874  0.00  0.00    +0.000 OA
ATOM     24  C   UNL     1      -6.687  12.327  17.462  0.00  0.00    +0.000 C 
ENDBRANCH   6  23
TORSDOF 5
ENDMDL
MODEL 7
REMARK VINA RESULT:      -6.5      4.490      6.943
REMARK  Name = 
REMARK  9 active torsions:
REMARK  status: ('A' for Active; 'I' for Inactive)
REMARK    1  A    between atoms: C_1  and  O_2
REMARK    2  A    between atoms: O_2  and  C_3
REMARK    3  A    between atoms: C_5  and  C_6
REMARK    4  A    between atoms: C_6  and  C_8
REMARK    5  A    between atoms: N_15  and  C_16
REMARK    6  A    between atoms: C_19  and  O_20
REMARK    7  A    between atoms: O_20  and  C_21
REMARK    8  A    between atoms: C_22  and  O_23
REMARK    9  A    between atoms: O_23  and  C_24
REMARK                            x       y       z     vdW  Elec       q    Type
REMARK                         _______ _______ _______ _____ _____    ______ ____
ROOT
ATOM      1  C   UNL     1       2.523   6.295  19.707  0.00  0.00    +0.000 A 
ATOM      2  C   UNL     1       1.885   7.538  19.609  0.00  0.00    +0.000 A 
ATOM      3  C   UNL     1       2.128   8.366  18.518  0.00  0.00    +0.000 A 
ATOM      4  C   UNL     1       3.148   8.042  17.628  0.00  0.00    +0.000 A 
ATOM      5  C   UNL     1       3.807   6.808  17.710  0.00  0.00    +0.000 A 
ATOM      6  C   UNL     1       3.484   5.905  18.747  0.00  0.00    +0.000 A 
ENDROOT
BRANCH   1   8
ATOM      7  C   UNL     1       1.201   4.506  20.517  0.00  0.00    +0.000 C 
ATOM      8  O   UNL     1       2.234   5.463  20.759  0.00  0.00    +0.000 OA
ENDBRANCH   1   8
BRANCH   3   9
ATOM      9  C   UNL     1       1.182   9.491  18.279  0.00  0.00    +0.000 C 
ATOM     10  O   UNL     1       0.178   9.267  17.603  0.00  0.00    +0.000 OA
BRANCH   9  11
ATOM     11  C   UNL     1       1.518  10.877  18.720  0.00  0.00    +0.000 A 
ATOM     12  C   UNL     1       2.383  11.660  17.917  0.00  0.00    +0.000 A 
ATOM     13  C   UNL     1       2.772  12.942  18.276  0.00  0.00    +0.000 A 
ATOM     14  C   UNL     1       2.244  13.526  19.420  0.00  0.00    +0.000 A 
ATOM     15  C   UNL     1       1.316  12.817  20.211  0.00  0.00    +0.000 A 
ATOM     16  C   UNL     1       0.589  13.185  21.365  0.00  0.00    +0.000 A 
ATOM     17  C   UNL     1      -0.176  12.108  21.733  0.00  0.00    +0.000 A 
ATOM     18  N   UNL     1       0.087  11.078  20.861  0.00  0.00    +0.000 N 
ATOM     19  C   UNL     1      -0.498   9.767  21.037  0.00  0.00    +0.000 C 
ATOM     20  C   UNL     1       0.968  11.493  19.872  0.00  0.00    +0.000 A 
ENDBRANCH   9  11
ENDBRANCH   3   9
BRANCH   5  21
ATOM     21  O   UNL     1       4.676   6.654  16.661  0.00  0.00    +0.000 OA
ATOM     22  C   UNL     1       6.072   6.785  16.876  0.00  0.00    +0.000 C 
ENDBRANCH   5  21
BRANCH   6  23
ATOM     23  O   UNL     1       4.160   4.710  18.763  0.00  0.00    +0.000 OA
ATOM     24  C   UNL     1       3.723   3.668  17.897  0.00  0.00    +0.000 C 
ENDBRANCH   6  23
TORSDOF 5
ENDMDL
MODEL 8
REMARK VINA RESULT:      -6.5      9.089     12.725
REMARK  Name = 
REMARK  9 active torsions:
REMARK  status: ('A' for Active; 'I' for Inactive)
REMARK    1  A    between atoms: C_1  and  O_2
REMARK    2  A    between atoms: O_2  and  C_3
REMARK    3  A    between atoms: C_5  and  C_6
REMARK    4  A    between atoms: C_6  and  C_8
REMARK    5  A    between atoms: N_15  and  C_16
REMARK    6  A    between atoms: C_19  and  O_20
REMARK    7  A    between atoms: O_20  and  C_21
REMARK    8  A    between atoms: C_22  and  O_23
REMARK    9  A    between atoms: O_23  and  C_24
REMARK                            x       y       z     vdW  Elec       q    Type
REMARK                         _______ _______ _______ _____ _____    ______ ____
ROOT
ATOM      1  C   UNL     1      -5.048  12.679  20.062  0.00  0.00    +0.000 A 
ATOM      2  C   UNL     1      -3.710  12.971  20.356  0.00  0.00    +0.000 A 
ATOM      3  C   UNL     1      -3.259  12.945  21.672  0.00  0.00    +0.000 A 
ATOM      4  C   UNL     1      -4.181  12.819  22.707  0.00  0.00    +0.000 A 
ATOM      5  C   UNL     1      -5.527  12.534  22.439  0.00  0.00    +0.000 A 
ATOM      6  C   UNL     1      -5.974  12.439  21.103  0.00  0.00    +0.000 A 
ENDROOT
BRANCH   1   8
ATOM      7  C   UNL     1      -5.144  11.466  18.032  0.00  0.00    +0.000 C 
ATOM      8  O   UNL     1      -5.468  12.653  18.757  0.00  0.00    +0.000 OA
ENDBRANCH   1   8
BRANCH   3   9
ATOM      9  C   UNL     1      -1.788  12.911  21.899  0.00  0.00    +0.000 C 
ATOM     10  O   UNL     1      -1.188  13.984  21.956  0.00  0.00    +0.000 OA
BRANCH   9  11
ATOM     11  C   UNL     1      -1.048  11.614  21.909  0.00  0.00    +0.000 A 
ATOM     12  C   UNL     1      -1.092  10.810  23.073  0.00  0.00    +0.000 A 
ATOM     13  C   UNL     1      -0.401   9.611  23.175  0.00  0.00    +0.000 A 
ATOM     14  C   UNL     1       0.299   9.126  22.078  0.00  0.00    +0.000 A 
ATOM     15  C   UNL     1       0.306   9.850  20.868  0.00  0.00    +0.000 A 
ATOM     16  C   UNL     1       0.870   9.566  19.604  0.00  0.00    +0.000 A 
ATOM     17  C   UNL     1       0.579  10.619  18.775  0.00  0.00    +0.000 A 
ATOM     18  N   UNL     1      -0.115  11.557  19.501  0.00  0.00    +0.000 N 
ATOM     19  C   UNL     1      -0.490  12.832  18.930  0.00  0.00    +0.000 C 
ATOM     20  C   UNL     1      -0.350  11.097  20.789  0.00  0.00    +0.000 A 
ENDBRANCH   9  11
ENDBRANCH   3   9
BRANCH   5  21
ATOM     21  O   UNL     1      -6.218  12.326  23.605  0.00  0.00    +0.000 OA
ATOM     22  C   UNL     1      -7.163  13.286  24.047  0.00  0.00    +0.000 C 
ENDBRANCH   5  21
BRANCH   6  23
ATOM     23  O   UNL     1      -7.302  12.148  20.911  0.00  0.00    +0.000 OA
ATOM     24  C   UNL     1      -7.693  10.783  20.812  0.00  0.00    +0.000 C 
ENDBRANCH   6  23
TORSDOF 5
ENDMDL
MODEL 9
REMARK VINA RESULT:      -6.4      7.208     10.617
REMARK  Name = 
REMARK  9 active torsions:
REMARK  status: ('A' for Active; 'I' for Inactive)
REMARK    1  A    between atoms: C_1  and  O_2
REMARK    2  A    between atoms: O_2  and  C_3
REMARK    3  A    between atoms: C_5  and  C_6
REMARK    4  A    between atoms: C_6  and  C_8
REMARK    5  A    between atoms: N_15  and  C_16
REMARK    6  A    between atoms: C_19  and  O_20
REMARK    7  A    between atoms: O_20  and  C_21
REMARK    8  A    between atoms: C_22  and  O_23
REMARK    9  A    between atoms: O_23  and  C_24
REMARK                            x       y       z     vdW  Elec       q    Type
REMARK                         _______ _______ _______ _____ _____    ______ ____
ROOT
ATOM      1  C   UNL     1      -3.928  12.184  19.083  0.00  0.00    +0.000 A 
ATOM      2  C   UNL     1      -2.578  11.964  19.385  0.00  0.00    +0.000 A 
ATOM      3  C   UNL     1      -1.760  11.287  18.486  0.00  0.00    +0.000 A 
ATOM      4  C   UNL     1      -2.330  10.662  17.381  0.00  0.00    +0.000 A 
ATOM      5  C   UNL     1      -3.681  10.860  17.062  0.00  0.00    +0.000 A 
ATOM      6  C   UNL     1      -4.496  11.646  17.905  0.00  0.00    +0.000 A 
ENDROOT
BRANCH   1   8
ATOM      7  C   UNL     1      -4.029  13.902  20.708  0.00  0.00    +0.000 C 
ATOM      8  O   UNL     1      -4.711  12.900  19.952  0.00  0.00    +0.000 OA
ENDBRANCH   1   8
BRANCH   3   9
ATOM      9  C   UNL     1      -0.287  11.387  18.680  0.00  0.00    +0.000 C 
ATOM     10  O   UNL     1       0.243  12.486  18.521  0.00  0.00    +0.000 OA
BRANCH   9  11
ATOM     11  C   UNL     1       0.536  10.162  18.913  0.00  0.00    +0.000 A 
ATOM     12  C   UNL     1       1.174   9.546  17.810  0.00  0.00    +0.000 A 
ATOM     13  C   UNL     1       1.924   8.387  17.937  0.00  0.00    +0.000 A 
ATOM     14  C   UNL     1       2.135   7.840  19.197  0.00  0.00    +0.000 A 
ATOM     15  C   UNL     1       1.589   8.463  20.338  0.00  0.00    +0.000 A 
ATOM     16  C   UNL     1       1.696   8.165  21.715  0.00  0.00    +0.000 A 
ATOM     17  C   UNL     1       0.958   9.097  22.399  0.00  0.00    +0.000 A 
ATOM     18  N   UNL     1       0.372   9.936  21.481  0.00  0.00    +0.000 N 
ATOM     19  C   UNL     1      -0.548  10.977  21.885  0.00  0.00    +0.000 C 
ATOM     20  C   UNL     1       0.778   9.609  20.195  0.00  0.00    +0.000 A 
ENDBRANCH   9  11
ENDBRANCH   3   9
BRANCH   5  21
ATOM     21  O   UNL     1      -3.988  10.257  15.869  0.00  0.00    +0.000 OA
ATOM     22  C   UNL     1      -3.151  10.454  14.742  0.00  0.00    +0.000 C 
ENDBRANCH   5  21
BRANCH   6  23
ATOM     23  O   UNL     1      -5.806  11.807  17.529  0.00  0.00    +0.000 OA
ATOM     24  C   UNL     1      -6.811  11.090  18.237  0.00  0.00    +0.000 C 
ENDBRANCH   6  23
TORSDOF 5
ENDMDL
