MODEL 1
REMARK VINA RESULT:      -8.3      0.000      0.000
REMARK  Name = 
REMARK  8 active torsions:
REMARK  status: ('A' for Active; 'I' for Inactive)
REMARK    1  A    between atoms: C_2  and  C_3
REMARK    2  A    between atoms: C_3  and  C_4
REMARK    3  A    between atoms: C_3  and  N_23
REMARK    4  A    between atoms: C_4  and  C_5
REMARK    5  A    between atoms: C_8  and  N_9
REMARK    6  A    between atoms: C_11  and  C_12
REMARK    7  A    between atoms: C_15  and  O_16
REMARK    8  A    between atoms: C_24  and  C_26
REMARK                            x       y       z     vdW  Elec       q    Type
REMARK                         _______ _______ _______ _____ _____    ______ ____
ROOT
ATOM      1  C   UNL     1       7.329   6.282  17.653  0.00  0.00    +0.000 A 
ATOM      2  C   UNL     1       7.152   7.438  16.882  0.00  0.00    +0.000 A 
ATOM      3  C   UNL     1       7.724   8.649  17.266  0.00  0.00    +0.000 A 
ATOM      4  C   UNL     1       8.453   8.740  18.456  0.00  0.00    +0.000 A 
ATOM      5  C   UNL     1       8.598   7.607  19.263  0.00  0.00    +0.000 A 
ATOM      6  C   UNL     1       8.033   6.389  18.862  0.00  0.00    +0.000 A 
ENDROOT
BRANCH   4   7
ATOM      7  N   UNL     1       9.019   9.977  18.849  0.00  0.00    +0.000 N 
ATOM      8  C   UNL     1       9.418  11.016  18.040  0.00  0.00    +0.000 A 
ATOM      9  C   UNL     1       9.806  12.011  18.902  0.00  0.00    +0.000 A 
ATOM     10  N   UNL     1       9.689  11.555  20.187  0.00  0.00    +0.000 NA
ATOM     11  N   UNL     1       9.217  10.314  20.146  0.00  0.00    +0.000 NA
BRANCH   9  12
ATOM     12  C   UNL     1      10.254  13.336  18.538  0.00  0.00    +0.000 A 
ATOM     13  C   UNL     1      10.114  14.405  19.427  0.00  0.00    +0.000 A 
ATOM     14  C   UNL     1      10.540  15.679  19.054  0.00  0.00    +0.000 A 
ATOM     15  C   UNL     1      11.094  15.841  17.796  0.00  0.00    +0.000 A 
ATOM     16  N   UNL     1      11.245  14.848  16.908  0.00  0.00    +0.000 NA
ATOM     17  C   UNL     1      10.824  13.621  17.299  0.00  0.00    +0.000 A 
BRANCH  15  18
ATOM     18  O   UNL     1      11.536  17.057  17.369  0.00  0.00    +0.000 OA
ATOM     19  H   UNL     1      10.858  17.712  17.581  0.00  0.00    +0.000 HD
ENDBRANCH  15  18
ENDBRANCH   9  12
ENDBRANCH   4   7
BRANCH   1  20
ATOM     20  C   UNL     1       6.761   4.942  17.226  0.00  0.00    +0.000 C 
BRANCH  20  21
ATOM     21  C   UNL     1       5.574   5.000  16.238  0.00  0.00    +0.000 C 
BRANCH  21  22
ATOM     22  N   UNL     1       4.367   4.394  16.807  0.00  0.00    +0.000 N 
ATOM     23  C   UNL     1       3.545   5.150  17.610  0.00  0.00    +0.000 C 
ATOM     24  O   UNL     1       3.841   6.302  17.920  0.00  0.00    +0.000 OA
ATOM     25  H   UNL     1       4.095   3.449  16.554  0.00  0.00    +0.000 HD
BRANCH  23  26
ATOM     26  C   UNL     1       2.236   4.469  18.043  0.00  0.00    +0.000 C 
ATOM     27  N   UNL     1       2.077   3.117  17.418  0.00  0.00    +0.000 NA
ATOM     28  C   UNL     1       1.963   2.195  18.581  0.00  0.00    +0.000 C 
ATOM     29  C   UNL     1       0.616   2.429  19.289  0.00  0.00    +0.000 C 
ATOM     30  C   UNL     1       0.823   3.783  19.982  0.00  0.00    +0.000 C 
ATOM     31  C   UNL     1       2.248   4.156  19.548  0.00  0.00    +0.000 C 
ATOM     32  C   UNL     1       2.949   2.801  19.567  0.00  0.00    +0.000 C 
ATOM     33  H   UNL     1       2.938   2.877  16.923  0.00  0.00    +0.000 HD
ENDBRANCH  23  26
ENDBRANCH  21  22
BRANCH  21  35
ATOM     34  N   UNL     1       6.177   3.893  13.919  0.00  0.00    +0.000 NA
ATOM     35  C   UNL     1       5.923   4.375  14.947  0.00  0.00    +0.000 C 
ENDBRANCH  21  35
ENDBRANCH  20  21
ENDBRANCH   1  20
TORSDOF 8
ENDMDL
MODEL 2
REMARK VINA RESULT:      -8.2      0.685      1.092
REMARK  Name = 
REMARK  8 active torsions:
REMARK  status: ('A' for Active; 'I' for Inactive)
REMARK    1  A    between atoms: C_2  and  C_3
REMARK    2  A    between atoms: C_3  and  C_4
REMARK    3  A    between atoms: C_3  and  N_23
REMARK    4  A    between atoms: C_4  and  C_5
REMARK    5  A    between atoms: C_8  and  N_9
REMARK    6  A    between atoms: C_11  and  C_12
REMARK    7  A    between atoms: C_15  and  O_16
REMARK    8  A    between atoms: C_24  and  C_26
REMARK                            x       y       z     vdW  Elec       q    Type
REMARK                         _______ _______ _______ _____ _____    ______ ____
ROOT
ATOM      1  C   UNL     1       7.357   6.277  17.761  0.00  0.00    +0.000 A 
ATOM      2  C   UNL     1       8.196   6.458  18.868  0.00  0.00    +0.000 A 
ATOM      3  C   UNL     1       8.677   7.721  19.204  0.00  0.00    +0.000 A 
ATOM      4  C   UNL     1       8.363   8.830  18.411  0.00  0.00    +0.000 A 
ATOM      5  C   UNL     1       7.568   8.659  17.273  0.00  0.00    +0.000 A 
ATOM      6  C   UNL     1       7.074   7.388  16.951  0.00  0.00    +0.000 A 
ENDROOT
BRANCH   4   7
ATOM      7  N   UNL     1       8.869  10.109  18.747  0.00  0.00    +0.000 N 
ATOM      8  C   UNL     1       8.926  11.228  17.949  0.00  0.00    +0.000 A 
ATOM      9  C   UNL     1       9.411  12.222  18.763  0.00  0.00    +0.000 A 
ATOM     10  N   UNL     1       9.681  11.693  19.996  0.00  0.00    +0.000 NA
ATOM     11  N   UNL     1       9.356  10.406  19.976  0.00  0.00    +0.000 NA
BRANCH   9  12
ATOM     12  C   UNL     1       9.598  13.610  18.406  0.00  0.00    +0.000 A 
ATOM     13  C   UNL     1       8.511  14.487  18.358  0.00  0.00    +0.000 A 
ATOM     14  C   UNL     1       8.708  15.820  17.999  0.00  0.00    +0.000 A 
ATOM     15  C   UNL     1       9.994  16.231  17.697  0.00  0.00    +0.000 A 
ATOM     16  N   UNL     1      11.067  15.427  17.724  0.00  0.00    +0.000 NA
ATOM     17  C   UNL     1      10.845  14.138  18.079  0.00  0.00    +0.000 A 
BRANCH  15  18
ATOM     18  O   UNL     1      10.260  17.519  17.343  0.00  0.00    +0.000 OA
ATOM     19  H   UNL     1      11.129  17.753  17.696  0.00  0.00    +0.000 HD
ENDBRANCH  15  18
ENDBRANCH   9  12
ENDBRANCH   4   7
BRANCH   1  20
ATOM     20  C   UNL     1       6.778   4.920  17.410  0.00  0.00    +0.000 C 
BRANCH  20  21
ATOM     21  C   UNL     1       5.604   4.930  16.404  0.00  0.00    +0.000 C 
BRANCH  21  22
ATOM     22  N   UNL     1       4.388   4.359  16.988  0.00  0.00    +0.000 N 
ATOM     23  C   UNL     1       3.493   5.183  17.628  0.00  0.00    +0.000 C 
ATOM     24  O   UNL     1       3.729   6.380  17.785  0.00  0.00    +0.000 OA
ATOM     25  H   UNL     1       4.165   3.377  16.859  0.00  0.00    +0.000 HD
BRANCH  23  26
ATOM     26  C   UNL     1       2.185   4.514  18.083  0.00  0.00    +0.000 C 
ATOM     27  N   UNL     1       1.984   3.181  17.430  0.00  0.00    +0.000 NA
ATOM     28  C   UNL     1       1.888   2.232  18.574  0.00  0.00    +0.000 C 
ATOM     29  C   UNL     1       0.566   2.472  19.326  0.00  0.00    +0.000 C 
ATOM     30  C   UNL     1       0.817   3.805  20.045  0.00  0.00    +0.000 C 
ATOM     31  C   UNL     1       2.235   4.165  19.579  0.00  0.00    +0.000 C 
ATOM     32  C   UNL     1       2.912   2.797  19.544  0.00  0.00    +0.000 C 
ATOM     33  H   UNL     1       2.826   2.939  16.904  0.00  0.00    +0.000 HD
ENDBRANCH  23  26
ENDBRANCH  21  22
BRANCH  21  35
ATOM     34  N   UNL     1       6.231   3.696  14.157  0.00  0.00    +0.000 NA
ATOM     35  C   UNL     1       5.969   4.237  15.153  0.00  0.00    +0.000 C 
ENDBRANCH  21  35
ENDBRANCH  20  21
ENDBRANCH   1  20
TORSDOF 8
ENDMDL
MODEL 3
REMARK VINA RESULT:      -7.9      6.647      9.844
REMARK  Name = 
REMARK  8 active torsions:
REMARK  status: ('A' for Active; 'I' for Inactive)
REMARK    1  A    between atoms: C_2  and  C_3
REMARK    2  A    between atoms: C_3  and  C_4
REMARK    3  A    between atoms: C_3  and  N_23
REMARK    4  A    between atoms: C_4  and  C_5
REMARK    5  A    between atoms: C_8  and  N_9
REMARK    6  A    between atoms: C_11  and  C_12
REMARK    7  A    between atoms: C_15  and  O_16
REMARK    8  A    between atoms: C_24  and  C_26
REMARK                            x       y       z     vdW  Elec       q    Type
REMARK                         _______ _______ _______ _____ _____    ______ ____
ROOT
ATOM      1  C   UNL     1      -0.065  10.258  21.555  0.00  0.00    +0.000 A 
ATOM      2  C   UNL     1       0.469  10.494  20.282  0.00  0.00    +0.000 A 
ATOM      3  C   UNL     1       1.203   9.512  19.620  0.00  0.00    +0.000 A 
ATOM      4  C   UNL     1       1.454   8.282  20.236  0.00  0.00    +0.000 A 
ATOM      5  C   UNL     1       0.970   8.048  21.527  0.00  0.00    +0.000 A 
ATOM      6  C   UNL     1       0.219   9.034  22.181  0.00  0.00    +0.000 A 
ENDROOT
BRANCH   4   7
ATOM      7  N   UNL     1       2.214   7.294  19.565  0.00  0.00    +0.000 N 
ATOM      8  C   UNL     1       3.086   7.471  18.515  0.00  0.00    +0.000 A 
ATOM      9  C   UNL     1       3.630   6.230  18.292  0.00  0.00    +0.000 A 
ATOM     10  N   UNL     1       3.059   5.333  19.152  0.00  0.00    +0.000 NA
ATOM     11  N   UNL     1       2.192   5.986  19.918  0.00  0.00    +0.000 NA
BRANCH   9  12
ATOM     12  C   UNL     1       4.653   5.903  17.324  0.00  0.00    +0.000 A 
ATOM     13  C   UNL     1       4.617   4.691  16.630  0.00  0.00    +0.000 A 
ATOM     14  C   UNL     1       5.619   4.387  15.709  0.00  0.00    +0.000 A 
ATOM     15  C   UNL     1       6.630   5.313  15.514  0.00  0.00    +0.000 A 
ATOM     16  N   UNL     1       6.709   6.486  16.159  0.00  0.00    +0.000 NA
ATOM     17  C   UNL     1       5.721   6.754  17.045  0.00  0.00    +0.000 A 
BRANCH  15  18
ATOM     18  O   UNL     1       7.637   5.083  14.627  0.00  0.00    +0.000 OA
ATOM     19  H   UNL     1       7.310   4.469  13.955  0.00  0.00    +0.000 HD
ENDBRANCH  15  18
ENDBRANCH   9  12
ENDBRANCH   4   7
BRANCH   1  20
ATOM     20  C   UNL     1      -0.912  11.293  22.271  0.00  0.00    +0.000 C 
BRANCH  20  21
ATOM     21  C   UNL     1      -1.403  12.476  21.405  0.00  0.00    +0.000 C 
BRANCH  21  22
ATOM     22  N   UNL     1      -1.534  12.095  19.997  0.00  0.00    +0.000 N 
ATOM     23  C   UNL     1      -2.762  12.181  19.384  0.00  0.00    +0.000 C 
ATOM     24  O   UNL     1      -3.768  12.501  20.015  0.00  0.00    +0.000 OA
ATOM     25  H   UNL     1      -0.715  11.843  19.451  0.00  0.00    +0.000 HD
BRANCH  23  26
ATOM     26  C   UNL     1      -2.769  11.895  17.873  0.00  0.00    +0.000 C 
ATOM     27  N   UNL     1      -1.546  11.145  17.442  0.00  0.00    +0.000 NA
ATOM     28  C   UNL     1      -2.086   9.898  16.833  0.00  0.00    +0.000 C 
ATOM     29  C   UNL     1      -2.789  10.241  15.507  0.00  0.00    +0.000 C 
ATOM     30  C   UNL     1      -4.073  10.944  15.970  0.00  0.00    +0.000 C 
ATOM     31  C   UNL     1      -3.913  10.940  17.497  0.00  0.00    +0.000 C 
ATOM     32  C   UNL     1      -3.262   9.581  17.743  0.00  0.00    +0.000 C 
ATOM     33  H   UNL     1      -1.014  10.873  18.271  0.00  0.00    +0.000 HD
ENDBRANCH  23  26
ENDBRANCH  21  22
BRANCH  21  35
ATOM     34  N   UNL     1       0.193  14.561  21.668  0.00  0.00    +0.000 NA
ATOM     35  C   UNL     1      -0.522  13.650  21.559  0.00  0.00    +0.000 C 
ENDBRANCH  21  35
ENDBRANCH  20  21
ENDBRANCH   1  20
TORSDOF 8
ENDMDL
MODEL 4
REMARK VINA RESULT:      -7.8      6.168      8.186
REMARK  Name = 
REMARK  8 active torsions:
REMARK  status: ('A' for Active; 'I' for Inactive)
REMARK    1  A    between atoms: C_2  and  C_3
REMARK    2  A    between atoms: C_3  and  C_4
REMARK    3  A    between atoms: C_3  and  N_23
REMARK    4  A    between atoms: C_4  and  C_5
REMARK    5  A    between atoms: C_8  and  N_9
REMARK    6  A    between atoms: C_11  and  C_12
REMARK    7  A    between atoms: C_15  and  O_16
REMARK    8  A    between atoms: C_24  and  C_26
REMARK                            x       y       z     vdW  Elec       q    Type
REMARK                         _______ _______ _______ _____ _____    ______ ____
ROOT
ATOM      1  C   UNL     1       2.502   5.420  19.386  0.00  0.00    +0.000 A 
ATOM      2  C   UNL     1       1.924   5.867  20.581  0.00  0.00    +0.000 A 
ATOM      3  C   UNL     1       1.492   7.184  20.719  0.00  0.00    +0.000 A 
ATOM      4  C   UNL     1       1.670   8.099  19.675  0.00  0.00    +0.000 A 
ATOM      5  C   UNL     1       2.291   7.682  18.494  0.00  0.00    +0.000 A 
ATOM      6  C   UNL     1       2.708   6.351  18.356  0.00  0.00    +0.000 A 
ENDROOT
BRANCH   4   7
ATOM      7  N   UNL     1       1.244   9.440  19.827  0.00  0.00    +0.000 N 
ATOM      8  C   UNL     1       0.704  10.031  20.946  0.00  0.00    +0.000 A 
ATOM      9  C   UNL     1       0.549  11.354  20.611  0.00  0.00    +0.000 A 
ATOM     10  N   UNL     1       0.939  11.531  19.312  0.00  0.00    +0.000 NA
ATOM     11  N   UNL     1       1.353  10.361  18.839  0.00  0.00    +0.000 NA
BRANCH   9  12
ATOM     12  C   UNL     1       0.069  12.408  21.477  0.00  0.00    +0.000 A 
ATOM     13  C   UNL     1       0.582  13.703  21.373  0.00  0.00    +0.000 A 
ATOM     14  C   UNL     1       0.117  14.705  22.224  0.00  0.00    +0.000 A 
ATOM     15  C   UNL     1      -0.850  14.373  23.157  0.00  0.00    +0.000 A 
ATOM     16  N   UNL     1      -1.369  13.144  23.296  0.00  0.00    +0.000 NA
ATOM     17  C   UNL     1      -0.900  12.193  22.454  0.00  0.00    +0.000 A 
BRANCH  15  18
ATOM     18  O   UNL     1      -1.353  15.302  24.016  0.00  0.00    +0.000 OA
ATOM     19  H   UNL     1      -2.317  15.229  24.006  0.00  0.00    +0.000 HD
ENDBRANCH  15  18
ENDBRANCH   9  12
ENDBRANCH   4   7
BRANCH   1  20
ATOM     20  C   UNL     1       2.930   3.977  19.196  0.00  0.00    +0.000 C 
BRANCH  20  21
ATOM     21  C   UNL     1       4.449   3.708  19.294  0.00  0.00    +0.000 C 
BRANCH  21  22
ATOM     22  N   UNL     1       5.070   3.634  17.969  0.00  0.00    +0.000 N 
ATOM     23  C   UNL     1       6.049   4.539  17.629  0.00  0.00    +0.000 C 
ATOM     24  O   UNL     1       6.359   5.456  18.387  0.00  0.00    +0.000 OA
ATOM     25  H   UNL     1       4.840   2.877  17.332  0.00  0.00    +0.000 HD
BRANCH  23  26
ATOM     26  C   UNL     1       6.735   4.293  16.276  0.00  0.00    +0.000 C 
ATOM     27  N   UNL     1       6.059   3.208  15.496  0.00  0.00    +0.000 NA
ATOM     28  C   UNL     1       5.660   3.875  14.226  0.00  0.00    +0.000 C 
ATOM     29  C   UNL     1       6.918   4.189  13.397  0.00  0.00    +0.000 C 
ATOM     30  C   UNL     1       7.560   5.349  14.170  0.00  0.00    +0.000 C 
ATOM     31  C   UNL     1       6.600   5.518  15.357  0.00  0.00    +0.000 C 
ATOM     32  C   UNL     1       5.244   5.255  14.707  0.00  0.00    +0.000 C 
ATOM     33  H   UNL     1       5.201   2.937  15.980  0.00  0.00    +0.000 HD
ENDBRANCH  23  26
ENDBRANCH  21  22
BRANCH  21  35
ATOM     34  N   UNL     1       4.963   1.540  20.708  0.00  0.00    +0.000 NA
ATOM     35  C   UNL     1       4.724   2.489  20.079  0.00  0.00    +0.000 C 
ENDBRANCH  21  35
ENDBRANCH  20  21
ENDBRANCH   1  20
TORSDOF 8
ENDMDL
MODEL 5
REMARK VINA RESULT:      -7.8      7.069     11.078
REMARK  Name = 
REMARK  8 active torsions:
REMARK  status: ('A' for Active; 'I' for Inactive)
REMARK    1  A    between atoms: C_2  and  C_3
REMARK    2  A    between atoms: C_3  and  C_4
REMARK    3  A    between atoms: C_3  and  N_23
REMARK    4  A    between atoms: C_4  and  C_5
REMARK    5  A    between atoms: C_8  and  N_9
REMARK    6  A    between atoms: C_11  and  C_12
REMARK    7  A    between atoms: C_15  and  O_16
REMARK    8  A    between atoms: C_24  and  C_26
REMARK                            x       y       z     vdW  Elec       q    Type
REMARK                         _______ _______ _______ _____ _____    ______ ____
ROOT
ATOM      1  C   UNL     1      -0.336  10.929  21.678  0.00  0.00    +0.000 A 
ATOM      2  C   UNL     1      -0.398   9.595  22.099  0.00  0.00    +0.000 A 
ATOM      3  C   UNL     1       0.331   8.603  21.446  0.00  0.00    +0.000 A 
ATOM      4  C   UNL     1       1.107   8.919  20.327  0.00  0.00    +0.000 A 
ATOM      5  C   UNL     1       1.141  10.238  19.862  0.00  0.00    +0.000 A 
ATOM      6  C   UNL     1       0.418  11.233  20.534  0.00  0.00    +0.000 A 
ENDROOT
BRANCH   4   7
ATOM      7  N   UNL     1       1.833   7.904  19.657  0.00  0.00    +0.000 N 
ATOM      8  C   UNL     1       1.996   6.593  20.040  0.00  0.00    +0.000 A 
ATOM      9  C   UNL     1       2.698   6.007  19.015  0.00  0.00    +0.000 A 
ATOM     10  N   UNL     1       2.986   6.958  18.075  0.00  0.00    +0.000 NA
ATOM     11  N   UNL     1       2.464   8.111  18.476  0.00  0.00    +0.000 NA
BRANCH   9  12
ATOM     12  C   UNL     1       3.068   4.613  18.915  0.00  0.00    +0.000 A 
ATOM     13  C   UNL     1       2.804   3.729  19.964  0.00  0.00    +0.000 A 
ATOM     14  C   UNL     1       3.179   2.390  19.855  0.00  0.00    +0.000 A 
ATOM     15  C   UNL     1       3.810   1.981  18.693  0.00  0.00    +0.000 A 
ATOM     16  N   UNL     1       4.087   2.793  17.663  0.00  0.00    +0.000 NA
ATOM     17  C   UNL     1       3.709   4.086  17.796  0.00  0.00    +0.000 A 
BRANCH  15  18
ATOM     18  O   UNL     1       4.199   0.687  18.518  0.00  0.00    +0.000 OA
ATOM     19  H   UNL     1       5.061   0.574  18.943  0.00  0.00    +0.000 HD
ENDBRANCH  15  18
ENDBRANCH   9  12
ENDBRANCH   4   7
BRANCH   1  20
ATOM     20  C   UNL     1      -1.079  12.033  22.408  0.00  0.00    +0.000 C 
BRANCH  20  21
ATOM     21  C   UNL     1      -2.163  12.768  21.588  0.00  0.00    +0.000 C 
BRANCH  21  22
ATOM     22  N   UNL     1      -2.113  12.398  20.172  0.00  0.00    +0.000 N 
ATOM     23  C   UNL     1      -3.286  12.198  19.482  0.00  0.00    +0.000 C 
ATOM     24  O   UNL     1      -4.375  12.251  20.050  0.00  0.00    +0.000 OA
ATOM     25  H   UNL     1      -1.226  12.362  19.678  0.00  0.00    +0.000 HD
BRANCH  23  26
ATOM     26  C   UNL     1      -3.132  11.951  17.972  0.00  0.00    +0.000 C 
ATOM     27  N   UNL     1      -1.759  11.466  17.624  0.00  0.00    +0.000 NA
ATOM     28  C   UNL     1      -1.999  10.152  16.966  0.00  0.00    +0.000 C 
ATOM     29  C   UNL     1      -2.663  10.381  15.596  0.00  0.00    +0.000 C 
ATOM     30  C   UNL     1      -4.089  10.808  15.972  0.00  0.00    +0.000 C 
ATOM     31  C   UNL     1      -4.037  10.799  17.506  0.00  0.00    +0.000 C 
ATOM     32  C   UNL     1      -3.149   9.590  17.786  0.00  0.00    +0.000 C 
ATOM     33  H   UNL     1      -1.242  11.285  18.486  0.00  0.00    +0.000 HD
ENDBRANCH  23  26
ENDBRANCH  21  22
BRANCH  21  35
ATOM     34  N   UNL     1      -2.002  15.383  21.905  0.00  0.00    +0.000 NA
ATOM     35  C   UNL     1      -2.059  14.231  21.759  0.00  0.00    +0.000 C 
ENDBRANCH  21  35
ENDBRANCH  20  21
ENDBRANCH   1  20
TORSDOF 8
ENDMDL
MODEL 6
REMARK VINA RESULT:      -7.7      8.327     11.544
REMARK  Name = 
REMARK  8 active torsions:
REMARK  status: ('A' for Active; 'I' for Inactive)
REMARK    1  A    between atoms: C_2  and  C_3
REMARK    2  A    between atoms: C_3  and  C_4
REMARK    3  A    between atoms: C_3  and  N_23
REMARK    4  A    between atoms: C_4  and  C_5
REMARK    5  A    between atoms: C_8  and  N_9
REMARK    6  A    between atoms: C_11  and  C_12
REMARK    7  A    between atoms: C_15  and  O_16
REMARK    8  A    between atoms: C_24  and  C_26
REMARK                            x       y       z     vdW  Elec       q    Type
REMARK                         _______ _______ _______ _____ _____    ______ ____
ROOT
ATOM      1  C   UNL     1      -0.737  11.228  21.952  0.00  0.00    +0.000 A 
ATOM      2  C   UNL     1      -0.380  11.060  20.608  0.00  0.00    +0.000 A 
ATOM      3  C   UNL     1       0.267   9.903  20.178  0.00  0.00    +0.000 A 
ATOM      4  C   UNL     1       0.611   8.904  21.094  0.00  0.00    +0.000 A 
ATOM      5  C   UNL     1       0.306   9.078  22.448  0.00  0.00    +0.000 A 
ATOM      6  C   UNL     1      -0.359  10.236  22.871  0.00  0.00    +0.000 A 
ENDROOT
BRANCH   4   7
ATOM      7  N   UNL     1       1.283   7.738  20.654  0.00  0.00    +0.000 N 
ATOM      8  C   UNL     1       2.259   7.642  19.689  0.00  0.00    +0.000 A 
ATOM      9  C   UNL     1       2.645   6.325  19.703  0.00  0.00    +0.000 A 
ATOM     10  N   UNL     1       1.883   5.648  20.615  0.00  0.00    +0.000 NA
ATOM     11  N   UNL     1       1.051   6.513  21.184  0.00  0.00    +0.000 NA
BRANCH   9  12
ATOM     12  C   UNL     1       3.694   5.729  18.905  0.00  0.00    +0.000 A 
ATOM     13  C   UNL     1       3.752   5.947  17.526  0.00  0.00    +0.000 A 
ATOM     14  C   UNL     1       4.763   5.354  16.771  0.00  0.00    +0.000 A 
ATOM     15  C   UNL     1       5.688   4.559  17.427  0.00  0.00    +0.000 A 
ATOM     16  N   UNL     1       5.671   4.319  18.746  0.00  0.00    +0.000 NA
ATOM     17  C   UNL     1       4.678   4.909  19.453  0.00  0.00    +0.000 A 
BRANCH  15  18
ATOM     18  O   UNL     1       6.704   3.954  16.752  0.00  0.00    +0.000 OA
ATOM     19  H   UNL     1       6.865   3.093  17.163  0.00  0.00    +0.000 HD
ENDBRANCH  15  18
ENDBRANCH   9  12
ENDBRANCH   4   7
BRANCH   1  20
ATOM     20  C   UNL     1      -1.490  12.454  22.432  0.00  0.00    +0.000 C 
BRANCH  20  21
ATOM     21  C   UNL     1      -3.027  12.314  22.504  0.00  0.00    +0.000 C 
BRANCH  21  22
ATOM     22  N   UNL     1      -3.662  12.676  21.235  0.00  0.00    +0.000 N 
ATOM     23  C   UNL     1      -5.019  12.508  21.085  0.00  0.00    +0.000 C 
ATOM     24  O   UNL     1      -5.699  11.990  21.969  0.00  0.00    +0.000 OA
ATOM     25  H   UNL     1      -3.125  13.118  20.496  0.00  0.00    +0.000 HD
BRANCH  23  26
ATOM     26  C   UNL     1      -5.611  13.045  19.771  0.00  0.00    +0.000 C 
ATOM     27  N   UNL     1      -4.799  12.631  18.583  0.00  0.00    +0.000 NA
ATOM     28  C   UNL     1      -5.764  11.878  17.734  0.00  0.00    +0.000 C 
ATOM     29  C   UNL     1      -6.797  12.856  17.146  0.00  0.00    +0.000 C 
ATOM     30  C   UNL     1      -7.663  13.214  18.362  0.00  0.00    +0.000 C 
ATOM     31  C   UNL     1      -6.987  12.419  19.489  0.00  0.00    +0.000 C 
ATOM     32  C   UNL     1      -6.587  11.132  18.771  0.00  0.00    +0.000 C 
ATOM     33  H   UNL     1      -4.081  11.971  18.886  0.00  0.00    +0.000 HD
ENDBRANCH  23  26
ENDBRANCH  21  22
BRANCH  21  35
ATOM     34  N   UNL     1      -4.016  13.704  24.517  0.00  0.00    +0.000 NA
ATOM     35  C   UNL     1      -3.583  13.103  23.620  0.00  0.00    +0.000 C 
ENDBRANCH  21  35
ENDBRANCH  20  21
ENDBRANCH   1  20
TORSDOF 8
ENDMDL
MODEL 7
REMARK VINA RESULT:      -7.7      7.273     10.726
REMARK  Name = 
REMARK  8 active torsions:
REMARK  status: ('A' for Active; 'I' for Inactive)
REMARK    1  A    between atoms: C_2  and  C_3
REMARK    2  A    between atoms: C_3  and  C_4
REMARK    3  A    between atoms: C_3  and  N_23
REMARK    4  A    between atoms: C_4  and  C_5
REMARK    5  A    between atoms: C_8  and  N_9
REMARK    6  A    between atoms: C_11  and  C_12
REMARK    7  A    between atoms: C_15  and  O_16
REMARK    8  A    between atoms: C_24  and  C_26
REMARK                            x       y       z     vdW  Elec       q    Type
REMARK                         _______ _______ _______ _____ _____    ______ ____
ROOT
ATOM      1  C   UNL     1      -0.309  11.162  21.804  0.00  0.00    +0.000 A 
ATOM      2  C   UNL     1       0.463  11.136  20.635  0.00  0.00    +0.000 A 
ATOM      3  C   UNL     1       1.032   9.950  20.179  0.00  0.00    +0.000 A 
ATOM      4  C   UNL     1       0.876   8.766  20.907  0.00  0.00    +0.000 A 
ATOM      5  C   UNL     1       0.151   8.784  22.103  0.00  0.00    +0.000 A 
ATOM      6  C   UNL     1      -0.432   9.978  22.547  0.00  0.00    +0.000 A 
ENDROOT
BRANCH   4   7
ATOM      7  N   UNL     1       1.471   7.566  20.448  0.00  0.00    +0.000 N 
ATOM      8  C   UNL     1       2.285   7.396  19.352  0.00  0.00    +0.000 A 
ATOM      9  C   UNL     1       2.668   6.077  19.393  0.00  0.00    +0.000 A 
ATOM     10  N   UNL     1       2.055   5.471  20.456  0.00  0.00    +0.000 NA
ATOM     11  N   UNL     1       1.322   6.381  21.087  0.00  0.00    +0.000 NA
BRANCH   9  12
ATOM     12  C   UNL     1       3.579   5.419  18.485  0.00  0.00    +0.000 A 
ATOM     13  C   UNL     1       3.165   4.315  17.735  0.00  0.00    +0.000 A 
ATOM     14  C   UNL     1       4.062   3.685  16.873  0.00  0.00    +0.000 A 
ATOM     15  C   UNL     1       5.351   4.184  16.792  0.00  0.00    +0.000 A 
ATOM     16  N   UNL     1       5.794   5.236  17.494  0.00  0.00    +0.000 NA
ATOM     17  C   UNL     1       4.901   5.829  18.321  0.00  0.00    +0.000 A 
BRANCH  15  18
ATOM     18  O   UNL     1       6.277   3.620  15.967  0.00  0.00    +0.000 OA
ATOM     19  H   UNL     1       6.655   4.322  15.419  0.00  0.00    +0.000 HD
ENDBRANCH  15  18
ENDBRANCH   9  12
ENDBRANCH   4   7
BRANCH   1  20
ATOM     20  C   UNL     1      -0.982  12.432  22.289  0.00  0.00    +0.000 C 
BRANCH  20  21
ATOM     21  C   UNL     1      -2.364  12.739  21.669  0.00  0.00    +0.000 C 
BRANCH  21  22
ATOM     22  N   UNL     1      -2.386  12.453  20.232  0.00  0.00    +0.000 N 
ATOM     23  C   UNL     1      -3.589  12.219  19.607  0.00  0.00    +0.000 C 
ATOM     24  O   UNL     1      -4.640  12.173  20.244  0.00  0.00    +0.000 OA
ATOM     25  H   UNL     1      -1.534  12.500  19.683  0.00  0.00    +0.000 HD
BRANCH  23  26
ATOM     26  C   UNL     1      -3.522  12.067  18.079  0.00  0.00    +0.000 C 
ATOM     27  N   UNL     1      -2.109  12.064  17.580  0.00  0.00    +0.000 NA
ATOM     28  C   UNL     1      -1.980  10.757  16.878  0.00  0.00    +0.000 C 
ATOM     29  C   UNL     1      -2.821  10.786  15.589  0.00  0.00    +0.000 C 
ATOM     30  C   UNL     1      -4.261  10.716  16.116  0.00  0.00    +0.000 C 
ATOM     31  C   UNL     1      -4.050  10.693  17.636  0.00  0.00    +0.000 C 
ATOM     32  C   UNL     1      -2.795   9.834  17.768  0.00  0.00    +0.000 C 
ATOM     33  H   UNL     1      -1.475  12.043  18.381  0.00  0.00    +0.000 HD
ENDBRANCH  23  26
ENDBRANCH  21  22
BRANCH  21  35
ATOM     34  N   UNL     1      -3.104  15.230  22.127  0.00  0.00    +0.000 NA
ATOM     35  C   UNL     1      -2.772  14.131  21.939  0.00  0.00    +0.000 C 
ENDBRANCH  21  35
ENDBRANCH  20  21
ENDBRANCH   1  20
TORSDOF 8
ENDMDL
MODEL 8
REMARK VINA RESULT:      -7.6      6.842     10.775
REMARK  Name = 
REMARK  8 active torsions:
REMARK  status: ('A' for Active; 'I' for Inactive)
REMARK    1  A    between atoms: C_2  and  C_3
REMARK    2  A    between atoms: C_3  and  C_4
REMARK    3  A    between atoms: C_3  and  N_23
REMARK    4  A    between atoms: C_4  and  C_5
REMARK    5  A    between atoms: C_8  and  N_9
REMARK    6  A    between atoms: C_11  and  C_12
REMARK    7  A    between atoms: C_15  and  O_16
REMARK    8  A    between atoms: C_24  and  C_26
REMARK                            x       y       z     vdW  Elec       q    Type
REMARK                         _______ _______ _______ _____ _____    ______ ____
ROOT
ATOM      1  C   UNL     1       1.326  11.879  19.359  0.00  0.00    +0.000 A 
ATOM      2  C   UNL     1       0.996  11.277  20.579  0.00  0.00    +0.000 A 
ATOM      3  C   UNL     1       1.129   9.902  20.759  0.00  0.00    +0.000 A 
ATOM      4  C   UNL     1       1.557   9.090  19.703  0.00  0.00    +0.000 A 
ATOM      5  C   UNL     1       1.843   9.669  18.463  0.00  0.00    +0.000 A 
ATOM      6  C   UNL     1       1.722  11.055  18.294  0.00  0.00    +0.000 A 
ENDROOT
BRANCH   4   7
ATOM      7  N   UNL     1       1.675   7.691  19.886  0.00  0.00    +0.000 N 
ATOM      8  C   UNL     1       2.192   6.768  19.007  0.00  0.00    +0.000 A 
ATOM      9  C   UNL     1       2.166   5.575  19.687  0.00  0.00    +0.000 A 
ATOM     10  N   UNL     1       1.602   5.778  20.917  0.00  0.00    +0.000 NA
ATOM     11  N   UNL     1       1.299   7.066  21.027  0.00  0.00    +0.000 NA
BRANCH   9  12
ATOM     12  C   UNL     1       2.662   4.304  19.210  0.00  0.00    +0.000 A 
ATOM     13  C   UNL     1       2.219   3.776  17.995  0.00  0.00    +0.000 A 
ATOM     14  C   UNL     1       2.699   2.543  17.556  0.00  0.00    +0.000 A 
ATOM     15  C   UNL     1       3.612   1.875  18.355  0.00  0.00    +0.000 A 
ATOM     16  N   UNL     1       4.063   2.339  19.529  0.00  0.00    +0.000 NA
ATOM     17  C   UNL     1       3.580   3.540  19.928  0.00  0.00    +0.000 A 
BRANCH  15  18
ATOM     18  O   UNL     1       4.125   0.669  17.985  0.00  0.00    +0.000 OA
ATOM     19  H   UNL     1       3.392   0.107  17.701  0.00  0.00    +0.000 HD
ENDBRANCH  15  18
ENDBRANCH   9  12
ENDBRANCH   4   7
BRANCH   1  20
ATOM     20  C   UNL     1       1.239  13.381  19.159  0.00  0.00    +0.000 C 
BRANCH  20  21
ATOM     21  C   UNL     1      -0.188  13.967  19.080  0.00  0.00    +0.000 C 
BRANCH  21  22
ATOM     22  N   UNL     1      -1.053  13.166  18.209  0.00  0.00    +0.000 N 
ATOM     23  C   UNL     1      -2.031  12.377  18.766  0.00  0.00    +0.000 C 
ATOM     24  O   UNL     1      -2.147  12.272  19.985  0.00  0.00    +0.000 OA
ATOM     25  H   UNL     1      -0.985  13.248  17.199  0.00  0.00    +0.000 HD
BRANCH  23  26
ATOM     26  C   UNL     1      -2.974  11.687  17.766  0.00  0.00    +0.000 C 
ATOM     27  N   UNL     1      -2.495  11.835  16.355  0.00  0.00    +0.000 NA
ATOM     28  C   UNL     1      -2.327  10.432  15.884  0.00  0.00    +0.000 C 
ATOM     29  C   UNL     1      -3.711   9.776  15.732  0.00  0.00    +0.000 C 
ATOM     30  C   UNL     1      -4.154   9.566  17.186  0.00  0.00    +0.000 C 
ATOM     31  C   UNL     1      -2.978  10.163  17.974  0.00  0.00    +0.000 C 
ATOM     32  C   UNL     1      -1.782   9.742  17.124  0.00  0.00    +0.000 C 
ATOM     33  H   UNL     1      -1.569  12.267  16.362  0.00  0.00    +0.000 HD
ENDBRANCH  23  26
ENDBRANCH  21  22
BRANCH  21  35
ATOM     34  N   UNL     1      -0.159  16.485  18.292  0.00  0.00    +0.000 NA
ATOM     35  C   UNL     1      -0.162  15.378  18.650  0.00  0.00    +0.000 C 
ENDBRANCH  21  35
ENDBRANCH  20  21
ENDBRANCH   1  20
TORSDOF 8
ENDMDL
MODEL 9
REMARK VINA RESULT:      -7.6      6.243      8.042
REMARK  Name = 
REMARK  8 active torsions:
REMARK  status: ('A' for Active; 'I' for Inactive)
REMARK    1  A    between atoms: C_2  and  C_3
REMARK    2  A    between atoms: C_3  and  C_4
REMARK    3  A    between atoms: C_3  and  N_23
REMARK    4  A    between atoms: C_4  and  C_5
REMARK    5  A    between atoms: C_8  and  N_9
REMARK    6  A    between atoms: C_11  and  C_12
REMARK    7  A    between atoms: C_15  and  O_16
REMARK    8  A    between atoms: C_24  and  C_26
REMARK                            x       y       z     vdW  Elec       q    Type
REMARK                         _______ _______ _______ _____ _____    ______ ____
ROOT
ATOM      1  C   UNL     1       2.365   5.729  19.498  0.00  0.00    +0.000 A 
ATOM      2  C   UNL     1       1.750   5.962  20.734  0.00  0.00    +0.000 A 
ATOM      3  C   UNL     1       1.324   7.239  21.092  0.00  0.00    +0.000 A 
ATOM      4  C   UNL     1       1.543   8.323  20.236  0.00  0.00    +0.000 A 
ATOM      5  C   UNL     1       2.200   8.116  19.019  0.00  0.00    +0.000 A 
ATOM      6  C   UNL     1       2.612   6.826  18.658  0.00  0.00    +0.000 A 
ENDROOT
BRANCH   4   7
ATOM      7  N   UNL     1       1.123   9.621  20.612  0.00  0.00    +0.000 N 
ATOM      8  C   UNL     1       0.820  10.680  19.788  0.00  0.00    +0.000 A 
ATOM      9  C   UNL     1       0.381  11.673  20.629  0.00  0.00    +0.000 A 
ATOM     10  N   UNL     1       0.469  11.230  21.921  0.00  0.00    +0.000 NA
ATOM     11  N   UNL     1       0.929   9.985  21.903  0.00  0.00    +0.000 NA
BRANCH   9  12
ATOM     12  C   UNL     1      -0.114  12.973  20.238  0.00  0.00    +0.000 A 
ATOM     13  C   UNL     1       0.394  13.619  19.108  0.00  0.00    +0.000 A 
ATOM     14  C   UNL     1      -0.087  14.879  18.752  0.00  0.00    +0.000 A 
ATOM     15  C   UNL     1      -1.065  15.452  19.546  0.00  0.00    +0.000 A 
ATOM     16  N   UNL     1      -1.580  14.874  20.640  0.00  0.00    +0.000 NA
ATOM     17  C   UNL     1      -1.095  13.650  20.959  0.00  0.00    +0.000 A 
BRANCH  15  18
ATOM     18  O   UNL     1      -1.583  16.678  19.254  0.00  0.00    +0.000 OA
ATOM     19  H   UNL     1      -2.325  16.552  18.646  0.00  0.00    +0.000 HD
ENDBRANCH  15  18
ENDBRANCH   9  12
ENDBRANCH   4   7
BRANCH   1  20
ATOM     20  C   UNL     1       2.788   4.337  19.065  0.00  0.00    +0.000 C 
BRANCH  20  21
ATOM     21  C   UNL     1       4.303   4.043  19.136  0.00  0.00    +0.000 C 
BRANCH  21  22
ATOM     22  N   UNL     1       4.910   4.008  17.803  0.00  0.00    +0.000 N 
ATOM     23  C   UNL     1       6.230   4.363  17.650  0.00  0.00    +0.000 C 
ATOM     24  O   UNL     1       6.891   4.781  18.599  0.00  0.00    +0.000 OA
ATOM     25  H   UNL     1       4.388   3.653  17.008  0.00  0.00    +0.000 HD
BRANCH  23  26
ATOM     26  C   UNL     1       6.810   4.161  16.241  0.00  0.00    +0.000 C 
ATOM     27  N   UNL     1       5.985   3.210  15.429  0.00  0.00    +0.000 NA
ATOM     28  C   UNL     1       5.583   4.009  14.239  0.00  0.00    +0.000 C 
ATOM     29  C   UNL     1       6.818   4.266  13.356  0.00  0.00    +0.000 C 
ATOM     30  C   UNL     1       7.615   5.295  14.170  0.00  0.00    +0.000 C 
ATOM     31  C   UNL     1       6.746   5.462  15.425  0.00  0.00    +0.000 C 
ATOM     32  C   UNL     1       5.336   5.381  14.845  0.00  0.00    +0.000 C 
ATOM     33  H   UNL     1       5.134   2.985  15.947  0.00  0.00    +0.000 HD
ENDBRANCH  23  26
ENDBRANCH  21  22
BRANCH  21  35
ATOM     34  N   UNL     1       4.792   1.798  20.433  0.00  0.00    +0.000 NA
ATOM     35  C   UNL     1       4.570   2.793  19.874  0.00  0.00    +0.000 C 
ENDBRANCH  21  35
ENDBRANCH  20  21
ENDBRANCH   1  20
TORSDOF 8
ENDMDL
