MODEL 1
REMARK VINA RESULT:      -8.2      0.000      0.000
REMARK  Name = 
REMARK  5 active torsions:
REMARK  status: ('A' for Active; 'I' for Inactive)
REMARK    1  A    between atoms: C_1  and  C_2
REMARK    2  A    between atoms: C_11  and  O_12
REMARK    3  A    between atoms: C_15  and  C_16
REMARK    4  A    between atoms: C_20  and  C_21
REMARK    5  A    between atoms: C_24  and  C_25
REMARK                            x       y       z     vdW  Elec       q    Type
REMARK                         _______ _______ _______ _____ _____    ______ ____
ROOT
ATOM      1  C   UNL     1      -1.601  11.168  19.977  0.00  0.00    +0.000 C 
ATOM      2  C   UNL     1      -0.139  10.917  20.522  0.00  0.00    +0.000 C 
ATOM      3  C   UNL     1      -0.186  10.449  21.974  0.00  0.00    +0.000 C 
ATOM      4  C   UNL     1      -1.222  11.252  22.758  0.00  0.00    +0.000 C 
ATOM      5  C   UNL     1      -0.921  12.757  22.633  0.00  0.00    +0.000 C 
ATOM      6  C   UNL     1      -0.106  13.275  21.311  0.00  0.00    +0.000 C 
ATOM      7  C   UNL     1       0.846  14.293  21.958  0.00  0.00    +0.000 C 
ATOM      8  C   UNL     1      -0.048  15.373  22.518  0.00  0.00    +0.000 C 
ATOM      9  C   UNL     1      -1.367  15.211  22.803  0.00  0.00    +0.000 C 
ATOM     10  C   UNL     1      -2.158  16.434  23.181  0.00  0.00    +0.000 C 
ATOM     11  C   UNL     1      -2.937  16.274  24.483  0.00  0.00    +0.000 C 
ATOM     12  C   UNL     1      -3.687  14.946  24.525  0.00  0.00    +0.000 C 
ATOM     13  C   UNL     1      -2.703  13.767  24.321  0.00  0.00    +0.000 C 
ATOM     14  C   UNL     1      -2.076  13.813  22.893  0.00  0.00    +0.000 C 
ATOM     15  C   UNL     1      -3.296  13.521  21.959  0.00  0.00    +0.000 C 
ATOM     16  C   UNL     1       0.579  12.255  20.377  0.00  0.00    +0.000 C 
ATOM     17  C   UNL     1       0.618  12.298  18.719  0.00  0.00    +0.000 C 
ATOM     18  C   UNL     1       0.449  10.751  18.241  0.00  0.00    +0.000 C 
ATOM     19  C   UNL     1       0.790  10.140  19.569  0.00  0.00    +0.000 C 
ENDROOT
BRANCH  19  20
ATOM     20  C   UNL     1       1.384   8.864  19.989  0.00  0.00    +0.000 A 
ATOM     21  C   UNL     1       1.397   8.089  21.114  0.00  0.00    +0.000 A 
ATOM     22  N   UNL     1       1.964   6.936  20.701  0.00  0.00    +0.000 N 
ATOM     23  C   UNL     1       2.263   6.967  19.372  0.00  0.00    +0.000 A 
ATOM     24  N   UNL     1       2.002   8.175  18.949  0.00  0.00    +0.000 NA
ATOM     25  H   UNL     1       2.114   6.105  21.300  0.00  0.00    +0.000 HD
BRANCH  23  26
ATOM     26  C   UNL     1       2.828   5.885  18.564  0.00  0.00    +0.000 A 
ATOM     27  C   UNL     1       4.060   6.017  17.900  0.00  0.00    +0.000 A 
ATOM     28  C   UNL     1       4.556   4.982  17.079  0.00  0.00    +0.000 A 
ATOM     29  C   UNL     1       3.846   3.804  16.916  0.00  0.00    +0.000 A 
ATOM     30  C   UNL     1       2.645   3.642  17.634  0.00  0.00    +0.000 A 
ATOM     31  C   UNL     1       2.139   4.667  18.449  0.00  0.00    +0.000 A 
ENDBRANCH  23  26
ENDBRANCH  19  20
BRANCH  11  32
ATOM     32  O   UNL     1      -3.856  17.357  24.627  0.00  0.00    +0.000 OA
ATOM     33  H   UNL     1      -3.353  18.188  24.569  0.00  0.00    +0.000 HD
ENDBRANCH  11  32
TORSDOF 3
ENDMDL
MODEL 2
REMARK VINA RESULT:      -8.0      0.936      1.070
REMARK  Name = 
REMARK  5 active torsions:
REMARK  status: ('A' for Active; 'I' for Inactive)
REMARK    1  A    between atoms: C_1  and  C_2
REMARK    2  A    between atoms: C_11  and  O_12
REMARK    3  A    between atoms: C_15  and  C_16
REMARK    4  A    between atoms: C_20  and  C_21
REMARK    5  A    between atoms: C_24  and  C_25
REMARK                            x       y       z     vdW  Elec       q    Type
REMARK                         _______ _______ _______ _____ _____    ______ ____
ROOT
ATOM      1  C   UNL     1      -1.460  10.566  19.563  0.00  0.00    +0.000 C 
ATOM      2  C   UNL     1       0.016  10.422  20.110  0.00  0.00    +0.000 C 
ATOM      3  C   UNL     1       0.007   9.806  21.507  0.00  0.00    +0.000 C 
ATOM      4  C   UNL     1      -1.119  10.408  22.346  0.00  0.00    +0.000 C 
ATOM      5  C   UNL     1      -0.985  11.942  22.378  0.00  0.00    +0.000 C 
ATOM      6  C   UNL     1      -0.220  12.677  21.132  0.00  0.00    +0.000 C 
ATOM      7  C   UNL     1       0.607  13.722  21.897  0.00  0.00    +0.000 C 
ATOM      8  C   UNL     1      -0.405  14.635  22.543  0.00  0.00    +0.000 C 
ATOM      9  C   UNL     1      -1.701  14.303  22.783  0.00  0.00    +0.000 C 
ATOM     10  C   UNL     1      -2.626  15.387  23.265  0.00  0.00    +0.000 C 
ATOM     11  C   UNL     1      -3.395  15.012  24.529  0.00  0.00    +0.000 C 
ATOM     12  C   UNL     1      -3.994  13.612  24.422  0.00  0.00    +0.000 C 
ATOM     13  C   UNL     1      -2.884  12.574  24.122  0.00  0.00    +0.000 C 
ATOM     14  C   UNL     1      -2.252  12.833  22.719  0.00  0.00    +0.000 C 
ATOM     15  C   UNL     1      -3.423  12.506  21.735  0.00  0.00    +0.000 C 
ATOM     16  C   UNL     1       0.583  11.838  20.115  0.00  0.00    +0.000 C 
ATOM     17  C   UNL     1       0.633  12.053  18.471  0.00  0.00    +0.000 C 
ATOM     18  C   UNL     1       0.640  10.553  17.837  0.00  0.00    +0.000 C 
ATOM     19  C   UNL     1       1.034   9.851  19.104  0.00  0.00    +0.000 C 
ENDROOT
BRANCH  19  20
ATOM     20  C   UNL     1       1.762   8.612  19.407  0.00  0.00    +0.000 A 
ATOM     21  C   UNL     1       1.789   7.688  20.413  0.00  0.00    +0.000 A 
ATOM     22  N   UNL     1       2.541   6.688  19.908  0.00  0.00    +0.000 N 
ATOM     23  C   UNL     1       2.940   6.950  18.632  0.00  0.00    +0.000 A 
ATOM     24  N   UNL     1       2.551   8.165  18.350  0.00  0.00    +0.000 NA
ATOM     25  H   UNL     1       2.755   5.804  20.403  0.00  0.00    +0.000 HD
BRANCH  23  26
ATOM     26  C   UNL     1       3.713   6.076  17.747  0.00  0.00    +0.000 A 
ATOM     27  C   UNL     1       4.675   6.582  16.857  0.00  0.00    +0.000 A 
ATOM     28  C   UNL     1       5.366   5.727  15.971  0.00  0.00    +0.000 A 
ATOM     29  C   UNL     1       5.119   4.364  15.966  0.00  0.00    +0.000 A 
ATOM     30  C   UNL     1       4.205   3.845  16.904  0.00  0.00    +0.000 A 
ATOM     31  C   UNL     1       3.508   4.687  17.785  0.00  0.00    +0.000 A 
ENDBRANCH  23  26
ENDBRANCH  19  20
BRANCH  11  32
ATOM     32  O   UNL     1      -4.429  15.967  24.760  0.00  0.00    +0.000 OA
ATOM     33  H   UNL     1      -4.178  16.502  25.533  0.00  0.00    +0.000 HD
ENDBRANCH  11  32
TORSDOF 3
ENDMDL
MODEL 3
REMARK VINA RESULT:      -7.9      1.392      1.776
REMARK  Name = 
REMARK  5 active torsions:
REMARK  status: ('A' for Active; 'I' for Inactive)
REMARK    1  A    between atoms: C_1  and  C_2
REMARK    2  A    between atoms: C_11  and  O_12
REMARK    3  A    between atoms: C_15  and  C_16
REMARK    4  A    between atoms: C_20  and  C_21
REMARK    5  A    between atoms: C_24  and  C_25
REMARK                            x       y       z     vdW  Elec       q    Type
REMARK                         _______ _______ _______ _____ _____    ______ ____
ROOT
ATOM      1  C   UNL     1      -0.767  10.345  19.069  0.00  0.00    +0.000 C 
ATOM      2  C   UNL     1       0.538  10.020  19.899  0.00  0.00    +0.000 C 
ATOM      3  C   UNL     1       0.187   9.764  21.363  0.00  0.00    +0.000 C 
ATOM      4  C   UNL     1      -0.856  10.772  21.843  0.00  0.00    +0.000 C 
ATOM      5  C   UNL     1      -0.349  12.205  21.600  0.00  0.00    +0.000 C 
ATOM      6  C   UNL     1       0.737  12.448  20.399  0.00  0.00    +0.000 C 
ATOM      7  C   UNL     1       1.688  13.440  21.087  0.00  0.00    +0.000 C 
ATOM      8  C   UNL     1       0.858  14.674  21.342  0.00  0.00    +0.000 C 
ATOM      9  C   UNL     1      -0.500  14.693  21.397  0.00  0.00    +0.000 C 
ATOM     10  C   UNL     1      -1.181  16.031  21.477  0.00  0.00    +0.000 C 
ATOM     11  C   UNL     1      -2.183  16.136  22.623  0.00  0.00    +0.000 C 
ATOM     12  C   UNL     1      -3.092  14.912  22.682  0.00  0.00    +0.000 C 
ATOM     13  C   UNL     1      -2.247  13.619  22.802  0.00  0.00    +0.000 C 
ATOM     14  C   UNL     1      -1.387  13.402  21.518  0.00  0.00    +0.000 C 
ATOM     15  C   UNL     1      -2.458  13.113  20.417  0.00  0.00    +0.000 C 
ATOM     16  C   UNL     1       1.434  11.243  19.734  0.00  0.00    +0.000 C 
ATOM     17  C   UNL     1       1.758  11.052  18.117  0.00  0.00    +0.000 C 
ATOM     18  C   UNL     1       1.476   9.480  17.801  0.00  0.00    +0.000 C 
ATOM     19  C   UNL     1       1.508   9.026  19.231  0.00  0.00    +0.000 C 
ENDROOT
BRANCH  19  20
ATOM     20  C   UNL     1       1.855   7.765  19.900  0.00  0.00    +0.000 A 
ATOM     21  C   UNL     1       1.711   7.220  21.145  0.00  0.00    +0.000 A 
ATOM     22  N   UNL     1       2.066   5.930  20.971  0.00  0.00    +0.000 N 
ATOM     23  C   UNL     1       2.383   5.662  19.674  0.00  0.00    +0.000 A 
ATOM     24  N   UNL     1       2.351   6.798  19.029  0.00  0.00    +0.000 NA
ATOM     25  H   UNL     1       2.054   5.211  21.716  0.00  0.00    +0.000 HD
BRANCH  23  26
ATOM     26  C   UNL     1       2.753   4.368  19.100  0.00  0.00    +0.000 A 
ATOM     27  C   UNL     1       2.238   3.924  17.870  0.00  0.00    +0.000 A 
ATOM     28  C   UNL     1       2.563   2.647  17.364  0.00  0.00    +0.000 A 
ATOM     29  C   UNL     1       3.410   1.803  18.064  0.00  0.00    +0.000 A 
ATOM     30  C   UNL     1       3.982   2.271  19.263  0.00  0.00    +0.000 A 
ATOM     31  C   UNL     1       3.660   3.537  19.779  0.00  0.00    +0.000 A 
ENDBRANCH  23  26
ENDBRANCH  19  20
BRANCH  11  32
ATOM     32  O   UNL     1      -2.967  17.318  22.467  0.00  0.00    +0.000 OA
ATOM     33  H   UNL     1      -3.154  17.433  21.520  0.00  0.00    +0.000 HD
ENDBRANCH  11  32
TORSDOF 3
ENDMDL
MODEL 4
REMARK VINA RESULT:      -7.7      1.198      1.716
REMARK  Name = 
REMARK  5 active torsions:
REMARK  status: ('A' for Active; 'I' for Inactive)
REMARK    1  A    between atoms: C_1  and  C_2
REMARK    2  A    between atoms: C_11  and  O_12
REMARK    3  A    between atoms: C_15  and  C_16
REMARK    4  A    between atoms: C_20  and  C_21
REMARK    5  A    between atoms: C_24  and  C_25
REMARK                            x       y       z     vdW  Elec       q    Type
REMARK                         _______ _______ _______ _____ _____    ______ ____
ROOT
ATOM      1  C   UNL     1      -1.965  11.888  20.166  0.00  0.00    +0.000 C 
ATOM      2  C   UNL     1      -0.654  11.739  21.037  0.00  0.00    +0.000 C 
ATOM      3  C   UNL     1      -1.001  11.243  22.438  0.00  0.00    +0.000 C 
ATOM      4  C   UNL     1      -2.250  11.952  22.958  0.00  0.00    +0.000 C 
ATOM      5  C   UNL     1      -2.046  13.478  22.906  0.00  0.00    +0.000 C 
ATOM      6  C   UNL     1      -0.988  14.078  21.810  0.00  0.00    +0.000 C 
ATOM      7  C   UNL     1      -0.294  15.154  22.661  0.00  0.00    +0.000 C 
ATOM      8  C   UNL     1      -1.374  16.153  22.996  0.00  0.00    +0.000 C 
ATOM      9  C   UNL     1      -2.707  15.888  22.965  0.00  0.00    +0.000 C 
ATOM     10  C   UNL     1      -3.656  17.041  23.148  0.00  0.00    +0.000 C 
ATOM     11  C   UNL     1      -4.702  16.801  24.232  0.00  0.00    +0.000 C 
ATOM     12  C   UNL     1      -5.336  15.419  24.099  0.00  0.00    +0.000 C 
ATOM     13  C   UNL     1      -4.244  14.321  24.131  0.00  0.00    +0.000 C 
ATOM     14  C   UNL     1      -3.307  14.439  22.889  0.00  0.00    +0.000 C 
ATOM     15  C   UNL     1      -4.250  14.072  21.697  0.00  0.00    +0.000 C 
ATOM     16  C   UNL     1      -0.028  13.129  21.062  0.00  0.00    +0.000 C 
ATOM     17  C   UNL     1       0.392  13.204  19.459  0.00  0.00    +0.000 C 
ATOM     18  C   UNL     1       0.459  11.657  18.956  0.00  0.00    +0.000 C 
ATOM     19  C   UNL     1       0.528  11.050  20.327  0.00  0.00    +0.000 C 
ENDROOT
BRANCH  19  20
ATOM     20  C   UNL     1       1.105   9.816  20.875  0.00  0.00    +0.000 A 
ATOM     21  C   UNL     1       1.305   9.267  22.111  0.00  0.00    +0.000 A 
ATOM     22  N   UNL     1       1.684   8.001  21.840  0.00  0.00    +0.000 N 
ATOM     23  C   UNL     1       1.690   7.749  20.501  0.00  0.00    +0.000 A 
ATOM     24  N   UNL     1       1.432   8.879  19.898  0.00  0.00    +0.000 NA
ATOM     25  H   UNL     1       1.900   7.285  22.556  0.00  0.00    +0.000 HD
BRANCH  23  26
ATOM     26  C   UNL     1       1.987   6.479  19.838  0.00  0.00    +0.000 A 
ATOM     27  C   UNL     1       1.753   5.241  20.462  0.00  0.00    +0.000 A 
ATOM     28  C   UNL     1       2.102   4.030  19.826  0.00  0.00    +0.000 A 
ATOM     29  C   UNL     1       2.675   4.032  18.565  0.00  0.00    +0.000 A 
ATOM     30  C   UNL     1       2.848   5.267  17.910  0.00  0.00    +0.000 A 
ATOM     31  C   UNL     1       2.510   6.477  18.535  0.00  0.00    +0.000 A 
ENDBRANCH  23  26
ENDBRANCH  19  20
BRANCH  11  32
ATOM     32  O   UNL     1      -5.710  17.808  24.157  0.00  0.00    +0.000 OA
ATOM     33  H   UNL     1      -6.472  17.513  24.685  0.00  0.00    +0.000 HD
ENDBRANCH  11  32
TORSDOF 3
ENDMDL
MODEL 5
REMARK VINA RESULT:      -7.6      1.984      3.302
REMARK  Name = 
REMARK  5 active torsions:
REMARK  status: ('A' for Active; 'I' for Inactive)
REMARK    1  A    between atoms: C_1  and  C_2
REMARK    2  A    between atoms: C_11  and  O_12
REMARK    3  A    between atoms: C_15  and  C_16
REMARK    4  A    between atoms: C_20  and  C_21
REMARK    5  A    between atoms: C_24  and  C_25
REMARK                            x       y       z     vdW  Elec       q    Type
REMARK                         _______ _______ _______ _____ _____    ______ ____
ROOT
ATOM      1  C   UNL     1      -0.810  13.921  19.598  0.00  0.00    +0.000 C 
ATOM      2  C   UNL     1      -0.534  12.418  20.003  0.00  0.00    +0.000 C 
ATOM      3  C   UNL     1      -1.583  11.500  19.379  0.00  0.00    +0.000 C 
ATOM      4  C   UNL     1      -2.970  12.132  19.481  0.00  0.00    +0.000 C 
ATOM      5  C   UNL     1      -3.283  12.473  20.950  0.00  0.00    +0.000 C 
ATOM      6  C   UNL     1      -2.028  12.748  21.963  0.00  0.00    +0.000 C 
ATOM      7  C   UNL     1      -2.519  12.004  23.215  0.00  0.00    +0.000 C 
ATOM      8  C   UNL     1      -3.760  12.742  23.655  0.00  0.00    +0.000 C 
ATOM      9  C   UNL     1      -4.507  13.542  22.849  0.00  0.00    +0.000 C 
ATOM     10  C   UNL     1      -5.606  14.349  23.486  0.00  0.00    +0.000 C 
ATOM     11  C   UNL     1      -6.960  14.177  22.803  0.00  0.00    +0.000 C 
ATOM     12  C   UNL     1      -6.837  14.284  21.286  0.00  0.00    +0.000 C 
ATOM     13  C   UNL     1      -5.814  13.248  20.756  0.00  0.00    +0.000 C 
ATOM     14  C   UNL     1      -4.381  13.568  21.284  0.00  0.00    +0.000 C 
ATOM     15  C   UNL     1      -4.033  14.917  20.574  0.00  0.00    +0.000 C 
ATOM     16  C   UNL     1      -0.590  12.395  21.526  0.00  0.00    +0.000 C 
ATOM     17  C   UNL     1       0.779  13.290  21.803  0.00  0.00    +0.000 C 
ATOM     18  C   UNL     1       1.662  13.165  20.441  0.00  0.00    +0.000 C 
ATOM     19  C   UNL     1       0.936  11.970  19.895  0.00  0.00    +0.000 C 
ENDROOT
BRANCH  19  20
ATOM     20  C   UNL     1       1.310  10.858  19.013  0.00  0.00    +0.000 A 
ATOM     21  C   UNL     1       1.846  10.707  17.764  0.00  0.00    +0.000 A 
ATOM     22  N   UNL     1       2.124   9.389  17.693  0.00  0.00    +0.000 N 
ATOM     23  C   UNL     1       1.815   8.743  18.852  0.00  0.00    +0.000 A 
ATOM     24  N   UNL     1       1.226   9.612  19.630  0.00  0.00    +0.000 NA
ATOM     25  H   UNL     1       2.566   8.922  16.881  0.00  0.00    +0.000 HD
BRANCH  23  26
ATOM     26  C   UNL     1       2.032   7.330  19.166  0.00  0.00    +0.000 A 
ATOM     27  C   UNL     1       2.562   6.431  18.225  0.00  0.00    +0.000 A 
ATOM     28  C   UNL     1       2.707   5.060  18.531  0.00  0.00    +0.000 A 
ATOM     29  C   UNL     1       2.340   4.569  19.773  0.00  0.00    +0.000 A 
ATOM     30  C   UNL     1       1.872   5.479  20.741  0.00  0.00    +0.000 A 
ATOM     31  C   UNL     1       1.718   6.843  20.445  0.00  0.00    +0.000 A 
ENDBRANCH  23  26
ENDBRANCH  19  20
BRANCH  11  32
ATOM     32  O   UNL     1      -7.869  15.164  23.289  0.00  0.00    +0.000 OA
ATOM     33  H   UNL     1      -7.843  15.145  24.261  0.00  0.00    +0.000 HD
ENDBRANCH  11  32
TORSDOF 3
ENDMDL
MODEL 6
REMARK VINA RESULT:      -7.3      1.768      3.189
REMARK  Name = 
REMARK  5 active torsions:
REMARK  status: ('A' for Active; 'I' for Inactive)
REMARK    1  A    between atoms: C_1  and  C_2
REMARK    2  A    between atoms: C_11  and  O_12
REMARK    3  A    between atoms: C_15  and  C_16
REMARK    4  A    between atoms: C_20  and  C_21
REMARK    5  A    between atoms: C_24  and  C_25
REMARK                            x       y       z     vdW  Elec       q    Type
REMARK                         _______ _______ _______ _____ _____    ______ ____
ROOT
ATOM      1  C   UNL     1       1.478  12.084  21.209  0.00  0.00    +0.000 C 
ATOM      2  C   UNL     1       0.703  11.169  20.179  0.00  0.00    +0.000 C 
ATOM      3  C   UNL     1       0.735  11.792  18.786  0.00  0.00    +0.000 C 
ATOM      4  C   UNL     1       0.504  13.300  18.873  0.00  0.00    +0.000 C 
ATOM      5  C   UNL     1      -0.814  13.586  19.617  0.00  0.00    +0.000 C 
ATOM      6  C   UNL     1      -1.355  12.470  20.685  0.00  0.00    +0.000 C 
ATOM      7  C   UNL     1      -2.857  12.484  20.357  0.00  0.00    +0.000 C 
ATOM      8  C   UNL     1      -3.329  13.872  20.716  0.00  0.00    +0.000 C 
ATOM      9  C   UNL     1      -2.519  14.958  20.825  0.00  0.00    +0.000 C 
ATOM     10  C   UNL     1      -3.116  16.227  21.369  0.00  0.00    +0.000 C 
ATOM     11  C   UNL     1      -2.870  17.444  20.481  0.00  0.00    +0.000 C 
ATOM     12  C   UNL     1      -1.413  17.521  20.034  0.00  0.00    +0.000 C 
ATOM     13  C   UNL     1      -1.004  16.215  19.308  0.00  0.00    +0.000 C 
ATOM     14  C   UNL     1      -1.043  15.004  20.290  0.00  0.00    +0.000 C 
ATOM     15  C   UNL     1       0.116  15.320  21.292  0.00  0.00    +0.000 C 
ATOM     16  C   UNL     1      -0.718  11.065  20.725  0.00  0.00    +0.000 C 
ATOM     17  C   UNL     1      -0.361  10.175  22.080  0.00  0.00    +0.000 C 
ATOM     18  C   UNL     1       1.064   9.455  21.762  0.00  0.00    +0.000 C 
ATOM     19  C   UNL     1       1.016   9.663  20.277  0.00  0.00    +0.000 C 
ENDROOT
BRANCH  19  20
ATOM     20  C   UNL     1       1.569   8.945  19.122  0.00  0.00    +0.000 A 
ATOM     21  C   UNL     1       2.049   9.262  17.882  0.00  0.00    +0.000 A 
ATOM     22  N   UNL     1       2.601   8.109  17.449  0.00  0.00    +0.000 N 
ATOM     23  C   UNL     1       2.508   7.121  18.382  0.00  0.00    +0.000 A 
ATOM     24  N   UNL     1       1.793   7.593  19.369  0.00  0.00    +0.000 NA
ATOM     25  H   UNL     1       3.083   7.991  16.540  0.00  0.00    +0.000 HD
BRANCH  23  26
ATOM     26  C   UNL     1       3.044   5.762  18.293  0.00  0.00    +0.000 A 
ATOM     27  C   UNL     1       2.270   4.686  17.827  0.00  0.00    +0.000 A 
ATOM     28  C   UNL     1       2.790   3.373  17.805  0.00  0.00    +0.000 A 
ATOM     29  C   UNL     1       4.082   3.116  18.233  0.00  0.00    +0.000 A 
ATOM     30  C   UNL     1       4.882   4.202  18.637  0.00  0.00    +0.000 A 
ATOM     31  C   UNL     1       4.374   5.511  18.669  0.00  0.00    +0.000 A 
ENDBRANCH  23  26
ENDBRANCH  19  20
BRANCH  11  32
ATOM     32  O   UNL     1      -3.226  18.631  21.187  0.00  0.00    +0.000 OA
ATOM     33  H   UNL     1      -2.900  18.548  22.100  0.00  0.00    +0.000 HD
ENDBRANCH  11  32
TORSDOF 3
ENDMDL
MODEL 7
REMARK VINA RESULT:      -7.2      1.956      3.295
REMARK  Name = 
REMARK  5 active torsions:
REMARK  status: ('A' for Active; 'I' for Inactive)
REMARK    1  A    between atoms: C_1  and  C_2
REMARK    2  A    between atoms: C_11  and  O_12
REMARK    3  A    between atoms: C_15  and  C_16
REMARK    4  A    between atoms: C_20  and  C_21
REMARK    5  A    between atoms: C_24  and  C_25
REMARK                            x       y       z     vdW  Elec       q    Type
REMARK                         _______ _______ _______ _____ _____    ______ ____
ROOT
ATOM      1  C   UNL     1      -1.219  13.976  19.776  0.00  0.00    +0.000 C 
ATOM      2  C   UNL     1      -1.149  12.438  20.135  0.00  0.00    +0.000 C 
ATOM      3  C   UNL     1      -2.335  11.695  19.526  0.00  0.00    +0.000 C 
ATOM      4  C   UNL     1      -3.615  12.514  19.689  0.00  0.00    +0.000 C 
ATOM      5  C   UNL     1      -3.832  12.854  21.175  0.00  0.00    +0.000 C 
ATOM      6  C   UNL     1      -2.520  12.921  22.152  0.00  0.00    +0.000 C 
ATOM      7  C   UNL     1      -3.075  12.219  23.402  0.00  0.00    +0.000 C 
ATOM      8  C   UNL     1      -4.184  13.112  23.900  0.00  0.00    +0.000 C 
ATOM      9  C   UNL     1      -4.834  14.032  23.140  0.00  0.00    +0.000 C 
ATOM     10  C   UNL     1      -5.787  14.968  23.832  0.00  0.00    +0.000 C 
ATOM     11  C   UNL     1      -7.172  15.008  23.191  0.00  0.00    +0.000 C 
ATOM     12  C   UNL     1      -7.080  15.139  21.674  0.00  0.00    +0.000 C 
ATOM     13  C   UNL     1      -6.232  13.985  21.085  0.00  0.00    +0.000 C 
ATOM     14  C   UNL     1      -4.753  14.083  21.572  0.00  0.00    +0.000 C 
ATOM     15  C   UNL     1      -4.238  15.389  20.883  0.00  0.00    +0.000 C 
ATOM     16  C   UNL     1      -1.161  12.380  21.659  0.00  0.00    +0.000 C 
ATOM     17  C   UNL     1       0.329  13.065  21.911  0.00  0.00    +0.000 C 
ATOM     18  C   UNL     1       1.144  12.855  20.517  0.00  0.00    +0.000 C 
ATOM     19  C   UNL     1       0.240  11.790  19.968  0.00  0.00    +0.000 C 
ENDROOT
BRANCH  19  20
ATOM     20  C   UNL     1       0.425  10.661  19.047  0.00  0.00    +0.000 A 
ATOM     21  C   UNL     1       0.124  10.371  17.746  0.00  0.00    +0.000 A 
ATOM     22  N   UNL     1       0.804   9.230  17.508  0.00  0.00    +0.000 N 
ATOM     23  C   UNL     1       1.528   8.836  18.592  0.00  0.00    +0.000 A 
ATOM     24  N   UNL     1       1.228   9.650  19.569  0.00  0.00    +0.000 NA
ATOM     25  H   UNL     1       0.819   8.732  16.600  0.00  0.00    +0.000 HD
BRANCH  23  26
ATOM     26  C   UNL     1       2.430   7.688  18.688  0.00  0.00    +0.000 A 
ATOM     27  C   UNL     1       3.462   7.471  17.759  0.00  0.00    +0.000 A 
ATOM     28  C   UNL     1       4.282   6.325  17.837  0.00  0.00    +0.000 A 
ATOM     29  C   UNL     1       4.096   5.389  18.841  0.00  0.00    +0.000 A 
ATOM     30  C   UNL     1       3.107   5.636  19.813  0.00  0.00    +0.000 A 
ATOM     31  C   UNL     1       2.282   6.770  19.741  0.00  0.00    +0.000 A 
ENDBRANCH  23  26
ENDBRANCH  19  20
BRANCH  11  32
ATOM     32  O   UNL     1      -7.916  16.099  23.730  0.00  0.00    +0.000 OA
ATOM     33  H   UNL     1      -8.666  16.276  23.135  0.00  0.00    +0.000 HD
ENDBRANCH  11  32
TORSDOF 3
ENDMDL
MODEL 8
REMARK VINA RESULT:      -7.2      5.511      6.960
REMARK  Name = 
REMARK  5 active torsions:
REMARK  status: ('A' for Active; 'I' for Inactive)
REMARK    1  A    between atoms: C_1  and  C_2
REMARK    2  A    between atoms: C_11  and  O_12
REMARK    3  A    between atoms: C_15  and  C_16
REMARK    4  A    between atoms: C_20  and  C_21
REMARK    5  A    between atoms: C_24  and  C_25
REMARK                            x       y       z     vdW  Elec       q    Type
REMARK                         _______ _______ _______ _____ _____    ______ ____
ROOT
ATOM      1  C   UNL     1       2.421  13.930  18.128  0.00  0.00    +0.000 C 
ATOM      2  C   UNL     1       3.140  14.967  19.080  0.00  0.00    +0.000 C 
ATOM      3  C   UNL     1       3.560  14.289  20.382  0.00  0.00    +0.000 C 
ATOM      4  C   UNL     1       2.456  13.356  20.876  0.00  0.00    +0.000 C 
ATOM      5  C   UNL     1       1.136  14.137  21.017  0.00  0.00    +0.000 C 
ATOM      6  C   UNL     1       0.922  15.467  20.088  0.00  0.00    +0.000 C 
ATOM      7  C   UNL     1       0.273  16.413  21.111  0.00  0.00    +0.000 C 
ATOM      8  C   UNL     1      -1.043  15.769  21.469  0.00  0.00    +0.000 C 
ATOM      9  C   UNL     1      -1.328  14.451  21.299  0.00  0.00    +0.000 C 
ATOM     10  C   UNL     1      -2.745  14.003  21.535  0.00  0.00    +0.000 C 
ATOM     11  C   UNL     1      -2.858  12.823  22.495  0.00  0.00    +0.000 C 
ATOM     12  C   UNL     1      -1.852  11.728  22.152  0.00  0.00    +0.000 C 
ATOM     13  C   UNL     1      -0.413  12.301  22.147  0.00  0.00    +0.000 C 
ATOM     14  C   UNL     1      -0.244  13.353  21.007  0.00  0.00    +0.000 C 
ATOM     15  C   UNL     1      -0.368  12.493  19.707  0.00  0.00    +0.000 C 
ATOM     16  C   UNL     1       2.115  16.071  19.317  0.00  0.00    +0.000 C 
ATOM     17  C   UNL     1       2.094  16.678  17.773  0.00  0.00    +0.000 C 
ATOM     18  C   UNL     1       3.500  16.204  17.102  0.00  0.00    +0.000 C 
ATOM     19  C   UNL     1       4.184  15.870  18.395  0.00  0.00    +0.000 C 
ENDROOT
BRANCH  19  20
ATOM     20  C   UNL     1       5.582  15.857  18.842  0.00  0.00    +0.000 A 
ATOM     21  C   UNL     1       6.295  16.320  19.914  0.00  0.00    +0.000 A 
ATOM     22  N   UNL     1       7.505  15.741  19.766  0.00  0.00    +0.000 N 
ATOM     23  C   UNL     1       7.546  14.924  18.677  0.00  0.00    +0.000 A 
ATOM     24  N   UNL     1       6.408  15.063  18.050  0.00  0.00    +0.000 NA
ATOM     25  H   UNL     1       8.297  15.858  20.422  0.00  0.00    +0.000 HD
BRANCH  23  26
ATOM     26  C   UNL     1       8.663  14.088  18.236  0.00  0.00    +0.000 A 
ATOM     27  C   UNL     1       8.574  12.686  18.197  0.00  0.00    +0.000 A 
ATOM     28  C   UNL     1       9.685  11.898  17.825  0.00  0.00    +0.000 A 
ATOM     29  C   UNL     1      10.888  12.488  17.477  0.00  0.00    +0.000 A 
ATOM     30  C   UNL     1      10.960  13.895  17.450  0.00  0.00    +0.000 A 
ATOM     31  C   UNL     1       9.864  14.689  17.825  0.00  0.00    +0.000 A 
ENDBRANCH  23  26
ENDBRANCH  19  20
BRANCH  11  32
ATOM     32  O   UNL     1      -4.183  12.297  22.454  0.00  0.00    +0.000 OA
ATOM     33  H   UNL     1      -4.555  12.347  23.352  0.00  0.00    +0.000 HD
ENDBRANCH  11  32
TORSDOF 3
ENDMDL
MODEL 9
REMARK VINA RESULT:      -7.0      5.790      8.601
REMARK  Name = 
REMARK  5 active torsions:
REMARK  status: ('A' for Active; 'I' for Inactive)
REMARK    1  A    between atoms: C_1  and  C_2
REMARK    2  A    between atoms: C_11  and  O_12
REMARK    3  A    between atoms: C_15  and  C_16
REMARK    4  A    between atoms: C_20  and  C_21
REMARK    5  A    between atoms: C_24  and  C_25
REMARK                            x       y       z     vdW  Elec       q    Type
REMARK                         _______ _______ _______ _____ _____    ______ ____
ROOT
ATOM      1  C   UNL     1       3.078  17.067  20.334  0.00  0.00    +0.000 C 
ATOM      2  C   UNL     1       2.624  15.684  19.718  0.00  0.00    +0.000 C 
ATOM      3  C   UNL     1       2.982  14.539  20.663  0.00  0.00    +0.000 C 
ATOM      4  C   UNL     1       4.375  14.753  21.253  0.00  0.00    +0.000 C 
ATOM      5  C   UNL     1       5.403  14.925  20.119  0.00  0.00    +0.000 C 
ATOM      6  C   UNL     1       4.875  15.493  18.677  0.00  0.00    +0.000 C 
ATOM      7  C   UNL     1       5.663  14.585  17.720  0.00  0.00    +0.000 C 
ATOM      8  C   UNL     1       7.114  14.926  17.954  0.00  0.00    +0.000 C 
ATOM      9  C   UNL     1       7.596  15.521  19.076  0.00  0.00    +0.000 C 
ATOM     10  C   UNL     1       9.035  15.959  19.077  0.00  0.00    +0.000 C 
ATOM     11  C   UNL     1       9.826  15.448  20.278  0.00  0.00    +0.000 C 
ATOM     12  C   UNL     1       9.058  15.655  21.579  0.00  0.00    +0.000 C 
ATOM     13  C   UNL     1       7.670  14.971  21.499  0.00  0.00    +0.000 C 
ATOM     14  C   UNL     1       6.782  15.653  20.413  0.00  0.00    +0.000 C 
ATOM     15  C   UNL     1       6.525  17.077  21.006  0.00  0.00    +0.000 C 
ATOM     16  C   UNL     1       3.361  15.576  18.387  0.00  0.00    +0.000 C 
ATOM     17  C   UNL     1       2.567  16.804  17.604  0.00  0.00    +0.000 C 
ATOM     18  C   UNL     1       1.163  16.994  18.406  0.00  0.00    +0.000 C 
ATOM     19  C   UNL     1       1.208  15.670  19.112  0.00  0.00    +0.000 C 
ENDROOT
BRANCH  19  20
ATOM     20  C   UNL     1       0.189  14.748  19.630  0.00  0.00    +0.000 A 
ATOM     21  C   UNL     1      -0.690  14.713  20.676  0.00  0.00    +0.000 A 
ATOM     22  N   UNL     1      -1.480  13.655  20.394  0.00  0.00    +0.000 N 
ATOM     23  C   UNL     1      -1.142  13.073  19.210  0.00  0.00    +0.000 A 
ATOM     24  N   UNL     1      -0.062  13.672  18.782  0.00  0.00    +0.000 NA
ATOM     25  H   UNL     1      -2.279  13.346  20.974  0.00  0.00    +0.000 HD
BRANCH  23  26
ATOM     26  C   UNL     1      -1.808  11.947  18.553  0.00  0.00    +0.000 A 
ATOM     27  C   UNL     1      -3.207  11.872  18.440  0.00  0.00    +0.000 A 
ATOM     28  C   UNL     1      -3.829  10.748  17.854  0.00  0.00    +0.000 A 
ATOM     29  C   UNL     1      -3.074   9.695  17.365  0.00  0.00    +0.000 A 
ATOM     30  C   UNL     1      -1.670   9.798  17.415  0.00  0.00    +0.000 A 
ATOM     31  C   UNL     1      -1.040  10.908  18.001  0.00  0.00    +0.000 A 
ENDBRANCH  23  26
ENDBRANCH  19  20
BRANCH  11  32
ATOM     32  O   UNL     1      11.084  16.118  20.342  0.00  0.00    +0.000 OA
ATOM     33  H   UNL     1      10.923  17.035  20.626  0.00  0.00    +0.000 HD
ENDBRANCH  11  32
TORSDOF 3
ENDMDL
