MODEL 1
REMARK VINA RESULT:      -8.2      0.000      0.000
REMARK  Name = 
REMARK  6 active torsions:
REMARK  status: ('A' for Active; 'I' for Inactive)
REMARK    1  A    between atoms: C_1  and  S_2
REMARK    2  A    between atoms: S_2  and  C_3
REMARK    3  A    between atoms: C_7  and  C_8
REMARK    4  A    between atoms: C_12  and  O_13
REMARK    5  A    between atoms: O_13  and  C_14
REMARK    6  A    between atoms: C_14  and  C_15
REMARK                            x       y       z     vdW  Elec       q    Type
REMARK                         _______ _______ _______ _____ _____    ______ ____
ROOT
ATOM      1  C   UNL     1       7.714   8.272  17.911  0.00  0.00    +0.000 A 
ATOM      2  C   UNL     1       7.848   7.062  18.557  0.00  0.00    +0.000 A 
ATOM      3  C   UNL     1       6.903   6.187  17.973  0.00  0.00    +0.000 A 
ATOM      4  C   UNL     1       6.502   4.861  18.201  0.00  0.00    +0.000 A 
ATOM      5  C   UNL     1       5.447   4.338  17.442  0.00  0.00    +0.000 A 
ATOM      6  C   UNL     1       4.878   5.080  16.402  0.00  0.00    +0.000 A 
ATOM      7  C   UNL     1       5.280   6.397  16.143  0.00  0.00    +0.000 A 
ATOM      8  C   UNL     1       6.272   6.911  16.971  0.00  0.00    +0.000 A 
ATOM      9  O   UNL     1       6.762   8.180  16.934  0.00  0.00    +0.000 OA
ENDROOT
BRANCH   1  14
ATOM     10  C   UNL     1      10.505  13.070  18.766  0.00  0.00    +0.000 A 
ATOM     11  N   UNL     1       9.651  12.763  17.833  0.00  0.00    +0.000 NA
ATOM     12  N   UNL     1       9.275  11.497  18.103  0.00  0.00    +0.000 N 
ATOM     13  C   UNL     1       8.421  10.655  17.472  0.00  0.00    +0.000 A 
ATOM     14  C   UNL     1       8.480   9.498  18.229  0.00  0.00    +0.000 A 
ATOM     15  N   UNL     1       9.337   9.623  19.312  0.00  0.00    +0.000 NA
ATOM     16  C   UNL     1       9.786  10.839  19.172  0.00  0.00    +0.000 A 
ATOM     17  S   UNL     1      10.889  11.851  20.001  0.00  0.00    +0.000 S 
BRANCH  10  19
ATOM     18  C   UNL     1      11.044  14.975  20.624  0.00  0.00    +0.000 C 
ATOM     19  S   UNL     1      11.297  14.610  18.873  0.00  0.00    +0.000 S 
ENDBRANCH  10  19
ENDBRANCH   1  14
BRANCH   5  20
ATOM     20  O   UNL     1       4.892   3.101  17.663  0.00  0.00    +0.000 OA
BRANCH  20  21
ATOM     21  C   UNL     1       3.473   3.057  17.483  0.00  0.00    +0.000 C 
BRANCH  21  22
ATOM     22  C   UNL     1       2.781   3.148  18.818  0.00  0.00    +0.000 A 
ATOM     23  C   UNL     1       3.354   2.573  19.959  0.00  0.00    +0.000 A 
ATOM     24  C   UNL     1       2.723   2.688  21.197  0.00  0.00    +0.000 A 
ATOM     25  C   UNL     1       1.516   3.376  21.306  0.00  0.00    +0.000 A 
ATOM     26  C   UNL     1       0.936   3.951  20.176  0.00  0.00    +0.000 A 
ATOM     27  C   UNL     1       1.565   3.838  18.938  0.00  0.00    +0.000 A 
ENDBRANCH  21  22
ENDBRANCH  20  21
ENDBRANCH   5  20
TORSDOF 5
ENDMDL
MODEL 2
REMARK VINA RESULT:      -8.2      1.395      2.066
REMARK  Name = 
REMARK  6 active torsions:
REMARK  status: ('A' for Active; 'I' for Inactive)
REMARK    1  A    between atoms: C_1  and  S_2
REMARK    2  A    between atoms: S_2  and  C_3
REMARK    3  A    between atoms: C_7  and  C_8
REMARK    4  A    between atoms: C_12  and  O_13
REMARK    5  A    between atoms: O_13  and  C_14
REMARK    6  A    between atoms: C_14  and  C_15
REMARK                            x       y       z     vdW  Elec       q    Type
REMARK                         _______ _______ _______ _____ _____    ______ ____
ROOT
ATOM      1  C   UNL     1       8.467   9.103  18.375  0.00  0.00    +0.000 A 
ATOM      2  C   UNL     1       7.498   8.802  17.442  0.00  0.00    +0.000 A 
ATOM      3  C   UNL     1       7.232   7.419  17.568  0.00  0.00    +0.000 A 
ATOM      4  C   UNL     1       6.410   6.500  16.898  0.00  0.00    +0.000 A 
ATOM      5  C   UNL     1       6.467   5.150  17.272  0.00  0.00    +0.000 A 
ATOM      6  C   UNL     1       7.242   4.743  18.363  0.00  0.00    +0.000 A 
ATOM      7  C   UNL     1       8.051   5.650  19.060  0.00  0.00    +0.000 A 
ATOM      8  C   UNL     1       8.032   6.965  18.607  0.00  0.00    +0.000 A 
ATOM      9  O   UNL     1       8.785   7.987  19.098  0.00  0.00    +0.000 OA
ENDROOT
BRANCH   1  14
ATOM     10  C   UNL     1      10.641  14.267  18.760  0.00  0.00    +0.000 A 
ATOM     11  N   UNL     1       9.793  13.787  17.896  0.00  0.00    +0.000 NA
ATOM     12  N   UNL     1       9.599  12.506  18.269  0.00  0.00    +0.000 N 
ATOM     13  C   UNL     1       8.835  11.519  17.743  0.00  0.00    +0.000 A 
ATOM     14  C   UNL     1       9.080  10.436  18.569  0.00  0.00    +0.000 A 
ATOM     15  N   UNL     1       9.961  10.747  19.593  0.00  0.00    +0.000 NA
ATOM     16  C   UNL     1      10.240  11.997  19.350  0.00  0.00    +0.000 A 
ATOM     17  S   UNL     1      11.237  13.199  20.049  0.00  0.00    +0.000 S 
BRANCH  10  19
ATOM     18  C   UNL     1       9.948  16.672  17.709  0.00  0.00    +0.000 C 
ATOM     19  S   UNL     1      11.228  15.899  18.722  0.00  0.00    +0.000 S 
ENDBRANCH  10  19
ENDBRANCH   1  14
BRANCH   5  20
ATOM     20  O   UNL     1       5.803   4.149  16.607  0.00  0.00    +0.000 OA
BRANCH  20  21
ATOM     21  C   UNL     1       4.445   4.463  16.286  0.00  0.00    +0.000 C 
BRANCH  21  22
ATOM     22  C   UNL     1       3.513   3.755  17.234  0.00  0.00    +0.000 A 
ATOM     23  C   UNL     1       3.816   2.472  17.706  0.00  0.00    +0.000 A 
ATOM     24  C   UNL     1       2.964   1.835  18.608  0.00  0.00    +0.000 A 
ATOM     25  C   UNL     1       1.805   2.472  19.044  0.00  0.00    +0.000 A 
ATOM     26  C   UNL     1       1.492   3.749  18.580  0.00  0.00    +0.000 A 
ATOM     27  C   UNL     1       2.342   4.388  17.679  0.00  0.00    +0.000 A 
ENDBRANCH  21  22
ENDBRANCH  20  21
ENDBRANCH   5  20
TORSDOF 5
ENDMDL
MODEL 3
REMARK VINA RESULT:      -8.1      0.900      1.142
REMARK  Name = 
REMARK  6 active torsions:
REMARK  status: ('A' for Active; 'I' for Inactive)
REMARK    1  A    between atoms: C_1  and  S_2
REMARK    2  A    between atoms: S_2  and  C_3
REMARK    3  A    between atoms: C_7  and  C_8
REMARK    4  A    between atoms: C_12  and  O_13
REMARK    5  A    between atoms: O_13  and  C_14
REMARK    6  A    between atoms: C_14  and  C_15
REMARK                            x       y       z     vdW  Elec       q    Type
REMARK                         _______ _______ _______ _____ _____    ______ ____
ROOT
ATOM      1  C   UNL     1       7.873   8.460  18.022  0.00  0.00    +0.000 A 
ATOM      2  C   UNL     1       8.041   7.227  18.615  0.00  0.00    +0.000 A 
ATOM      3  C   UNL     1       7.048   6.380  18.071  0.00  0.00    +0.000 A 
ATOM      4  C   UNL     1       6.652   5.050  18.282  0.00  0.00    +0.000 A 
ATOM      5  C   UNL     1       5.539   4.561  17.583  0.00  0.00    +0.000 A 
ATOM      6  C   UNL     1       4.906   5.344  16.611  0.00  0.00    +0.000 A 
ATOM      7  C   UNL     1       5.302   6.665  16.369  0.00  0.00    +0.000 A 
ATOM      8  C   UNL     1       6.355   7.143  17.141  0.00  0.00    +0.000 A 
ATOM      9  O   UNL     1       6.854   8.409  17.112  0.00  0.00    +0.000 OA
ENDROOT
BRANCH   1  14
ATOM     10  C   UNL     1      10.817  13.178  18.809  0.00  0.00    +0.000 A 
ATOM     11  N   UNL     1      10.005  12.859  17.842  0.00  0.00    +0.000 NA
ATOM     12  N   UNL     1       9.560  11.624  18.150  0.00  0.00    +0.000 N 
ATOM     13  C   UNL     1       8.708  10.787  17.511  0.00  0.00    +0.000 A 
ATOM     14  C   UNL     1       8.673   9.668  18.325  0.00  0.00    +0.000 A 
ATOM     15  N   UNL     1       9.470   9.814  19.450  0.00  0.00    +0.000 NA
ATOM     16  C   UNL     1       9.979  11.001  19.279  0.00  0.00    +0.000 A 
ATOM     17  S   UNL     1      11.075  12.009  20.122  0.00  0.00    +0.000 S 
BRANCH  10  19
ATOM     18  C   UNL     1      11.290  15.350  17.251  0.00  0.00    +0.000 C 
ATOM     19  S   UNL     1      11.667  14.688  18.889  0.00  0.00    +0.000 S 
ENDBRANCH  10  19
ENDBRANCH   1  14
BRANCH   5  20
ATOM     20  O   UNL     1       4.990   3.322  17.800  0.00  0.00    +0.000 OA
BRANCH  20  21
ATOM     21  C   UNL     1       4.766   3.017  19.180  0.00  0.00    +0.000 C 
BRANCH  21  22
ATOM     22  C   UNL     1       3.341   3.332  19.554  0.00  0.00    +0.000 A 
ATOM     23  C   UNL     1       3.030   4.506  20.253  0.00  0.00    +0.000 A 
ATOM     24  C   UNL     1       1.705   4.805  20.568  0.00  0.00    +0.000 A 
ATOM     25  C   UNL     1       0.682   3.937  20.191  0.00  0.00    +0.000 A 
ATOM     26  C   UNL     1       0.981   2.766  19.497  0.00  0.00    +0.000 A 
ATOM     27  C   UNL     1       2.304   2.464  19.179  0.00  0.00    +0.000 A 
ENDBRANCH  21  22
ENDBRANCH  20  21
ENDBRANCH   5  20
TORSDOF 5
ENDMDL
MODEL 4
REMARK VINA RESULT:      -8.1      1.031      1.453
REMARK  Name = 
REMARK  6 active torsions:
REMARK  status: ('A' for Active; 'I' for Inactive)
REMARK    1  A    between atoms: C_1  and  S_2
REMARK    2  A    between atoms: S_2  and  C_3
REMARK    3  A    between atoms: C_7  and  C_8
REMARK    4  A    between atoms: C_12  and  O_13
REMARK    5  A    between atoms: O_13  and  C_14
REMARK    6  A    between atoms: C_14  and  C_15
REMARK                            x       y       z     vdW  Elec       q    Type
REMARK                         _______ _______ _______ _____ _____    ______ ____
ROOT
ATOM      1  C   UNL     1       8.178   8.907  18.115  0.00  0.00    +0.000 A 
ATOM      2  C   UNL     1       8.407   7.757  18.841  0.00  0.00    +0.000 A 
ATOM      3  C   UNL     1       7.468   6.801  18.388  0.00  0.00    +0.000 A 
ATOM      4  C   UNL     1       7.143   5.482  18.742  0.00  0.00    +0.000 A 
ATOM      5  C   UNL     1       6.068   4.858  18.095  0.00  0.00    +0.000 A 
ATOM      6  C   UNL     1       5.403   5.492  17.040  0.00  0.00    +0.000 A 
ATOM      7  C   UNL     1       5.729   6.800  16.656  0.00  0.00    +0.000 A 
ATOM      8  C   UNL     1       6.745   7.417  17.376  0.00  0.00    +0.000 A 
ATOM      9  O   UNL     1       7.174   8.698  17.210  0.00  0.00    +0.000 OA
ENDROOT
BRANCH   1  14
ATOM     10  C   UNL     1      10.713  13.905  18.482  0.00  0.00    +0.000 A 
ATOM     11  N   UNL     1       9.645  13.564  17.821  0.00  0.00    +0.000 NA
ATOM     12  N   UNL     1       9.468  12.254  18.089  0.00  0.00    +0.000 N 
ATOM     13  C   UNL     1       8.532  11.367  17.674  0.00  0.00    +0.000 A 
ATOM     14  C   UNL     1       8.906  10.183  18.287  0.00  0.00    +0.000 A 
ATOM     15  N   UNL     1      10.036  10.336  19.077  0.00  0.00    +0.000 NA
ATOM     16  C   UNL     1      10.326  11.596  18.907  0.00  0.00    +0.000 A 
ATOM     17  S   UNL     1      11.543  12.667  19.450  0.00  0.00    +0.000 S 
BRANCH  10  19
ATOM     18  C   UNL     1      11.076  15.963  16.750  0.00  0.00    +0.000 C 
ATOM     19  S   UNL     1      11.377  15.507  18.472  0.00  0.00    +0.000 S 
ENDBRANCH  10  19
ENDBRANCH   1  14
BRANCH   5  20
ATOM     20  O   UNL     1       5.585   3.621  18.445  0.00  0.00    +0.000 OA
BRANCH  20  21
ATOM     21  C   UNL     1       4.282   3.336  17.927  0.00  0.00    +0.000 C 
BRANCH  21  22
ATOM     22  C   UNL     1       3.278   3.291  19.050  0.00  0.00    +0.000 A 
ATOM     23  C   UNL     1       1.974   3.765  18.859  0.00  0.00    +0.000 A 
ATOM     24  C   UNL     1       1.041   3.692  19.893  0.00  0.00    +0.000 A 
ATOM     25  C   UNL     1       1.402   3.147  21.123  0.00  0.00    +0.000 A 
ATOM     26  C   UNL     1       2.698   2.673  21.324  0.00  0.00    +0.000 A 
ATOM     27  C   UNL     1       3.632   2.745  20.293  0.00  0.00    +0.000 A 
ENDBRANCH  21  22
ENDBRANCH  20  21
ENDBRANCH   5  20
TORSDOF 5
ENDMDL
MODEL 5
REMARK VINA RESULT:      -8.0      1.529      2.401
REMARK  Name = 
REMARK  6 active torsions:
REMARK  status: ('A' for Active; 'I' for Inactive)
REMARK    1  A    between atoms: C_1  and  S_2
REMARK    2  A    between atoms: S_2  and  C_3
REMARK    3  A    between atoms: C_7  and  C_8
REMARK    4  A    between atoms: C_12  and  O_13
REMARK    5  A    between atoms: O_13  and  C_14
REMARK    6  A    between atoms: C_14  and  C_15
REMARK                            x       y       z     vdW  Elec       q    Type
REMARK                         _______ _______ _______ _____ _____    ______ ____
ROOT
ATOM      1  C   UNL     1       8.463   9.086  18.376  0.00  0.00    +0.000 A 
ATOM      2  C   UNL     1       7.558   8.758  17.390  0.00  0.00    +0.000 A 
ATOM      3  C   UNL     1       7.310   7.372  17.516  0.00  0.00    +0.000 A 
ATOM      4  C   UNL     1       6.545   6.431  16.808  0.00  0.00    +0.000 A 
ATOM      5  C   UNL     1       6.604   5.086  17.200  0.00  0.00    +0.000 A 
ATOM      6  C   UNL     1       7.319   4.705  18.340  0.00  0.00    +0.000 A 
ATOM      7  C   UNL     1       8.069   5.634  19.074  0.00  0.00    +0.000 A 
ATOM      8  C   UNL     1       8.053   6.943  18.606  0.00  0.00    +0.000 A 
ATOM      9  O   UNL     1       8.757   7.984  19.129  0.00  0.00    +0.000 OA
ENDROOT
BRANCH   1  14
ATOM     10  C   UNL     1      10.795  14.062  19.537  0.00  0.00    +0.000 A 
ATOM     11  N   UNL     1      10.929  12.921  20.150  0.00  0.00    +0.000 NA
ATOM     12  N   UNL     1      10.165  12.056  19.452  0.00  0.00    +0.000 N 
ATOM     13  C   UNL     1       9.908  10.737  19.625  0.00  0.00    +0.000 A 
ATOM     14  C   UNL     1       9.040  10.432  18.591  0.00  0.00    +0.000 A 
ATOM     15  N   UNL     1       8.779  11.530  17.785  0.00  0.00    +0.000 NA
ATOM     16  C   UNL     1       9.475  12.470  18.361  0.00  0.00    +0.000 A 
ATOM     17  S   UNL     1       9.749  14.138  18.102  0.00  0.00    +0.000 S 
BRANCH  10  19
ATOM     18  C   UNL     1      10.282  16.723  19.692  0.00  0.00    +0.000 C 
ATOM     19  S   UNL     1      11.583  15.522  20.046  0.00  0.00    +0.000 S 
ENDBRANCH  10  19
ENDBRANCH   1  14
BRANCH   5  20
ATOM     20  O   UNL     1       5.999   4.066  16.508  0.00  0.00    +0.000 OA
BRANCH  20  21
ATOM     21  C   UNL     1       4.649   4.342  16.123  0.00  0.00    +0.000 C 
BRANCH  21  22
ATOM     22  C   UNL     1       3.703   3.913  17.214  0.00  0.00    +0.000 A 
ATOM     23  C   UNL     1       2.768   4.813  17.741  0.00  0.00    +0.000 A 
ATOM     24  C   UNL     1       1.874   4.400  18.729  0.00  0.00    +0.000 A 
ATOM     25  C   UNL     1       1.907   3.089  19.198  0.00  0.00    +0.000 A 
ATOM     26  C   UNL     1       2.835   2.185  18.682  0.00  0.00    +0.000 A 
ATOM     27  C   UNL     1       3.728   2.595  17.694  0.00  0.00    +0.000 A 
ENDBRANCH  21  22
ENDBRANCH  20  21
ENDBRANCH   5  20
TORSDOF 5
ENDMDL
MODEL 6
REMARK VINA RESULT:      -8.0      6.156      8.201
REMARK  Name = 
REMARK  6 active torsions:
REMARK  status: ('A' for Active; 'I' for Inactive)
REMARK    1  A    between atoms: C_1  and  S_2
REMARK    2  A    between atoms: S_2  and  C_3
REMARK    3  A    between atoms: C_7  and  C_8
REMARK    4  A    between atoms: C_12  and  O_13
REMARK    5  A    between atoms: O_13  and  C_14
REMARK    6  A    between atoms: C_14  and  C_15
REMARK                            x       y       z     vdW  Elec       q    Type
REMARK                         _______ _______ _______ _____ _____    ______ ____
ROOT
ATOM      1  C   UNL     1       2.006   7.695  19.636  0.00  0.00    +0.000 A 
ATOM      2  C   UNL     1       2.638   7.735  18.411  0.00  0.00    +0.000 A 
ATOM      3  C   UNL     1       3.272   6.482  18.244  0.00  0.00    +0.000 A 
ATOM      4  C   UNL     1       4.099   5.910  17.265  0.00  0.00    +0.000 A 
ATOM      5  C   UNL     1       4.610   4.624  17.485  0.00  0.00    +0.000 A 
ATOM      6  C   UNL     1       4.216   3.879  18.602  0.00  0.00    +0.000 A 
ATOM      7  C   UNL     1       3.371   4.424  19.579  0.00  0.00    +0.000 A 
ATOM      8  C   UNL     1       2.952   5.733  19.367  0.00  0.00    +0.000 A 
ATOM      9  O   UNL     1       2.184   6.470  20.216  0.00  0.00    +0.000 OA
ENDROOT
BRANCH   1  14
ATOM     10  C   UNL     1      -0.822  11.759  22.287  0.00  0.00    +0.000 A 
ATOM     11  N   UNL     1      -0.137  10.768  22.781  0.00  0.00    +0.000 NA
ATOM     12  N   UNL     1       0.344  10.105  21.710  0.00  0.00    +0.000 N 
ATOM     13  C   UNL     1       1.112   8.994  21.607  0.00  0.00    +0.000 A 
ATOM     14  C   UNL     1       1.249   8.813  20.242  0.00  0.00    +0.000 A 
ATOM     15  N   UNL     1       0.598   9.798  19.515  0.00  0.00    +0.000 NA
ATOM     16  C   UNL     1       0.070  10.533  20.453  0.00  0.00    +0.000 A 
ATOM     17  S   UNL     1      -0.913  11.931  20.521  0.00  0.00    +0.000 S 
BRANCH  10  19
ATOM     18  C   UNL     1      -2.697  13.701  22.003  0.00  0.00    +0.000 C 
ATOM     19  S   UNL     1      -1.658  12.926  23.261  0.00  0.00    +0.000 S 
ENDBRANCH  10  19
ENDBRANCH   1  14
BRANCH   5  20
ATOM     20  O   UNL     1       5.524   4.017  16.658  0.00  0.00    +0.000 OA
BRANCH  20  21
ATOM     21  C   UNL     1       6.498   4.910  16.111  0.00  0.00    +0.000 C 
BRANCH  21  22
ATOM     22  C   UNL     1       6.656   4.661  14.634  0.00  0.00    +0.000 A 
ATOM     23  C   UNL     1       7.623   5.353  13.893  0.00  0.00    +0.000 A 
ATOM     24  C   UNL     1       7.783   5.095  12.532  0.00  0.00    +0.000 A 
ATOM     25  C   UNL     1       6.982   4.146  11.901  0.00  0.00    +0.000 A 
ATOM     26  C   UNL     1       6.016   3.452  12.628  0.00  0.00    +0.000 A 
ATOM     27  C   UNL     1       5.853   3.708  13.988  0.00  0.00    +0.000 A 
ENDBRANCH  21  22
ENDBRANCH  20  21
ENDBRANCH   5  20
TORSDOF 5
ENDMDL
MODEL 7
REMARK VINA RESULT:      -7.9      6.090      8.249
REMARK  Name = 
REMARK  6 active torsions:
REMARK  status: ('A' for Active; 'I' for Inactive)
REMARK    1  A    between atoms: C_1  and  S_2
REMARK    2  A    between atoms: S_2  and  C_3
REMARK    3  A    between atoms: C_7  and  C_8
REMARK    4  A    between atoms: C_12  and  O_13
REMARK    5  A    between atoms: O_13  and  C_14
REMARK    6  A    between atoms: C_14  and  C_15
REMARK                            x       y       z     vdW  Elec       q    Type
REMARK                         _______ _______ _______ _____ _____    ______ ____
ROOT
ATOM      1  C   UNL     1       2.215   7.583  19.538  0.00  0.00    +0.000 A 
ATOM      2  C   UNL     1       2.897   7.690  18.345  0.00  0.00    +0.000 A 
ATOM      3  C   UNL     1       3.582   6.466  18.161  0.00  0.00    +0.000 A 
ATOM      4  C   UNL     1       4.470   5.959  17.200  0.00  0.00    +0.000 A 
ATOM      5  C   UNL     1       5.017   4.684  17.397  0.00  0.00    +0.000 A 
ATOM      6  C   UNL     1       4.602   3.886  18.468  0.00  0.00    +0.000 A 
ATOM      7  C   UNL     1       3.697   4.364  19.425  0.00  0.00    +0.000 A 
ATOM      8  C   UNL     1       3.240   5.665  19.242  0.00  0.00    +0.000 A 
ATOM      9  O   UNL     1       2.411   6.343  20.081  0.00  0.00    +0.000 OA
ENDROOT
BRANCH   1  14
ATOM     10  C   UNL     1      -0.833  11.470  22.211  0.00  0.00    +0.000 A 
ATOM     11  N   UNL     1      -0.055  10.547  22.699  0.00  0.00    +0.000 NA
ATOM     12  N   UNL     1       0.440   9.900  21.624  0.00  0.00    +0.000 N 
ATOM     13  C   UNL     1       1.289   8.850  21.515  0.00  0.00    +0.000 A 
ATOM     14  C   UNL     1       1.393   8.651  20.149  0.00  0.00    +0.000 A 
ATOM     15  N   UNL     1       0.642   9.566  19.428  0.00  0.00    +0.000 NA
ATOM     16  C   UNL     1       0.090  10.278  20.370  0.00  0.00    +0.000 A 
ATOM     17  S   UNL     1      -0.998  11.595  20.446  0.00  0.00    +0.000 S 
BRANCH  10  19
ATOM     18  C   UNL     1      -3.216  12.769  22.189  0.00  0.00    +0.000 C 
ATOM     19  S   UNL     1      -1.725  12.589  23.191  0.00  0.00    +0.000 S 
ENDBRANCH  10  19
ENDBRANCH   1  14
BRANCH   5  20
ATOM     20  O   UNL     1       5.987   4.140  16.591  0.00  0.00    +0.000 OA
BRANCH  20  21
ATOM     21  C   UNL     1       6.716   5.103  15.824  0.00  0.00    +0.000 C 
BRANCH  21  22
ATOM     22  C   UNL     1       6.763   4.685  14.378  0.00  0.00    +0.000 A 
ATOM     23  C   UNL     1       5.878   3.716  13.887  0.00  0.00    +0.000 A 
ATOM     24  C   UNL     1       5.906   3.356  12.540  0.00  0.00    +0.000 A 
ATOM     25  C   UNL     1       6.816   3.958  11.674  0.00  0.00    +0.000 A 
ATOM     26  C   UNL     1       7.702   4.923  12.152  0.00  0.00    +0.000 A 
ATOM     27  C   UNL     1       7.675   5.285  13.497  0.00  0.00    +0.000 A 
ENDBRANCH  21  22
ENDBRANCH  20  21
ENDBRANCH   5  20
TORSDOF 5
ENDMDL
MODEL 8
REMARK VINA RESULT:      -7.9      1.479      2.306
REMARK  Name = 
REMARK  6 active torsions:
REMARK  status: ('A' for Active; 'I' for Inactive)
REMARK    1  A    between atoms: C_1  and  S_2
REMARK    2  A    between atoms: S_2  and  C_3
REMARK    3  A    between atoms: C_7  and  C_8
REMARK    4  A    between atoms: C_12  and  O_13
REMARK    5  A    between atoms: O_13  and  C_14
REMARK    6  A    between atoms: C_14  and  C_15
REMARK                            x       y       z     vdW  Elec       q    Type
REMARK                         _______ _______ _______ _____ _____    ______ ____
ROOT
ATOM      1  C   UNL     1       8.563   9.041  18.485  0.00  0.00    +0.000 A 
ATOM      2  C   UNL     1       7.720   8.747  17.435  0.00  0.00    +0.000 A 
ATOM      3  C   UNL     1       7.438   7.363  17.519  0.00  0.00    +0.000 A 
ATOM      4  C   UNL     1       6.706   6.449  16.746  0.00  0.00    +0.000 A 
ATOM      5  C   UNL     1       6.714   5.098  17.116  0.00  0.00    +0.000 A 
ATOM      6  C   UNL     1       7.344   4.683  18.295  0.00  0.00    +0.000 A 
ATOM      7  C   UNL     1       8.059   5.585  19.094  0.00  0.00    +0.000 A 
ATOM      8  C   UNL     1       8.099   6.902  18.649  0.00  0.00    +0.000 A 
ATOM      9  O   UNL     1       8.785   7.920  19.236  0.00  0.00    +0.000 OA
ENDROOT
BRANCH   1  14
ATOM     10  C   UNL     1      10.686  14.040  19.917  0.00  0.00    +0.000 A 
ATOM     11  N   UNL     1      10.254  13.074  20.676  0.00  0.00    +0.000 NA
ATOM     12  N   UNL     1       9.869  12.102  19.825  0.00  0.00    +0.000 N 
ATOM     13  C   UNL     1       9.333  10.876  20.038  0.00  0.00    +0.000 A 
ATOM     14  C   UNL     1       9.148  10.371  18.762  0.00  0.00    +0.000 A 
ATOM     15  N   UNL     1       9.575  11.255  17.782  0.00  0.00    +0.000 NA
ATOM     16  C   UNL     1       9.986  12.272  18.485  0.00  0.00    +0.000 A 
ATOM     17  S   UNL     1      10.646  13.816  18.155  0.00  0.00    +0.000 S 
BRANCH  10  19
ATOM     18  C   UNL     1      10.021  16.671  19.940  0.00  0.00    +0.000 C 
ATOM     19  S   UNL     1      11.300  15.541  20.531  0.00  0.00    +0.000 S 
ENDBRANCH  10  19
ENDBRANCH   1  14
BRANCH   5  20
ATOM     20  O   UNL     1       6.138   4.101  16.367  0.00  0.00    +0.000 OA
BRANCH  20  21
ATOM     21  C   UNL     1       4.782   4.362  15.993  0.00  0.00    +0.000 C 
BRANCH  21  22
ATOM     22  C   UNL     1       3.860   4.055  17.143  0.00  0.00    +0.000 A 
ATOM     23  C   UNL     1       3.808   2.767  17.691  0.00  0.00    +0.000 A 
ATOM     24  C   UNL     1       2.975   2.497  18.776  0.00  0.00    +0.000 A 
ATOM     25  C   UNL     1       2.188   3.509  19.323  0.00  0.00    +0.000 A 
ATOM     26  C   UNL     1       2.232   4.795  18.785  0.00  0.00    +0.000 A 
ATOM     27  C   UNL     1       3.064   5.067  17.701  0.00  0.00    +0.000 A 
ENDBRANCH  21  22
ENDBRANCH  20  21
ENDBRANCH   5  20
TORSDOF 5
ENDMDL
MODEL 9
REMARK VINA RESULT:      -7.8      6.182      8.215
REMARK  Name = 
REMARK  6 active torsions:
REMARK  status: ('A' for Active; 'I' for Inactive)
REMARK    1  A    between atoms: C_1  and  S_2
REMARK    2  A    between atoms: S_2  and  C_3
REMARK    3  A    between atoms: C_7  and  C_8
REMARK    4  A    between atoms: C_12  and  O_13
REMARK    5  A    between atoms: O_13  and  C_14
REMARK    6  A    between atoms: C_14  and  C_15
REMARK                            x       y       z     vdW  Elec       q    Type
REMARK                         _______ _______ _______ _____ _____    ______ ____
ROOT
ATOM      1  C   UNL     1       2.138   7.461  19.617  0.00  0.00    +0.000 A 
ATOM      2  C   UNL     1       2.729   7.532  18.374  0.00  0.00    +0.000 A 
ATOM      3  C   UNL     1       3.465   6.335  18.209  0.00  0.00    +0.000 A 
ATOM      4  C   UNL     1       4.311   5.818  17.216  0.00  0.00    +0.000 A 
ATOM      5  C   UNL     1       4.939   4.586  17.443  0.00  0.00    +0.000 A 
ATOM      6  C   UNL     1       4.643   3.832  18.584  0.00  0.00    +0.000 A 
ATOM      7  C   UNL     1       3.782   4.321  19.576  0.00  0.00    +0.000 A 
ATOM      8  C   UNL     1       3.243   5.584  19.354  0.00  0.00    +0.000 A 
ATOM      9  O   UNL     1       2.439   6.268  20.213  0.00  0.00    +0.000 OA
ENDROOT
BRANCH   1  14
ATOM     10  C   UNL     1      -0.975  11.696  21.597  0.00  0.00    +0.000 A 
ATOM     11  N   UNL     1      -0.489  11.512  20.403  0.00  0.00    +0.000 NA
ATOM     12  N   UNL     1       0.164  10.335  20.467  0.00  0.00    +0.000 N 
ATOM     13  C   UNL     1       0.869   9.642  19.540  0.00  0.00    +0.000 A 
ATOM     14  C   UNL     1       1.303   8.521  20.226  0.00  0.00    +0.000 A 
ATOM     15  N   UNL     1       0.864   8.509  21.541  0.00  0.00    +0.000 NA
ATOM     16  C   UNL     1       0.197   9.626  21.622  0.00  0.00    +0.000 A 
ATOM     17  S   UNL     1      -0.667  10.463  22.838  0.00  0.00    +0.000 S 
BRANCH  10  19
ATOM     18  C   UNL     1      -3.388  12.811  21.044  0.00  0.00    +0.000 C 
ATOM     19  S   UNL     1      -1.912  13.085  22.047  0.00  0.00    +0.000 S 
ENDBRANCH  10  19
ENDBRANCH   1  14
BRANCH   5  20
ATOM     20  O   UNL     1       5.878   4.044  16.600  0.00  0.00    +0.000 OA
BRANCH  20  21
ATOM     21  C   UNL     1       6.708   5.013  15.953  0.00  0.00    +0.000 C 
BRANCH  21  22
ATOM     22  C   UNL     1       6.788   4.721  14.477  0.00  0.00    +0.000 A 
ATOM     23  C   UNL     1       7.696   5.410  13.663  0.00  0.00    +0.000 A 
ATOM     24  C   UNL     1       7.787   5.113  12.303  0.00  0.00    +0.000 A 
ATOM     25  C   UNL     1       6.973   4.128  11.747  0.00  0.00    +0.000 A 
ATOM     26  C   UNL     1       6.065   3.437  12.548  0.00  0.00    +0.000 A 
ATOM     27  C   UNL     1       5.973   3.732  13.907  0.00  0.00    +0.000 A 
ENDBRANCH  21  22
ENDBRANCH  20  21
ENDBRANCH   5  20
TORSDOF 5
ENDMDL
