MODEL 1
REMARK VINA RESULT:      -8.2      0.000      0.000
REMARK  Name = 
REMARK  6 active torsions:
REMARK  status: ('A' for Active; 'I' for Inactive)
REMARK    1  A    between atoms: C_1  and  N_2
REMARK    2  A    between atoms: C_7  and  C_8
REMARK    3  A    between atoms: C_8  and  N_9
REMARK    4  A    between atoms: C_13  and  C_14
REMARK    5  A    between atoms: C_14  and  O_15
REMARK    6  A    between atoms: O_15  and  C_16
REMARK                            x       y       z     vdW  Elec       q    Type
REMARK                         _______ _______ _______ _____ _____    ______ ____
ROOT
ATOM      1  N   UNL     1       4.375   6.444  17.977  0.00  0.00    +0.000 NA
ATOM      2  C   UNL     1       5.124   6.903  16.802  0.00  0.00    +0.000 C 
ATOM      3  C   UNL     1       5.366   5.817  15.743  0.00  0.00    +0.000 C 
ATOM      4  O   UNL     1       5.932   4.611  16.258  0.00  0.00    +0.000 OA
ATOM      5  C   UNL     1       5.313   4.087  17.443  0.00  0.00    +0.000 C 
ATOM      6  C   UNL     1       4.968   5.195  18.473  0.00  0.00    +0.000 C 
ENDROOT
BRANCH   1   7
ATOM      7  C   UNL     1       2.922   6.442  17.790  0.00  0.00    +0.000 C 
BRANCH   7  14
ATOM      8  C   UNL     1       0.264  11.956  20.693  0.00  0.00    +0.000 C 
ATOM      9  N   UNL     1       0.646  10.582  20.918  0.00  0.00    +0.000 N 
ATOM     10  N   UNL     1       0.639  10.085  22.176  0.00  0.00    +0.000 NA
ATOM     11  C   UNL     1       1.144   8.857  22.016  0.00  0.00    +0.000 A 
ATOM     12  C   UNL     1       1.480   8.559  20.672  0.00  0.00    +0.000 A 
ATOM     13  C   UNL     1       2.055   7.468  19.976  0.00  0.00    +0.000 A 
ATOM     14  C   UNL     1       2.243   7.558  18.582  0.00  0.00    +0.000 A 
ATOM     15  C   UNL     1       1.839   8.725  17.913  0.00  0.00    +0.000 A 
ATOM     16  C   UNL     1       1.264   9.811  18.583  0.00  0.00    +0.000 A 
ATOM     17  C   UNL     1       1.115   9.701  19.969  0.00  0.00    +0.000 A 
ENDBRANCH   7  14
ENDBRANCH   1   7
BRANCH   5  18
ATOM     18  C   UNL     1       4.110   3.156  17.201  0.00  0.00    +0.000 C 
BRANCH  18  19
ATOM     19  O   UNL     1       3.960   2.170  18.238  0.00  0.00    +0.000 OA
BRANCH  19  20
ATOM     20  C   UNL     1       3.066   2.516  19.226  0.00  0.00    +0.000 A 
ATOM     21  C   UNL     1       1.790   2.890  18.801  0.00  0.00    +0.000 A 
ATOM     22  C   UNL     1       0.828   3.304  19.730  0.00  0.00    +0.000 A 
ATOM     23  C   UNL     1       1.126   3.325  21.090  0.00  0.00    +0.000 A 
ATOM     24  C   UNL     1       2.377   2.899  21.523  0.00  0.00    +0.000 A 
ATOM     25  C   UNL     1       3.338   2.487  20.595  0.00  0.00    +0.000 A 
ENDBRANCH  19  20
ENDBRANCH  18  19
ENDBRANCH   5  18
TORSDOF 5
ENDMDL
MODEL 2
REMARK VINA RESULT:      -8.1      0.625      1.418
REMARK  Name = 
REMARK  6 active torsions:
REMARK  status: ('A' for Active; 'I' for Inactive)
REMARK    1  A    between atoms: C_1  and  N_2
REMARK    2  A    between atoms: C_7  and  C_8
REMARK    3  A    between atoms: C_8  and  N_9
REMARK    4  A    between atoms: C_13  and  C_14
REMARK    5  A    between atoms: C_14  and  O_15
REMARK    6  A    between atoms: O_15  and  C_16
REMARK                            x       y       z     vdW  Elec       q    Type
REMARK                         _______ _______ _______ _____ _____    ______ ____
ROOT
ATOM      1  N   UNL     1       4.488   6.481  17.938  0.00  0.00    +0.000 NA
ATOM      2  C   UNL     1       5.266   6.905  16.769  0.00  0.00    +0.000 C 
ATOM      3  C   UNL     1       5.491   5.799  15.725  0.00  0.00    +0.000 C 
ATOM      4  O   UNL     1       6.015   4.584  16.262  0.00  0.00    +0.000 OA
ATOM      5  C   UNL     1       5.365   4.092  17.444  0.00  0.00    +0.000 C 
ATOM      6  C   UNL     1       5.038   5.221  18.457  0.00  0.00    +0.000 C 
ENDROOT
BRANCH   1   7
ATOM      7  C   UNL     1       3.038   6.518  17.731  0.00  0.00    +0.000 C 
BRANCH   7  14
ATOM      8  C   UNL     1      -0.332  10.027  22.445  0.00  0.00    +0.000 C 
ATOM      9  N   UNL     1       0.243  10.094  21.122  0.00  0.00    +0.000 N 
ATOM     10  N   UNL     1       0.001  11.173  20.343  0.00  0.00    +0.000 NA
ATOM     11  C   UNL     1       0.581  10.843  19.185  0.00  0.00    +0.000 A 
ATOM     12  C   UNL     1       1.189   9.563  19.206  0.00  0.00    +0.000 A 
ATOM     13  C   UNL     1       1.882   8.741  18.285  0.00  0.00    +0.000 A 
ATOM     14  C   UNL     1       2.347   7.476  18.699  0.00  0.00    +0.000 A 
ATOM     15  C   UNL     1       2.125   7.068  20.025  0.00  0.00    +0.000 A 
ATOM     16  C   UNL     1       1.447   7.869  20.951  0.00  0.00    +0.000 A 
ATOM     17  C   UNL     1       0.976   9.107  20.502  0.00  0.00    +0.000 A 
ENDBRANCH   7  14
ENDBRANCH   1   7
BRANCH   5  18
ATOM     18  C   UNL     1       4.139   3.193  17.196  0.00  0.00    +0.000 C 
BRANCH  18  19
ATOM     19  O   UNL     1       3.946   2.225  18.244  0.00  0.00    +0.000 OA
BRANCH  19  20
ATOM     20  C   UNL     1       3.060   2.616  19.221  0.00  0.00    +0.000 A 
ATOM     21  C   UNL     1       1.827   3.099  18.780  0.00  0.00    +0.000 A 
ATOM     22  C   UNL     1       0.879   3.565  19.699  0.00  0.00    +0.000 A 
ATOM     23  C   UNL     1       1.146   3.529  21.064  0.00  0.00    +0.000 A 
ATOM     24  C   UNL     1       2.350   2.996  21.513  0.00  0.00    +0.000 A 
ATOM     25  C   UNL     1       3.297   2.533  20.594  0.00  0.00    +0.000 A 
ENDBRANCH  19  20
ENDBRANCH  18  19
ENDBRANCH   5  18
TORSDOF 5
ENDMDL
MODEL 3
REMARK VINA RESULT:      -8.1      1.674      4.302
REMARK  Name = 
REMARK  6 active torsions:
REMARK  status: ('A' for Active; 'I' for Inactive)
REMARK    1  A    between atoms: C_1  and  N_2
REMARK    2  A    between atoms: C_7  and  C_8
REMARK    3  A    between atoms: C_8  and  N_9
REMARK    4  A    between atoms: C_13  and  C_14
REMARK    5  A    between atoms: C_14  and  O_15
REMARK    6  A    between atoms: O_15  and  C_16
REMARK                            x       y       z     vdW  Elec       q    Type
REMARK                         _______ _______ _______ _____ _____    ______ ____
ROOT
ATOM      1  N   UNL     1       1.466   4.441  19.172  0.00  0.00    +0.000 NA
ATOM      2  C   UNL     1       1.226   3.104  19.726  0.00  0.00    +0.000 C 
ATOM      3  C   UNL     1       2.279   2.058  19.332  0.00  0.00    +0.000 C 
ATOM      4  O   UNL     1       2.532   1.980  17.928  0.00  0.00    +0.000 OA
ATOM      5  C   UNL     1       2.735   3.235  17.259  0.00  0.00    +0.000 C 
ATOM      6  C   UNL     1       1.740   4.328  17.733  0.00  0.00    +0.000 C 
ENDROOT
BRANCH   1   7
ATOM      7  C   UNL     1       2.412   5.244  19.951  0.00  0.00    +0.000 C 
BRANCH   7  14
ATOM      8  C   UNL     1       0.046  11.568  20.502  0.00  0.00    +0.000 C 
ATOM      9  N   UNL     1       0.868  10.690  19.702  0.00  0.00    +0.000 N 
ATOM     10  N   UNL     1       1.322  11.111  18.500  0.00  0.00    +0.000 NA
ATOM     11  C   UNL     1       1.931  10.026  18.012  0.00  0.00    +0.000 A 
ATOM     12  C   UNL     1       1.871   8.909  18.882  0.00  0.00    +0.000 A 
ATOM     13  C   UNL     1       2.301   7.561  18.852  0.00  0.00    +0.000 A 
ATOM     14  C   UNL     1       2.035   6.724  19.956  0.00  0.00    +0.000 A 
ATOM     15  C   UNL     1       1.362   7.256  21.069  0.00  0.00    +0.000 A 
ATOM     16  C   UNL     1       0.935   8.587  21.119  0.00  0.00    +0.000 A 
ATOM     17  C   UNL     1       1.191   9.384  19.998  0.00  0.00    +0.000 A 
ENDBRANCH   7  14
ENDBRANCH   1   7
BRANCH   5  18
ATOM     18  C   UNL     1       4.183   3.758  17.265  0.00  0.00    +0.000 C 
BRANCH  18  19
ATOM     19  O   UNL     1       4.251   5.190  17.145  0.00  0.00    +0.000 OA
BRANCH  19  20
ATOM     20  C   UNL     1       5.450   5.737  17.542  0.00  0.00    +0.000 A 
ATOM     21  C   UNL     1       6.079   5.126  18.628  0.00  0.00    +0.000 A 
ATOM     22  C   UNL     1       7.279   5.641  19.133  0.00  0.00    +0.000 A 
ATOM     23  C   UNL     1       7.870   6.754  18.542  0.00  0.00    +0.000 A 
ATOM     24  C   UNL     1       7.278   7.333  17.424  0.00  0.00    +0.000 A 
ATOM     25  C   UNL     1       6.078   6.819  16.922  0.00  0.00    +0.000 A 
ENDBRANCH  19  20
ENDBRANCH  18  19
ENDBRANCH   5  18
TORSDOF 5
ENDMDL
MODEL 4
REMARK VINA RESULT:      -8.1      1.504      4.033
REMARK  Name = 
REMARK  6 active torsions:
REMARK  status: ('A' for Active; 'I' for Inactive)
REMARK    1  A    between atoms: C_1  and  N_2
REMARK    2  A    between atoms: C_7  and  C_8
REMARK    3  A    between atoms: C_8  and  N_9
REMARK    4  A    between atoms: C_13  and  C_14
REMARK    5  A    between atoms: C_14  and  O_15
REMARK    6  A    between atoms: O_15  and  C_16
REMARK                            x       y       z     vdW  Elec       q    Type
REMARK                         _______ _______ _______ _____ _____    ______ ____
ROOT
ATOM      1  N   UNL     1       1.561   4.720  19.133  0.00  0.00    +0.000 NA
ATOM      2  C   UNL     1       1.237   3.763  20.197  0.00  0.00    +0.000 C 
ATOM      3  C   UNL     1       2.179   2.551  20.265  0.00  0.00    +0.000 C 
ATOM      4  O   UNL     1       2.356   1.875  19.019  0.00  0.00    +0.000 OA
ATOM      5  C   UNL     1       2.630   2.714  17.887  0.00  0.00    +0.000 C 
ATOM      6  C   UNL     1       1.754   3.995  17.871  0.00  0.00    +0.000 C 
ENDROOT
BRANCH   1   7
ATOM      7  C   UNL     1       2.607   5.679  19.497  0.00  0.00    +0.000 C 
BRANCH   7  14
ATOM      8  C   UNL     1       0.984  12.213  18.743  0.00  0.00    +0.000 C 
ATOM      9  N   UNL     1       0.896  11.078  19.633  0.00  0.00    +0.000 N 
ATOM     10  N   UNL     1       0.442  11.253  20.894  0.00  0.00    +0.000 NA
ATOM     11  C   UNL     1       0.603  10.044  21.442  0.00  0.00    +0.000 A 
ATOM     12  C   UNL     1       1.160   9.094  20.550  0.00  0.00    +0.000 A 
ATOM     13  C   UNL     1       1.556   7.737  20.614  0.00  0.00    +0.000 A 
ATOM     14  C   UNL     1       2.097   7.118  19.468  0.00  0.00    +0.000 A 
ATOM     15  C   UNL     1       2.216   7.863  18.282  0.00  0.00    +0.000 A 
ATOM     16  C   UNL     1       1.825   9.204  18.199  0.00  0.00    +0.000 A 
ATOM     17  C   UNL     1       1.315   9.795  19.360  0.00  0.00    +0.000 A 
ENDBRANCH   7  14
ENDBRANCH   1   7
BRANCH   5  18
ATOM     18  C   UNL     1       4.116   3.050  17.661  0.00  0.00    +0.000 C 
BRANCH  18  19
ATOM     19  O   UNL     1       4.301   4.096  16.689  0.00  0.00    +0.000 OA
BRANCH  19  20
ATOM     20  C   UNL     1       5.298   4.991  17.001  0.00  0.00    +0.000 A 
ATOM     21  C   UNL     1       6.472   4.451  17.529  0.00  0.00    +0.000 A 
ATOM     22  C   UNL     1       7.523   5.288  17.921  0.00  0.00    +0.000 A 
ATOM     23  C   UNL     1       7.418   6.668  17.767  0.00  0.00    +0.000 A 
ATOM     24  C   UNL     1       6.274   7.208  17.189  0.00  0.00    +0.000 A 
ATOM     25  C   UNL     1       5.223   6.371  16.800  0.00  0.00    +0.000 A 
ENDBRANCH  19  20
ENDBRANCH  18  19
ENDBRANCH   5  18
TORSDOF 5
ENDMDL
MODEL 5
REMARK VINA RESULT:      -8.0      0.552      1.097
REMARK  Name = 
REMARK  6 active torsions:
REMARK  status: ('A' for Active; 'I' for Inactive)
REMARK    1  A    between atoms: C_1  and  N_2
REMARK    2  A    between atoms: C_7  and  C_8
REMARK    3  A    between atoms: C_8  and  N_9
REMARK    4  A    between atoms: C_13  and  C_14
REMARK    5  A    between atoms: C_14  and  O_15
REMARK    6  A    between atoms: O_15  and  C_16
REMARK                            x       y       z     vdW  Elec       q    Type
REMARK                         _______ _______ _______ _____ _____    ______ ____
ROOT
ATOM      1  N   UNL     1       4.823   6.616  18.050  0.00  0.00    +0.000 NA
ATOM      2  C   UNL     1       5.962   6.889  17.167  0.00  0.00    +0.000 C 
ATOM      3  C   UNL     1       6.351   5.713  16.257  0.00  0.00    +0.000 C 
ATOM      4  O   UNL     1       6.534   4.475  16.945  0.00  0.00    +0.000 OA
ATOM      5  C   UNL     1       5.503   4.121  17.879  0.00  0.00    +0.000 C 
ATOM      6  C   UNL     1       5.030   5.330  18.729  0.00  0.00    +0.000 C 
ENDROOT
BRANCH   1   7
ATOM      7  C   UNL     1       3.518   6.809  17.411  0.00  0.00    +0.000 C 
BRANCH   7  14
ATOM      8  C   UNL     1      -0.253  11.434  20.617  0.00  0.00    +0.000 C 
ATOM      9  N   UNL     1       0.328  10.116  20.725  0.00  0.00    +0.000 N 
ATOM     10  N   UNL     1       0.292   9.466  21.910  0.00  0.00    +0.000 NA
ATOM     11  C   UNL     1       1.004   8.361  21.668  0.00  0.00    +0.000 A 
ATOM     12  C   UNL     1       1.502   8.293  20.343  0.00  0.00    +0.000 A 
ATOM     13  C   UNL     1       2.306   7.401  19.594  0.00  0.00    +0.000 A 
ATOM     14  C   UNL     1       2.598   7.697  18.247  0.00  0.00    +0.000 A 
ATOM     15  C   UNL     1       2.068   8.866  17.674  0.00  0.00    +0.000 A 
ATOM     16  C   UNL     1       1.267   9.755  18.397  0.00  0.00    +0.000 A 
ATOM     17  C   UNL     1       1.016   9.447  19.738  0.00  0.00    +0.000 A 
ENDBRANCH   7  14
ENDBRANCH   1   7
BRANCH   5  18
ATOM     18  C   UNL     1       4.307   3.356  17.282  0.00  0.00    +0.000 C 
BRANCH  18  19
ATOM     19  O   UNL     1       3.848   2.296  18.140  0.00  0.00    +0.000 OA
BRANCH  19  20
ATOM     20  C   UNL     1       2.966   2.698  19.117  0.00  0.00    +0.000 A 
ATOM     21  C   UNL     1       3.346   2.445  20.436  0.00  0.00    +0.000 A 
ATOM     22  C   UNL     1       2.492   2.775  21.494  0.00  0.00    +0.000 A 
ATOM     23  C   UNL     1       1.264   3.382  21.245  0.00  0.00    +0.000 A 
ATOM     24  C   UNL     1       0.905   3.688  19.936  0.00  0.00    +0.000 A 
ATOM     25  C   UNL     1       1.758   3.356  18.879  0.00  0.00    +0.000 A 
ENDBRANCH  19  20
ENDBRANCH  18  19
ENDBRANCH   5  18
TORSDOF 5
ENDMDL
MODEL 6
REMARK VINA RESULT:      -8.0      1.598      4.009
REMARK  Name = 
REMARK  6 active torsions:
REMARK  status: ('A' for Active; 'I' for Inactive)
REMARK    1  A    between atoms: C_1  and  N_2
REMARK    2  A    between atoms: C_7  and  C_8
REMARK    3  A    between atoms: C_8  and  N_9
REMARK    4  A    between atoms: C_13  and  C_14
REMARK    5  A    between atoms: C_14  and  O_15
REMARK    6  A    between atoms: O_15  and  C_16
REMARK                            x       y       z     vdW  Elec       q    Type
REMARK                         _______ _______ _______ _____ _____    ______ ____
ROOT
ATOM      1  N   UNL     1       1.671   4.740  19.210  0.00  0.00    +0.000 NA
ATOM      2  C   UNL     1       1.410   3.618  20.118  0.00  0.00    +0.000 C 
ATOM      3  C   UNL     1       2.450   2.490  20.044  0.00  0.00    +0.000 C 
ATOM      4  O   UNL     1       2.707   2.015  18.721  0.00  0.00    +0.000 OA
ATOM      5  C   UNL     1       2.930   3.027  17.727  0.00  0.00    +0.000 C 
ATOM      6  C   UNL     1       1.948   4.221  17.864  0.00  0.00    +0.000 C 
ENDROOT
BRANCH   1   7
ATOM      7  C   UNL     1       2.624   5.720  19.737  0.00  0.00    +0.000 C 
BRANCH   7  14
ATOM      8  C   UNL     1       0.926  12.201  18.738  0.00  0.00    +0.000 C 
ATOM      9  N   UNL     1       0.796  11.082  19.641  0.00  0.00    +0.000 N 
ATOM     10  N   UNL     1       0.246  11.269  20.862  0.00  0.00    +0.000 NA
ATOM     11  C   UNL     1       0.392  10.074  21.443  0.00  0.00    +0.000 A 
ATOM     12  C   UNL     1       1.033   9.120  20.614  0.00  0.00    +0.000 A 
ATOM     13  C   UNL     1       1.452   7.774  20.733  0.00  0.00    +0.000 A 
ATOM     14  C   UNL     1       2.088   7.147  19.642  0.00  0.00    +0.000 A 
ATOM     15  C   UNL     1       2.278   7.873  18.454  0.00  0.00    +0.000 A 
ATOM     16  C   UNL     1       1.866   9.203  18.316  0.00  0.00    +0.000 A 
ATOM     17  C   UNL     1       1.261   9.804  19.424  0.00  0.00    +0.000 A 
ENDBRANCH   7  14
ENDBRANCH   1   7
BRANCH   5  18
ATOM     18  C   UNL     1       4.385   3.513  17.595  0.00  0.00    +0.000 C 
BRANCH  18  19
ATOM     19  O   UNL     1       4.470   4.886  17.172  0.00  0.00    +0.000 OA
BRANCH  19  20
ATOM     20  C   UNL     1       5.603   5.541  17.597  0.00  0.00    +0.000 A 
ATOM     21  C   UNL     1       5.855   6.783  17.012  0.00  0.00    +0.000 A 
ATOM     22  C   UNL     1       7.009   7.503  17.347  0.00  0.00    +0.000 A 
ATOM     23  C   UNL     1       7.904   6.998  18.286  0.00  0.00    +0.000 A 
ATOM     24  C   UNL     1       7.629   5.788  18.914  0.00  0.00    +0.000 A 
ATOM     25  C   UNL     1       6.478   5.069  18.577  0.00  0.00    +0.000 A 
ENDBRANCH  19  20
ENDBRANCH  18  19
ENDBRANCH   5  18
TORSDOF 5
ENDMDL
MODEL 7
REMARK VINA RESULT:      -8.0      0.840      1.218
REMARK  Name = 
REMARK  6 active torsions:
REMARK  status: ('A' for Active; 'I' for Inactive)
REMARK    1  A    between atoms: C_1  and  N_2
REMARK    2  A    between atoms: C_7  and  C_8
REMARK    3  A    between atoms: C_8  and  N_9
REMARK    4  A    between atoms: C_13  and  C_14
REMARK    5  A    between atoms: C_14  and  O_15
REMARK    6  A    between atoms: O_15  and  C_16
REMARK                            x       y       z     vdW  Elec       q    Type
REMARK                         _______ _______ _______ _____ _____    ______ ____
ROOT
ATOM      1  N   UNL     1       4.693   6.708  17.441  0.00  0.00    +0.000 NA
ATOM      2  C   UNL     1       5.158   6.695  16.050  0.00  0.00    +0.000 C 
ATOM      3  C   UNL     1       5.565   5.307  15.533  0.00  0.00    +0.000 C 
ATOM      4  O   UNL     1       6.486   4.614  16.377  0.00  0.00    +0.000 OA
ATOM      5  C   UNL     1       6.163   4.600  17.776  0.00  0.00    +0.000 C 
ATOM      6  C   UNL     1       5.649   5.974  18.280  0.00  0.00    +0.000 C 
ENDROOT
BRANCH   1   7
ATOM      7  C   UNL     1       3.282   6.346  17.598  0.00  0.00    +0.000 C 
BRANCH   7  14
ATOM      8  C   UNL     1       0.179  11.681  20.391  0.00  0.00    +0.000 C 
ATOM      9  N   UNL     1       0.603  10.320  20.620  0.00  0.00    +0.000 N 
ATOM     10  N   UNL     1       0.525   9.796  21.865  0.00  0.00    +0.000 NA
ATOM     11  C   UNL     1       1.093   8.595  21.722  0.00  0.00    +0.000 A 
ATOM     12  C   UNL     1       1.541   8.339  20.402  0.00  0.00    +0.000 A 
ATOM     13  C   UNL     1       2.212   7.289  19.731  0.00  0.00    +0.000 A 
ATOM     14  C   UNL     1       2.498   7.415  18.356  0.00  0.00    +0.000 A 
ATOM     15  C   UNL     1       2.094   8.578  17.680  0.00  0.00    +0.000 A 
ATOM     16  C   UNL     1       1.425   9.624  18.324  0.00  0.00    +0.000 A 
ATOM     17  C   UNL     1       1.178   9.480  19.693  0.00  0.00    +0.000 A 
ENDBRANCH   7  14
ENDBRANCH   1   7
BRANCH   5  18
ATOM     18  C   UNL     1       5.235   3.456  18.226  0.00  0.00    +0.000 C 
BRANCH  18  19
ATOM     19  O   UNL     1       4.634   3.709  19.510  0.00  0.00    +0.000 OA
BRANCH  19  20
ATOM     20  C   UNL     1       3.281   3.462  19.562  0.00  0.00    +0.000 A 
ATOM     21  C   UNL     1       2.630   3.831  20.740  0.00  0.00    +0.000 A 
ATOM     22  C   UNL     1       1.264   3.575  20.904  0.00  0.00    +0.000 A 
ATOM     23  C   UNL     1       0.534   2.972  19.883  0.00  0.00    +0.000 A 
ATOM     24  C   UNL     1       1.165   2.656  18.684  0.00  0.00    +0.000 A 
ATOM     25  C   UNL     1       2.531   2.909  18.523  0.00  0.00    +0.000 A 
ENDBRANCH  19  20
ENDBRANCH  18  19
ENDBRANCH   5  18
TORSDOF 5
ENDMDL
MODEL 8
REMARK VINA RESULT:      -8.0      1.520      4.163
REMARK  Name = 
REMARK  6 active torsions:
REMARK  status: ('A' for Active; 'I' for Inactive)
REMARK    1  A    between atoms: C_1  and  N_2
REMARK    2  A    between atoms: C_7  and  C_8
REMARK    3  A    between atoms: C_8  and  N_9
REMARK    4  A    between atoms: C_13  and  C_14
REMARK    5  A    between atoms: C_14  and  O_15
REMARK    6  A    between atoms: O_15  and  C_16
REMARK                            x       y       z     vdW  Elec       q    Type
REMARK                         _______ _______ _______ _____ _____    ______ ____
ROOT
ATOM      1  N   UNL     1       1.522   4.616  19.144  0.00  0.00    +0.000 NA
ATOM      2  C   UNL     1       1.107   3.620  20.137  0.00  0.00    +0.000 C 
ATOM      3  C   UNL     1       1.993   2.366  20.183  0.00  0.00    +0.000 C 
ATOM      4  O   UNL     1       2.201   1.748  18.912  0.00  0.00    +0.000 OA
ATOM      5  C   UNL     1       2.566   2.633  17.841  0.00  0.00    +0.000 C 
ATOM      6  C   UNL     1       1.746   3.951  17.853  0.00  0.00    +0.000 C 
ENDROOT
BRANCH   1   7
ATOM      7  C   UNL     1       2.589   5.507  19.608  0.00  0.00    +0.000 C 
BRANCH   7  14
ATOM      8  C   UNL     1      -0.194  11.572  20.775  0.00  0.00    +0.000 C 
ATOM      9  N   UNL     1       0.643  10.822  19.868  0.00  0.00    +0.000 N 
ATOM     10  N   UNL     1       0.999  11.366  18.683  0.00  0.00    +0.000 NA
ATOM     11  C   UNL     1       1.657  10.371  18.081  0.00  0.00    +0.000 A 
ATOM     12  C   UNL     1       1.726   9.190  18.861  0.00  0.00    +0.000 A 
ATOM     13  C   UNL     1       2.250   7.885  18.703  0.00  0.00    +0.000 A 
ATOM     14  C   UNL     1       2.107   6.950  19.749  0.00  0.00    +0.000 A 
ATOM     15  C   UNL     1       1.459   7.343  20.932  0.00  0.00    +0.000 A 
ATOM     16  C   UNL     1       0.940   8.630  21.108  0.00  0.00    +0.000 A 
ATOM     17  C   UNL     1       1.075   9.526  20.043  0.00  0.00    +0.000 A 
ENDBRANCH   7  14
ENDBRANCH   1   7
BRANCH   5  18
ATOM     18  C   UNL     1       4.074   2.914  17.703  0.00  0.00    +0.000 C 
BRANCH  18  19
ATOM     19  O   UNL     1       4.354   3.944  16.737  0.00  0.00    +0.000 OA
BRANCH  19  20
ATOM     20  C   UNL     1       5.356   4.812  17.108  0.00  0.00    +0.000 A 
ATOM     21  C   UNL     1       5.118   6.168  16.879  0.00  0.00    +0.000 A 
ATOM     22  C   UNL     1       6.099   7.120  17.180  0.00  0.00    +0.000 A 
ATOM     23  C   UNL     1       7.314   6.728  17.734  0.00  0.00    +0.000 A 
ATOM     24  C   UNL     1       7.535   5.384  18.018  0.00  0.00    +0.000 A 
ATOM     25  C   UNL     1       6.555   4.433  17.715  0.00  0.00    +0.000 A 
ENDBRANCH  19  20
ENDBRANCH  18  19
ENDBRANCH   5  18
TORSDOF 5
ENDMDL
MODEL 9
REMARK VINA RESULT:      -7.9      1.036      1.850
REMARK  Name = 
REMARK  6 active torsions:
REMARK  status: ('A' for Active; 'I' for Inactive)
REMARK    1  A    between atoms: C_1  and  N_2
REMARK    2  A    between atoms: C_7  and  C_8
REMARK    3  A    between atoms: C_8  and  N_9
REMARK    4  A    between atoms: C_13  and  C_14
REMARK    5  A    between atoms: C_14  and  O_15
REMARK    6  A    between atoms: O_15  and  C_16
REMARK                            x       y       z     vdW  Elec       q    Type
REMARK                         _______ _______ _______ _____ _____    ______ ____
ROOT
ATOM      1  N   UNL     1       4.720   6.646  17.469  0.00  0.00    +0.000 NA
ATOM      2  C   UNL     1       5.209   6.710  16.087  0.00  0.00    +0.000 C 
ATOM      3  C   UNL     1       5.579   5.346  15.485  0.00  0.00    +0.000 C 
ATOM      4  O   UNL     1       6.462   4.567  16.294  0.00  0.00    +0.000 OA
ATOM      5  C   UNL     1       6.114   4.471  17.683  0.00  0.00    +0.000 C 
ATOM      6  C   UNL     1       5.637   5.826  18.271  0.00  0.00    +0.000 C 
ENDROOT
BRANCH   1   7
ATOM      7  C   UNL     1       3.295   6.323  17.579  0.00  0.00    +0.000 C 
BRANCH   7  14
ATOM      8  C   UNL     1      -0.297   9.994  21.996  0.00  0.00    +0.000 C 
ATOM      9  N   UNL     1       0.310  10.002  20.685  0.00  0.00    +0.000 N 
ATOM     10  N   UNL     1       0.057  11.026  19.839  0.00  0.00    +0.000 NA
ATOM     11  C   UNL     1       0.676  10.648  18.716  0.00  0.00    +0.000 A 
ATOM     12  C   UNL     1       1.321   9.390  18.827  0.00  0.00    +0.000 A 
ATOM     13  C   UNL     1       2.061   8.538  17.973  0.00  0.00    +0.000 A 
ATOM     14  C   UNL     1       2.552   7.314  18.472  0.00  0.00    +0.000 A 
ATOM     15  C   UNL     1       2.307   6.976  19.814  0.00  0.00    +0.000 A 
ATOM     16  C   UNL     1       1.582   7.808  20.674  0.00  0.00    +0.000 A 
ATOM     17  C   UNL     1       1.087   9.004  20.142  0.00  0.00    +0.000 A 
ENDBRANCH   7  14
ENDBRANCH   1   7
BRANCH   5  18
ATOM     18  C   UNL     1       5.140   3.333  18.042  0.00  0.00    +0.000 C 
BRANCH  18  19
ATOM     19  O   UNL     1       4.754   3.357  19.428  0.00  0.00    +0.000 OA
BRANCH  19  20
ATOM     20  C   UNL     1       3.396   3.292  19.640  0.00  0.00    +0.000 A 
ATOM     21  C   UNL     1       2.959   3.558  20.939  0.00  0.00    +0.000 A 
ATOM     22  C   UNL     1       1.599   3.469  21.260  0.00  0.00    +0.000 A 
ATOM     23  C   UNL     1       0.665   3.138  20.282  0.00  0.00    +0.000 A 
ATOM     24  C   UNL     1       1.089   2.928  18.974  0.00  0.00    +0.000 A 
ATOM     25  C   UNL     1       2.447   3.015  18.654  0.00  0.00    +0.000 A 
ENDBRANCH  19  20
ENDBRANCH  18  19
ENDBRANCH   5  18
TORSDOF 5
ENDMDL
