MODEL 1
REMARK VINA RESULT:      -7.8      0.000      0.000
REMARK  Name = 
REMARK  10 active torsions:
REMARK  status: ('A' for Active; 'I' for Inactive)
REMARK    1  A    between atoms: C_2  and  C_4
REMARK    2  A    between atoms: N_7  and  C_8
REMARK    3  A    between atoms: C_10  and  C_11
REMARK    4  A    between atoms: C_11  and  O_12
REMARK    5  A    between atoms: O_12  and  P_13
REMARK    6  A    between atoms: P_13  and  O_15
REMARK    7  A    between atoms: P_13  and  O_16
REMARK    8  A    between atoms: O_16  and  P_17
REMARK    9  A    between atoms: C_21  and  O_22
REMARK   10  A    between atoms: C_23  and  O_24
REMARK                            x       y       z     vdW  Elec       q    Type
REMARK                         _______ _______ _______ _____ _____    ______ ____
ROOT
ATOM      1  C   UNL     1       6.988   4.665  16.110  0.00  0.00    +0.000 C 
ATOM      2  O   UNL     1       6.126   3.785  16.843  0.00  0.00    +0.000 OA
ATOM      3  C   UNL     1       5.588   4.504  17.993  0.00  0.00    +0.000 C 
ATOM      4  C   UNL     1       6.423   5.784  18.095  0.00  0.00    +0.000 C 
ATOM      5  C   UNL     1       6.757   6.083  16.640  0.00  0.00    +0.000 C 
ENDROOT
BRANCH   1   9
ATOM      6  C   UNL     1       5.988   3.746  12.887  0.00  0.00    +0.000 A 
ATOM      7  N   UNL     1       7.165   4.375  12.544  0.00  0.00    +0.000 NA
ATOM      8  C   UNL     1       7.524   4.980  13.660  0.00  0.00    +0.000 A 
ATOM      9  N   UNL     1       6.722   4.548  14.682  0.00  0.00    +0.000 N 
ATOM     10  N   UNL     1       5.708   3.763  14.197  0.00  0.00    +0.000 NA
BRANCH   6  12
ATOM     11  N   UNL     1       5.862   1.739  11.635  0.00  0.00    +0.000 N 
ATOM     12  C   UNL     1       5.259   2.967  11.886  0.00  0.00    +0.000 C 
ATOM     13  O   UNL     1       4.211   3.303  11.324  0.00  0.00    +0.000 OA
ATOM     14  H   UNL     1       5.641   1.369  10.714  0.00  0.00    +0.000 HD
ATOM     15  H   UNL     1       6.876   1.795  11.795  0.00  0.00    +0.000 HD
ENDBRANCH   6  12
ENDBRANCH   1   9
BRANCH   4  16
ATOM     16  O   UNL     1       7.693   5.557  18.739  0.00  0.00    +0.000 OA
ATOM     17  H   UNL     1       7.565   5.688  19.700  0.00  0.00    +0.000 HD
ENDBRANCH   4  16
BRANCH   5  18
ATOM     18  O   UNL     1       7.912   6.919  16.509  0.00  0.00    +0.000 OA
ATOM     19  H   UNL     1       7.775   7.395  15.658  0.00  0.00    +0.000 HD
ENDBRANCH   5  18
BRANCH   3  20
ATOM     20  C   UNL     1       4.097   4.803  17.784  0.00  0.00    +0.000 C 
BRANCH  20  21
ATOM     21  O   UNL     1       3.417   3.613  17.410  0.00  0.00    +0.000 OA
BRANCH  21  22
ATOM     22  P   UNL     1       2.294   3.013  18.581  0.00  0.00    +0.000 P 
ATOM     23  O   UNL     1       1.111   3.467  17.672  0.00  0.00    +0.000 OA
BRANCH  22  24
ATOM     24  O   UNL     1       2.627   1.471  18.080  0.00  0.00    +0.000 OA
ATOM     25  H   UNL     1       3.643   1.516  18.060  0.00  0.00    +0.000 HD
ENDBRANCH  22  24
BRANCH  22  26
ATOM     26  O   UNL     1       1.171   2.414  19.752  0.00  0.00    +0.000 OA
BRANCH  26  27
ATOM     27  P   UNL     1       1.881   3.086  21.082  0.00  0.00    +0.000 P 
ATOM     28  O   UNL     1       3.358   2.804  20.790  0.00  0.00    +0.000 OA
ATOM     29  O   UNL     1       1.526   4.556  20.904  0.00  0.00    +0.000 OA
ATOM     30  O   UNL     1       1.281   2.382  22.267  0.00  0.00    +0.000 OA
ENDBRANCH  26  27
ENDBRANCH  22  26
ENDBRANCH  21  22
ENDBRANCH  20  21
ENDBRANCH   3  20
TORSDOF 10
ENDMDL
MODEL 2
REMARK VINA RESULT:      -7.7      4.722      7.750
REMARK  Name = 
REMARK  10 active torsions:
REMARK  status: ('A' for Active; 'I' for Inactive)
REMARK    1  A    between atoms: C_2  and  C_4
REMARK    2  A    between atoms: N_7  and  C_8
REMARK    3  A    between atoms: C_10  and  C_11
REMARK    4  A    between atoms: C_11  and  O_12
REMARK    5  A    between atoms: O_12  and  P_13
REMARK    6  A    between atoms: P_13  and  O_15
REMARK    7  A    between atoms: P_13  and  O_16
REMARK    8  A    between atoms: O_16  and  P_17
REMARK    9  A    between atoms: C_21  and  O_22
REMARK   10  A    between atoms: C_23  and  O_24
REMARK                            x       y       z     vdW  Elec       q    Type
REMARK                         _______ _______ _______ _____ _____    ______ ____
ROOT
ATOM      1  C   UNL     1       2.102   4.539  19.414  0.00  0.00    +0.000 C 
ATOM      2  O   UNL     1       3.195   3.878  20.065  0.00  0.00    +0.000 OA
ATOM      3  C   UNL     1       3.797   2.933  19.131  0.00  0.00    +0.000 C 
ATOM      4  C   UNL     1       2.806   2.828  17.968  0.00  0.00    +0.000 C 
ATOM      5  C   UNL     1       2.198   4.223  17.919  0.00  0.00    +0.000 C 
ENDROOT
BRANCH   1   9
ATOM      6  C   UNL     1       1.634   7.813  20.551  0.00  0.00    +0.000 A 
ATOM      7  N   UNL     1       2.065   8.118  19.278  0.00  0.00    +0.000 NA
ATOM      8  C   UNL     1       2.506   6.962  18.820  0.00  0.00    +0.000 A 
ATOM      9  N   UNL     1       2.147   5.969  19.691  0.00  0.00    +0.000 N 
ATOM     10  N   UNL     1       1.598   6.502  20.828  0.00  0.00    +0.000 NA
BRANCH   6  12
ATOM     11  N   UNL     1      -0.129   9.351  20.921  0.00  0.00    +0.000 N 
ATOM     12  C   UNL     1       1.081   8.863  21.405  0.00  0.00    +0.000 C 
ATOM     13  O   UNL     1       1.575   9.282  22.457  0.00  0.00    +0.000 OA
ATOM     14  H   UNL     1      -0.327  10.299  21.232  0.00  0.00    +0.000 HD
ATOM     15  H   UNL     1      -0.169   9.265  19.897  0.00  0.00    +0.000 HD
ENDBRANCH   6  12
ENDBRANCH   1   9
BRANCH   4  16
ATOM     16  O   UNL     1       1.706   1.943  18.267  0.00  0.00    +0.000 OA
ATOM     17  H   UNL     1       1.431   2.114  19.190  0.00  0.00    +0.000 HD
ENDBRANCH   4  16
BRANCH   5  18
ATOM     18  O   UNL     1       0.924   4.237  17.266  0.00  0.00    +0.000 OA
ATOM     19  H   UNL     1       0.273   4.141  17.998  0.00  0.00    +0.000 HD
ENDBRANCH   5  18
BRANCH   3  20
ATOM     20  C   UNL     1       5.172   3.440  18.673  0.00  0.00    +0.000 C 
BRANCH  20  21
ATOM     21  O   UNL     1       5.720   4.300  19.663  0.00  0.00    +0.000 OA
BRANCH  21  22
ATOM     22  P   UNL     1       6.885   5.438  19.080  0.00  0.00    +0.000 P 
ATOM     23  O   UNL     1       7.709   5.259  20.391  0.00  0.00    +0.000 OA
BRANCH  22  24
ATOM     24  O   UNL     1       7.479   4.277  18.061  0.00  0.00    +0.000 OA
ATOM     25  H   UNL     1       6.604   3.909  17.695  0.00  0.00    +0.000 HD
ENDBRANCH  22  24
BRANCH  22  26
ATOM     26  O   UNL     1       8.049   6.577  18.497  0.00  0.00    +0.000 OA
BRANCH  26  27
ATOM     27  P   UNL     1       7.187   7.104  17.192  0.00  0.00    +0.000 P 
ATOM     28  O   UNL     1       5.759   6.787  17.646  0.00  0.00    +0.000 OA
ATOM     29  O   UNL     1       7.484   8.597  17.215  0.00  0.00    +0.000 OA
ATOM     30  O   UNL     1       7.709   6.327  16.015  0.00  0.00    +0.000 OA
ENDBRANCH  26  27
ENDBRANCH  22  26
ENDBRANCH  21  22
ENDBRANCH  20  21
ENDBRANCH   3  20
TORSDOF 10
ENDMDL
MODEL 3
REMARK VINA RESULT:      -7.4      2.774      4.817
REMARK  Name = 
REMARK  10 active torsions:
REMARK  status: ('A' for Active; 'I' for Inactive)
REMARK    1  A    between atoms: C_2  and  C_4
REMARK    2  A    between atoms: N_7  and  C_8
REMARK    3  A    between atoms: C_10  and  C_11
REMARK    4  A    between atoms: C_11  and  O_12
REMARK    5  A    between atoms: O_12  and  P_13
REMARK    6  A    between atoms: P_13  and  O_15
REMARK    7  A    between atoms: P_13  and  O_16
REMARK    8  A    between atoms: O_16  and  P_17
REMARK    9  A    between atoms: C_21  and  O_22
REMARK   10  A    between atoms: C_23  and  O_24
REMARK                            x       y       z     vdW  Elec       q    Type
REMARK                         _______ _______ _______ _____ _____    ______ ____
ROOT
ATOM      1  C   UNL     1       6.151   6.085  16.151  0.00  0.00    +0.000 C 
ATOM      2  O   UNL     1       4.817   5.784  16.582  0.00  0.00    +0.000 OA
ATOM      3  C   UNL     1       4.527   4.387  16.278  0.00  0.00    +0.000 C 
ATOM      4  C   UNL     1       5.656   3.935  15.347  0.00  0.00    +0.000 C 
ATOM      5  C   UNL     1       6.842   4.756  15.834  0.00  0.00    +0.000 C 
ENDROOT
BRANCH   1   9
ATOM      6  C   UNL     1       7.930   8.421  18.050  0.00  0.00    +0.000 A 
ATOM      7  N   UNL     1       8.341   7.289  18.716  0.00  0.00    +0.000 NA
ATOM      8  C   UNL     1       7.546   6.349  18.242  0.00  0.00    +0.000 A 
ATOM      9  N   UNL     1       6.846   6.851  17.177  0.00  0.00    +0.000 N 
ATOM     10  N   UNL     1       7.067   8.198  17.049  0.00  0.00    +0.000 NA
BRANCH   6  12
ATOM     11  N   UNL     1       9.341   9.670  19.485  0.00  0.00    +0.000 N 
ATOM     12  C   UNL     1       8.576   9.705  18.324  0.00  0.00    +0.000 C 
ATOM     13  O   UNL     1       8.506  10.720  17.623  0.00  0.00    +0.000 OA
ATOM     14  H   UNL     1       9.462  10.587  19.908  0.00  0.00    +0.000 HD
ATOM     15  H   UNL     1       8.958   8.987  20.151  0.00  0.00    +0.000 HD
ENDBRANCH   6  12
ENDBRANCH   1   9
BRANCH   4  16
ATOM     16  O   UNL     1       5.438   4.352  13.983  0.00  0.00    +0.000 OA
ATOM     17  H   UNL     1       4.940   5.193  14.007  0.00  0.00    +0.000 HD
ENDBRANCH   4  16
BRANCH   5  18
ATOM     18  O   UNL     1       7.860   4.885  14.835  0.00  0.00    +0.000 OA
ATOM     19  H   UNL     1       8.278   3.994  14.795  0.00  0.00    +0.000 HD
ENDBRANCH   5  18
BRANCH   3  20
ATOM     20  C   UNL     1       4.481   3.560  17.571  0.00  0.00    +0.000 C 
BRANCH  20  21
ATOM     21  O   UNL     1       3.373   2.672  17.532  0.00  0.00    +0.000 OA
BRANCH  21  22
ATOM     22  P   UNL     1       2.179   2.936  18.755  0.00  0.00    +0.000 P 
ATOM     23  O   UNL     1       1.226   3.552  17.685  0.00  0.00    +0.000 OA
BRANCH  22  24
ATOM     24  O   UNL     1       1.828   1.318  18.733  0.00  0.00    +0.000 OA
ATOM     25  H   UNL     1       2.724   0.956  18.418  0.00  0.00    +0.000 HD
ENDBRANCH  22  24
BRANCH  22  26
ATOM     26  O   UNL     1       0.985   3.202  19.979  0.00  0.00    +0.000 OA
BRANCH  26  27
ATOM     27  P   UNL     1       2.020   3.283  21.262  0.00  0.00    +0.000 P 
ATOM     28  O   UNL     1       3.254   2.587  20.679  0.00  0.00    +0.000 OA
ATOM     29  O   UNL     1       2.215   4.787  21.400  0.00  0.00    +0.000 OA
ATOM     30  O   UNL     1       1.322   2.582  22.395  0.00  0.00    +0.000 OA
ENDBRANCH  26  27
ENDBRANCH  22  26
ENDBRANCH  21  22
ENDBRANCH  20  21
ENDBRANCH   3  20
TORSDOF 10
ENDMDL
MODEL 4
REMARK VINA RESULT:      -7.3      0.913      1.638
REMARK  Name = 
REMARK  10 active torsions:
REMARK  status: ('A' for Active; 'I' for Inactive)
REMARK    1  A    between atoms: C_2  and  C_4
REMARK    2  A    between atoms: N_7  and  C_8
REMARK    3  A    between atoms: C_10  and  C_11
REMARK    4  A    between atoms: C_11  and  O_12
REMARK    5  A    between atoms: O_12  and  P_13
REMARK    6  A    between atoms: P_13  and  O_15
REMARK    7  A    between atoms: P_13  and  O_16
REMARK    8  A    between atoms: O_16  and  P_17
REMARK    9  A    between atoms: C_21  and  O_22
REMARK   10  A    between atoms: C_23  and  O_24
REMARK                            x       y       z     vdW  Elec       q    Type
REMARK                         _______ _______ _______ _____ _____    ______ ____
ROOT
ATOM      1  C   UNL     1       7.007   4.741  16.140  0.00  0.00    +0.000 C 
ATOM      2  O   UNL     1       6.128   3.884  16.881  0.00  0.00    +0.000 OA
ATOM      3  C   UNL     1       5.581   4.631  18.008  0.00  0.00    +0.000 C 
ATOM      4  C   UNL     1       6.425   5.907  18.093  0.00  0.00    +0.000 C 
ATOM      5  C   UNL     1       6.780   6.171  16.636  0.00  0.00    +0.000 C 
ENDROOT
BRANCH   1   9
ATOM      6  C   UNL     1       6.088   3.734  12.920  0.00  0.00    +0.000 A 
ATOM      7  N   UNL     1       7.227   4.428  12.579  0.00  0.00    +0.000 NA
ATOM      8  C   UNL     1       7.541   5.064  13.691  0.00  0.00    +0.000 A 
ATOM      9  N   UNL     1       6.759   4.594  14.712  0.00  0.00    +0.000 N 
ATOM     10  N   UNL     1       5.797   3.745  14.228  0.00  0.00    +0.000 NA
BRANCH   6  12
ATOM     11  N   UNL     1       6.128   1.745  11.634  0.00  0.00    +0.000 N 
ATOM     12  C   UNL     1       5.414   2.903  11.922  0.00  0.00    +0.000 C 
ATOM     13  O   UNL     1       4.325   3.143  11.391  0.00  0.00    +0.000 OA
ATOM     14  H   UNL     1       5.921   1.371  10.711  0.00  0.00    +0.000 HD
ATOM     15  H   UNL     1       7.136   1.898  11.770  0.00  0.00    +0.000 HD
ENDBRANCH   6  12
ENDBRANCH   1   9
BRANCH   4  16
ATOM     16  O   UNL     1       7.684   5.684  18.759  0.00  0.00    +0.000 OA
ATOM     17  H   UNL     1       7.528   5.761  19.721  0.00  0.00    +0.000 HD
ENDBRANCH   4  16
BRANCH   5  18
ATOM     18  O   UNL     1       7.944   6.995  16.503  0.00  0.00    +0.000 OA
ATOM     19  H   UNL     1       8.225   7.174  17.429  0.00  0.00    +0.000 HD
ENDBRANCH   5  18
BRANCH   3  20
ATOM     20  C   UNL     1       4.096   4.937  17.772  0.00  0.00    +0.000 C 
BRANCH  20  21
ATOM     21  O   UNL     1       3.621   5.816  18.783  0.00  0.00    +0.000 OA
BRANCH  21  22
ATOM     22  P   UNL     1       2.461   5.127  19.866  0.00  0.00    +0.000 P 
ATOM     23  O   UNL     1       1.941   6.556  20.209  0.00  0.00    +0.000 OA
BRANCH  22  24
ATOM     24  O   UNL     1       1.551   4.662  18.564  0.00  0.00    +0.000 OA
ATOM     25  H   UNL     1       1.017   5.515  18.418  0.00  0.00    +0.000 HD
ENDBRANCH  22  24
BRANCH  22  26
ATOM     26  O   UNL     1       1.303   4.439  20.951  0.00  0.00    +0.000 OA
BRANCH  26  27
ATOM     27  P   UNL     1       1.857   2.886  20.887  0.00  0.00    +0.000 P 
ATOM     28  O   UNL     1       1.478   2.389  22.285  0.00  0.00    +0.000 OA
ATOM     29  O   UNL     1       0.970   2.291  19.801  0.00  0.00    +0.000 OA
ATOM     30  O   UNL     1       3.326   2.988  20.582  0.00  0.00    +0.000 OA
ENDBRANCH  26  27
ENDBRANCH  22  26
ENDBRANCH  21  22
ENDBRANCH  20  21
ENDBRANCH   3  20
TORSDOF 10
ENDMDL
MODEL 5
REMARK VINA RESULT:      -7.2      4.757      7.907
REMARK  Name = 
REMARK  10 active torsions:
REMARK  status: ('A' for Active; 'I' for Inactive)
REMARK    1  A    between atoms: C_2  and  C_4
REMARK    2  A    between atoms: N_7  and  C_8
REMARK    3  A    between atoms: C_10  and  C_11
REMARK    4  A    between atoms: C_11  and  O_12
REMARK    5  A    between atoms: O_12  and  P_13
REMARK    6  A    between atoms: P_13  and  O_15
REMARK    7  A    between atoms: P_13  and  O_16
REMARK    8  A    between atoms: O_16  and  P_17
REMARK    9  A    between atoms: C_21  and  O_22
REMARK   10  A    between atoms: C_23  and  O_24
REMARK                            x       y       z     vdW  Elec       q    Type
REMARK                         _______ _______ _______ _____ _____    ______ ____
ROOT
ATOM      1  C   UNL     1       2.496   5.192  20.397  0.00  0.00    +0.000 C 
ATOM      2  O   UNL     1       3.858   4.825  20.142  0.00  0.00    +0.000 OA
ATOM      3  C   UNL     1       3.879   3.533  19.465  0.00  0.00    +0.000 C 
ATOM      4  C   UNL     1       2.455   2.983  19.602  0.00  0.00    +0.000 C 
ATOM      5  C   UNL     1       1.605   4.246  19.587  0.00  0.00    +0.000 C 
ENDROOT
BRANCH   1   9
ATOM      6  C   UNL     1       1.401   8.496  20.057  0.00  0.00    +0.000 A 
ATOM      7  N   UNL     1       1.907   8.336  18.786  0.00  0.00    +0.000 NA
ATOM      8  C   UNL     1       2.570   7.199  18.862  0.00  0.00    +0.000 A 
ATOM      9  N   UNL     1       2.285   6.593  20.056  0.00  0.00    +0.000 N 
ATOM     10  N   UNL     1       1.544   7.428  20.853  0.00  0.00    +0.000 NA
BRANCH   6  12
ATOM     11  N   UNL     1      -0.252   9.455  21.457  0.00  0.00    +0.000 N 
ATOM     12  C   UNL     1       0.602   9.678  20.382  0.00  0.00    +0.000 C 
ATOM     13  O   UNL     1       0.663  10.775  19.818  0.00  0.00    +0.000 OA
ATOM     14  H   UNL     1      -1.064  10.069  21.452  0.00  0.00    +0.000 HD
ATOM     15  H   UNL     1      -0.519   8.464  21.508  0.00  0.00    +0.000 HD
ENDBRANCH   6  12
ENDBRANCH   1   9
BRANCH   4  16
ATOM     16  O   UNL     1       2.225   2.383  20.894  0.00  0.00    +0.000 OA
ATOM     17  H   UNL     1       2.879   1.665  21.008  0.00  0.00    +0.000 HD
ENDBRANCH   4  16
BRANCH   5  18
ATOM     18  O   UNL     1       0.321   4.043  20.188  0.00  0.00    +0.000 OA
ATOM     19  H   UNL     1       0.319   3.093  20.446  0.00  0.00    +0.000 HD
ENDBRANCH   5  18
BRANCH   3  20
ATOM     20  C   UNL     1       4.289   3.709  17.996  0.00  0.00    +0.000 C 
BRANCH  20  21
ATOM     21  O   UNL     1       5.098   4.869  17.860  0.00  0.00    +0.000 OA
BRANCH  21  22
ATOM     22  P   UNL     1       6.454   4.696  16.800  0.00  0.00    +0.000 P 
ATOM     23  O   UNL     1       7.360   4.358  18.022  0.00  0.00    +0.000 OA
BRANCH  22  24
ATOM     24  O   UNL     1       5.859   3.230  16.313  0.00  0.00    +0.000 OA
ATOM     25  H   UNL     1       6.694   2.845  15.879  0.00  0.00    +0.000 HD
ENDBRANCH  22  24
BRANCH  22  26
ATOM     26  O   UNL     1       7.809   4.524  15.739  0.00  0.00    +0.000 OA
BRANCH  26  27
ATOM     27  P   UNL     1       7.042   4.972  14.349  0.00  0.00    +0.000 P 
ATOM     28  O   UNL     1       5.969   5.913  14.905  0.00  0.00    +0.000 OA
ATOM     29  O   UNL     1       8.148   5.723  13.620  0.00  0.00    +0.000 OA
ATOM     30  O   UNL     1       6.559   3.695  13.718  0.00  0.00    +0.000 OA
ENDBRANCH  26  27
ENDBRANCH  22  26
ENDBRANCH  21  22
ENDBRANCH  20  21
ENDBRANCH   3  20
TORSDOF 10
ENDMDL
MODEL 6
REMARK VINA RESULT:      -7.2      4.722      7.955
REMARK  Name = 
REMARK  10 active torsions:
REMARK  status: ('A' for Active; 'I' for Inactive)
REMARK    1  A    between atoms: C_2  and  C_4
REMARK    2  A    between atoms: N_7  and  C_8
REMARK    3  A    between atoms: C_10  and  C_11
REMARK    4  A    between atoms: C_11  and  O_12
REMARK    5  A    between atoms: O_12  and  P_13
REMARK    6  A    between atoms: P_13  and  O_15
REMARK    7  A    between atoms: P_13  and  O_16
REMARK    8  A    between atoms: O_16  and  P_17
REMARK    9  A    between atoms: C_21  and  O_22
REMARK   10  A    between atoms: C_23  and  O_24
REMARK                            x       y       z     vdW  Elec       q    Type
REMARK                         _______ _______ _______ _____ _____    ______ ____
ROOT
ATOM      1  C   UNL     1       2.420   5.088  20.462  0.00  0.00    +0.000 C 
ATOM      2  O   UNL     1       3.777   4.702  20.208  0.00  0.00    +0.000 OA
ATOM      3  C   UNL     1       3.779   3.440  19.478  0.00  0.00    +0.000 C 
ATOM      4  C   UNL     1       2.342   2.916  19.575  0.00  0.00    +0.000 C 
ATOM      5  C   UNL     1       1.519   4.197  19.603  0.00  0.00    +0.000 C 
ENDROOT
BRANCH   1   9
ATOM      6  C   UNL     1       1.440   8.441  20.297  0.00  0.00    +0.000 A 
ATOM      7  N   UNL     1       1.851   8.303  18.990  0.00  0.00    +0.000 NA
ATOM      8  C   UNL     1       2.471   7.139  18.986  0.00  0.00    +0.000 A 
ATOM      9  N   UNL     1       2.244   6.507  20.179  0.00  0.00    +0.000 N 
ATOM     10  N   UNL     1       1.594   7.343  21.049  0.00  0.00    +0.000 NA
BRANCH   6  12
ATOM     11  N   UNL     1      -0.307   9.970  19.827  0.00  0.00    +0.000 N 
ATOM     12  C   UNL     1       0.715   9.643  20.712  0.00  0.00    +0.000 C 
ATOM     13  O   UNL     1       0.928  10.306  21.732  0.00  0.00    +0.000 OA
ATOM     14  H   UNL     1      -0.550  10.957  19.849  0.00  0.00    +0.000 HD
ATOM     15  H   UNL     1      -0.080   9.650  18.877  0.00  0.00    +0.000 HD
ENDBRANCH   6  12
ENDBRANCH   1   9
BRANCH   4  16
ATOM     16  O   UNL     1       2.082   2.268  20.837  0.00  0.00    +0.000 OA
ATOM     17  H   UNL     1       2.945   2.031  21.231  0.00  0.00    +0.000 HD
ENDBRANCH   4  16
BRANCH   5  18
ATOM     18  O   UNL     1       0.224   3.998  20.179  0.00  0.00    +0.000 OA
ATOM     19  H   UNL     1      -0.353   4.646  19.715  0.00  0.00    +0.000 HD
ENDBRANCH   5  18
BRANCH   3  20
ATOM     20  C   UNL     1       4.211   3.668  18.023  0.00  0.00    +0.000 C 
BRANCH  20  21
ATOM     21  O   UNL     1       5.064   4.802  17.948  0.00  0.00    +0.000 OA
BRANCH  21  22
ATOM     22  P   UNL     1       6.397   4.646  16.857  0.00  0.00    +0.000 P 
ATOM     23  O   UNL     1       7.333   4.305  18.057  0.00  0.00    +0.000 OA
BRANCH  22  24
ATOM     24  O   UNL     1       5.801   3.179  16.373  0.00  0.00    +0.000 OA
ATOM     25  H   UNL     1       6.627   2.604  16.523  0.00  0.00    +0.000 HD
ENDBRANCH  22  24
BRANCH  22  26
ATOM     26  O   UNL     1       7.730   4.490  15.765  0.00  0.00    +0.000 OA
BRANCH  26  27
ATOM     27  P   UNL     1       6.949   5.015  14.409  0.00  0.00    +0.000 P 
ATOM     28  O   UNL     1       8.100   5.693  13.661  0.00  0.00    +0.000 OA
ATOM     29  O   UNL     1       6.537   3.697  13.767  0.00  0.00    +0.000 OA
ATOM     30  O   UNL     1       5.840   5.908  14.895  0.00  0.00    +0.000 OA
ENDBRANCH  26  27
ENDBRANCH  22  26
ENDBRANCH  21  22
ENDBRANCH  20  21
ENDBRANCH   3  20
TORSDOF 10
ENDMDL
MODEL 7
REMARK VINA RESULT:      -7.2      2.902      5.020
REMARK  Name = 
REMARK  10 active torsions:
REMARK  status: ('A' for Active; 'I' for Inactive)
REMARK    1  A    between atoms: C_2  and  C_4
REMARK    2  A    between atoms: N_7  and  C_8
REMARK    3  A    between atoms: C_10  and  C_11
REMARK    4  A    between atoms: C_11  and  O_12
REMARK    5  A    between atoms: O_12  and  P_13
REMARK    6  A    between atoms: P_13  and  O_15
REMARK    7  A    between atoms: P_13  and  O_16
REMARK    8  A    between atoms: O_16  and  P_17
REMARK    9  A    between atoms: C_21  and  O_22
REMARK   10  A    between atoms: C_23  and  O_24
REMARK                            x       y       z     vdW  Elec       q    Type
REMARK                         _______ _______ _______ _____ _____    ______ ____
ROOT
ATOM      1  C   UNL     1       6.897   5.960  16.413  0.00  0.00    +0.000 C 
ATOM      2  O   UNL     1       5.536   6.248  16.069  0.00  0.00    +0.000 OA
ATOM      3  C   UNL     1       4.789   4.997  16.010  0.00  0.00    +0.000 C 
ATOM      4  C   UNL     1       5.851   3.892  16.031  0.00  0.00    +0.000 C 
ATOM      5  C   UNL     1       6.954   4.504  16.884  0.00  0.00    +0.000 C 
ENDROOT
BRANCH   1   9
ATOM      6  C   UNL     1       8.199   8.642  18.240  0.00  0.00    +0.000 A 
ATOM      7  N   UNL     1       8.551   7.636  19.112  0.00  0.00    +0.000 NA
ATOM      8  C   UNL     1       7.900   6.587  18.647  0.00  0.00    +0.000 A 
ATOM      9  N   UNL     1       7.366   6.898  17.425  0.00  0.00    +0.000 N 
ATOM     10  N   UNL     1       7.532   8.231  17.153  0.00  0.00    +0.000 NA
BRANCH   6  12
ATOM     11  N   UNL     1       9.481  10.100  19.598  0.00  0.00    +0.000 N 
ATOM     12  C   UNL     1       8.719   9.995  18.439  0.00  0.00    +0.000 C 
ATOM     13  O   UNL     1       8.554  10.957  17.682  0.00  0.00    +0.000 OA
ATOM     14  H   UNL     1       9.513  11.047  19.968  0.00  0.00    +0.000 HD
ATOM     15  H   UNL     1       9.163   9.422  20.303  0.00  0.00    +0.000 HD
ENDBRANCH   6  12
ENDBRANCH   1   9
BRANCH   4  16
ATOM     16  O   UNL     1       6.445   3.683  14.733  0.00  0.00    +0.000 OA
ATOM     17  H   UNL     1       5.744   3.353  14.137  0.00  0.00    +0.000 HD
ENDBRANCH   4  16
BRANCH   5  18
ATOM     18  O   UNL     1       8.227   3.893  16.646  0.00  0.00    +0.000 OA
ATOM     19  H   UNL     1       8.124   3.445  15.775  0.00  0.00    +0.000 HD
ENDBRANCH   5  18
BRANCH   3  20
ATOM     20  C   UNL     1       3.828   4.894  17.203  0.00  0.00    +0.000 C 
BRANCH  20  21
ATOM     21  O   UNL     1       3.227   3.607  17.225  0.00  0.00    +0.000 OA
BRANCH  21  22
ATOM     22  P   UNL     1       2.147   3.326  18.547  0.00  0.00    +0.000 P 
ATOM     23  O   UNL     1       0.972   3.911  17.704  0.00  0.00    +0.000 OA
BRANCH  22  24
ATOM     24  O   UNL     1       2.150   1.712  18.179  0.00  0.00    +0.000 OA
ATOM     25  H   UNL     1       3.040   1.446  18.595  0.00  0.00    +0.000 HD
ENDBRANCH  22  24
BRANCH  22  26
ATOM     26  O   UNL     1       1.067   3.046  19.869  0.00  0.00    +0.000 OA
BRANCH  26  27
ATOM     27  P   UNL     1       2.178   3.203  21.079  0.00  0.00    +0.000 P 
ATOM     28  O   UNL     1       2.203   4.725  21.248  0.00  0.00    +0.000 OA
ATOM     29  O   UNL     1       1.471   2.504  22.232  0.00  0.00    +0.000 OA
ATOM     30  O   UNL     1       3.437   2.560  20.566  0.00  0.00    +0.000 OA
ENDBRANCH  26  27
ENDBRANCH  22  26
ENDBRANCH  21  22
ENDBRANCH  20  21
ENDBRANCH   3  20
TORSDOF 10
ENDMDL
MODEL 8
REMARK VINA RESULT:      -7.2      1.527      2.200
REMARK  Name = 
REMARK  10 active torsions:
REMARK  status: ('A' for Active; 'I' for Inactive)
REMARK    1  A    between atoms: C_2  and  C_4
REMARK    2  A    between atoms: N_7  and  C_8
REMARK    3  A    between atoms: C_10  and  C_11
REMARK    4  A    between atoms: C_11  and  O_12
REMARK    5  A    between atoms: O_12  and  P_13
REMARK    6  A    between atoms: P_13  and  O_15
REMARK    7  A    between atoms: P_13  and  O_16
REMARK    8  A    between atoms: O_16  and  P_17
REMARK    9  A    between atoms: C_21  and  O_22
REMARK   10  A    between atoms: C_23  and  O_24
REMARK                            x       y       z     vdW  Elec       q    Type
REMARK                         _______ _______ _______ _____ _____    ______ ____
ROOT
ATOM      1  C   UNL     1       6.145   4.452  17.205  0.00  0.00    +0.000 C 
ATOM      2  O   UNL     1       5.004   3.661  17.562  0.00  0.00    +0.000 OA
ATOM      3  C   UNL     1       4.111   4.467  18.387  0.00  0.00    +0.000 C 
ATOM      4  C   UNL     1       4.929   5.703  18.776  0.00  0.00    +0.000 C 
ATOM      5  C   UNL     1       5.828   5.906  17.563  0.00  0.00    +0.000 C 
ENDROOT
BRANCH   1   9
ATOM      6  C   UNL     1       7.173   4.727  13.874  0.00  0.00    +0.000 A 
ATOM      7  N   UNL     1       6.077   3.920  13.664  0.00  0.00    +0.000 NA
ATOM      8  C   UNL     1       5.736   3.545  14.881  0.00  0.00    +0.000 A 
ATOM      9  N   UNL     1       6.453   4.274  15.792  0.00  0.00    +0.000 N 
ATOM     10  N   UNL     1       7.403   5.033  15.158  0.00  0.00    +0.000 NA
BRANCH   6  12
ATOM     11  N   UNL     1       8.986   6.054  13.123  0.00  0.00    +0.000 N 
ATOM     12  C   UNL     1       7.861   5.335  12.734  0.00  0.00    +0.000 C 
ATOM     13  O   UNL     1       7.538   5.227  11.547  0.00  0.00    +0.000 OA
ATOM     14  H   UNL     1       9.238   6.784  12.461  0.00  0.00    +0.000 HD
ATOM     15  H   UNL     1       8.868   6.422  14.076  0.00  0.00    +0.000 HD
ENDBRANCH   6  12
ENDBRANCH   1   9
BRANCH   4  16
ATOM     16  O   UNL     1       5.825   5.440  19.875  0.00  0.00    +0.000 OA
ATOM     17  H   UNL     1       6.082   4.498  19.829  0.00  0.00    +0.000 HD
ENDBRANCH   4  16
BRANCH   5  18
ATOM     18  O   UNL     1       6.999   6.668  17.877  0.00  0.00    +0.000 OA
ATOM     19  H   UNL     1       7.035   7.359  17.177  0.00  0.00    +0.000 HD
ENDBRANCH   5  18
BRANCH   3  20
ATOM     20  C   UNL     1       2.848   4.838  17.598  0.00  0.00    +0.000 C 
BRANCH  20  21
ATOM     21  O   UNL     1       2.064   3.674  17.373  0.00  0.00    +0.000 OA
BRANCH  21  22
ATOM     22  P   UNL     1       1.719   2.739  18.787  0.00  0.00    +0.000 P 
ATOM     23  O   UNL     1       0.288   2.449  18.240  0.00  0.00    +0.000 OA
BRANCH  22  24
ATOM     24  O   UNL     1       2.647   1.511  18.176  0.00  0.00    +0.000 OA
ATOM     25  H   UNL     1       2.153   1.344  17.303  0.00  0.00    +0.000 HD
ENDBRANCH  22  24
BRANCH  22  26
ATOM     26  O   UNL     1       1.374   1.805  20.201  0.00  0.00    +0.000 OA
BRANCH  26  27
ATOM     27  P   UNL     1       1.976   2.873  21.306  0.00  0.00    +0.000 P 
ATOM     28  O   UNL     1       1.492   4.200  20.714  0.00  0.00    +0.000 OA
ATOM     29  O   UNL     1       1.203   2.482  22.559  0.00  0.00    +0.000 OA
ATOM     30  O   UNL     1       3.462   2.645  21.328  0.00  0.00    +0.000 OA
ENDBRANCH  26  27
ENDBRANCH  22  26
ENDBRANCH  21  22
ENDBRANCH  20  21
ENDBRANCH   3  20
TORSDOF 10
ENDMDL
MODEL 9
REMARK VINA RESULT:      -7.1      4.502      7.215
REMARK  Name = 
REMARK  10 active torsions:
REMARK  status: ('A' for Active; 'I' for Inactive)
REMARK    1  A    between atoms: C_2  and  C_4
REMARK    2  A    between atoms: N_7  and  C_8
REMARK    3  A    between atoms: C_10  and  C_11
REMARK    4  A    between atoms: C_11  and  O_12
REMARK    5  A    between atoms: O_12  and  P_13
REMARK    6  A    between atoms: P_13  and  O_15
REMARK    7  A    between atoms: P_13  and  O_16
REMARK    8  A    between atoms: O_16  and  P_17
REMARK    9  A    between atoms: C_21  and  O_22
REMARK   10  A    between atoms: C_23  and  O_24
REMARK                            x       y       z     vdW  Elec       q    Type
REMARK                         _______ _______ _______ _____ _____    ______ ____
ROOT
ATOM      1  C   UNL     1       2.287   5.447  19.158  0.00  0.00    +0.000 C 
ATOM      2  O   UNL     1       3.322   5.081  20.079  0.00  0.00    +0.000 OA
ATOM      3  C   UNL     1       3.810   3.750  19.735  0.00  0.00    +0.000 C 
ATOM      4  C   UNL     1       2.790   3.193  18.736  0.00  0.00    +0.000 C 
ATOM      5  C   UNL     1       2.322   4.443  18.003  0.00  0.00    +0.000 C 
ENDROOT
BRANCH   1   9
ATOM      6  C   UNL     1       2.065   8.857  18.415  0.00  0.00    +0.000 A 
ATOM      7  N   UNL     1       2.798   8.475  17.314  0.00  0.00    +0.000 NA
ATOM      8  C   UNL     1       3.155   7.238  17.599  0.00  0.00    +0.000 A 
ATOM      9  N   UNL     1       2.478   6.822  18.714  0.00  0.00    +0.000 N 
ATOM     10  N   UNL     1       1.780   7.864  19.268  0.00  0.00    +0.000 NA
BRANCH   6  12
ATOM     11  N   UNL     1       2.251  11.127  17.764  0.00  0.00    +0.000 N 
ATOM     12  C   UNL     1       1.498  10.204  18.482  0.00  0.00    +0.000 C 
ATOM     13  O   UNL     1       0.461  10.529  19.070  0.00  0.00    +0.000 OA
ATOM     14  H   UNL     1       2.136  12.080  18.100  0.00  0.00    +0.000 HD
ATOM     15  H   UNL     1       3.239  10.845  17.736  0.00  0.00    +0.000 HD
ENDBRANCH   6  12
ENDBRANCH   1   9
BRANCH   4  16
ATOM     16  O   UNL     1       1.615   2.671  19.390  0.00  0.00    +0.000 OA
ATOM     17  H   UNL     1       0.882   3.298  19.225  0.00  0.00    +0.000 HD
ENDBRANCH   4  16
BRANCH   5  18
ATOM     18  O   UNL     1       1.043   4.262  17.385  0.00  0.00    +0.000 OA
ATOM     19  H   UNL     1       1.087   4.808  16.567  0.00  0.00    +0.000 HD
ENDBRANCH   5  18
BRANCH   3  20
ATOM     20  C   UNL     1       5.218   3.840  19.131  0.00  0.00    +0.000 C 
BRANCH  20  21
ATOM     21  O   UNL     1       5.567   5.202  18.929  0.00  0.00    +0.000 OA
BRANCH  21  22
ATOM     22  P   UNL     1       6.577   5.503  17.556  0.00  0.00    +0.000 P 
ATOM     23  O   UNL     1       7.167   6.757  18.272  0.00  0.00    +0.000 OA
BRANCH  22  24
ATOM     24  O   UNL     1       7.559   4.259  18.033  0.00  0.00    +0.000 OA
ATOM     25  H   UNL     1       7.549   4.412  19.038  0.00  0.00    +0.000 HD
ENDBRANCH  22  24
BRANCH  22  26
ATOM     26  O   UNL     1       7.585   5.805  16.184  0.00  0.00    +0.000 OA
BRANCH  26  27
ATOM     27  P   UNL     1       6.547   5.236  15.035  0.00  0.00    +0.000 P 
ATOM     28  O   UNL     1       7.433   5.308  13.788  0.00  0.00    +0.000 OA
ATOM     29  O   UNL     1       6.327   3.805  15.507  0.00  0.00    +0.000 OA
ATOM     30  O   UNL     1       5.355   6.152  15.071  0.00  0.00    +0.000 OA
ENDBRANCH  26  27
ENDBRANCH  22  26
ENDBRANCH  21  22
ENDBRANCH  20  21
ENDBRANCH   3  20
TORSDOF 10
ENDMDL
