MODEL 1
REMARK VINA RESULT:      -7.4      0.000      0.000
REMARK  Name = 
REMARK  3 active torsions:
REMARK  status: ('A' for Active; 'I' for Inactive)
REMARK    1  A    between atoms: C_2  and  C_19
REMARK    2  A    between atoms: C_6  and  C_7
REMARK    3  A    between atoms: C_12  and  C_13
REMARK                            x       y       z     vdW  Elec       q    Type
REMARK                         _______ _______ _______ _____ _____    ______ ____
ROOT
ATOM      1  O   UNL     1       5.257   3.024  15.925  0.00  0.00    +0.000 OA
ATOM      2  C   UNL     1       5.702   4.062  15.445  0.00  0.00    +0.000 C 
ATOM      3  N   UNL     1       5.423   5.347  15.878  0.00  0.00    +0.000 N 
ATOM      4  C   UNL     1       4.605   5.566  16.953  0.00  0.00    +0.000 A 
ATOM      5  N   UNL     1       4.158   4.706  17.825  0.00  0.00    +0.000 NA
ATOM      6  C   UNL     1       3.238   5.310  18.659  0.00  0.00    +0.000 A 
ATOM      7  C   UNL     1       3.089   6.683  18.485  0.00  0.00    +0.000 A 
ATOM      8  S   UNL     1       4.107   7.183  17.176  0.00  0.00    +0.000 S 
ATOM      9  H   UNL     1       5.707   6.148  15.339  0.00  0.00    +0.000 HD
ENDROOT
BRANCH   6  10
ATOM     10  C   UNL     1       2.492   4.465  19.658  0.00  0.00    +0.000 A 
ATOM     11  C   UNL     1       2.813   4.331  20.993  0.00  0.00    +0.000 A 
ATOM     12  C   UNL     1       1.985   3.379  21.656  0.00  0.00    +0.000 A 
ATOM     13  C   UNL     1       1.027   2.862  20.815  0.00  0.00    +0.000 A 
ATOM     14  S   UNL     1       1.096   3.564  19.255  0.00  0.00    +0.000 S 
ENDBRANCH   6  10
BRANCH   7  15
ATOM     15  C   UNL     1       2.295   7.615  19.253  0.00  0.00    +0.000 A 
ATOM     16  C   UNL     1       1.891   7.472  20.572  0.00  0.00    +0.000 A 
ATOM     17  C   UNL     1       0.919   8.437  20.961  0.00  0.00    +0.000 A 
ATOM     18  C   UNL     1       0.699   9.365  19.968  0.00  0.00    +0.000 A 
ATOM     19  S   UNL     1       1.641   9.050  18.574  0.00  0.00    +0.000 S 
ENDBRANCH   7  15
BRANCH   2  20
ATOM     20  C   UNL     1       6.703   4.024  14.293  0.00  0.00    +0.000 C 
ATOM     21  C   UNL     1       6.040   3.673  12.959  0.00  0.00    +0.000 C 
ATOM     22  C   UNL     1       7.069   4.079  11.917  0.00  0.00    +0.000 C 
ATOM     23  C   UNL     1       7.828   5.254  12.529  0.00  0.00    +0.000 C 
ATOM     24  C   UNL     1       7.357   5.368  13.979  0.00  0.00    +0.000 C 
ENDBRANCH   2  20
TORSDOF 3
ENDMDL
MODEL 2
REMARK VINA RESULT:      -7.4      2.728      7.541
REMARK  Name = 
REMARK  3 active torsions:
REMARK  status: ('A' for Active; 'I' for Inactive)
REMARK    1  A    between atoms: C_2  and  C_19
REMARK    2  A    between atoms: C_6  and  C_7
REMARK    3  A    between atoms: C_12  and  C_13
REMARK                            x       y       z     vdW  Elec       q    Type
REMARK                         _______ _______ _______ _____ _____    ______ ____
ROOT
ATOM      1  O   UNL     1       2.392   9.672  17.268  0.00  0.00    +0.000 OA
ATOM      2  C   UNL     1       1.693   9.519  18.265  0.00  0.00    +0.000 C 
ATOM      3  N   UNL     1       1.637   8.385  19.055  0.00  0.00    +0.000 N 
ATOM      4  C   UNL     1       2.421   7.297  18.785  0.00  0.00    +0.000 A 
ATOM      5  N   UNL     1       3.428   7.204  17.962  0.00  0.00    +0.000 NA
ATOM      6  C   UNL     1       3.849   5.892  17.872  0.00  0.00    +0.000 A 
ATOM      7  C   UNL     1       3.222   5.005  18.743  0.00  0.00    +0.000 A 
ATOM      8  S   UNL     1       2.025   5.876  19.643  0.00  0.00    +0.000 S 
ATOM      9  H   UNL     1       0.929   8.283  19.764  0.00  0.00    +0.000 HD
ENDROOT
BRANCH   6  10
ATOM     10  C   UNL     1       4.916   5.533  16.872  0.00  0.00    +0.000 A 
ATOM     11  C   UNL     1       4.747   4.706  15.781  0.00  0.00    +0.000 A 
ATOM     12  C   UNL     1       5.967   4.473  15.083  0.00  0.00    +0.000 A 
ATOM     13  C   UNL     1       7.013   5.175  15.635  0.00  0.00    +0.000 A 
ATOM     14  S   UNL     1       6.509   6.148  16.950  0.00  0.00    +0.000 S 
ENDBRANCH   6  10
BRANCH   7  15
ATOM     15  C   UNL     1       3.498   3.604  18.969  0.00  0.00    +0.000 A 
ATOM     16  C   UNL     1       4.408   3.073  19.869  0.00  0.00    +0.000 A 
ATOM     17  C   UNL     1       4.624   1.678  19.679  0.00  0.00    +0.000 A 
ATOM     18  C   UNL     1       3.784   1.160  18.720  0.00  0.00    +0.000 A 
ATOM     19  S   UNL     1       2.766   2.358  18.043  0.00  0.00    +0.000 S 
ENDBRANCH   7  15
BRANCH   2  20
ATOM     20  C   UNL     1       0.810  10.652  18.781  0.00  0.00    +0.000 C 
ATOM     21  C   UNL     1      -0.662  10.455  18.415  0.00  0.00    +0.000 C 
ATOM     22  C   UNL     1      -1.402  11.415  19.332  0.00  0.00    +0.000 C 
ATOM     23  C   UNL     1      -0.553  11.509  20.597  0.00  0.00    +0.000 C 
ATOM     24  C   UNL     1       0.748  10.762  20.303  0.00  0.00    +0.000 C 
ENDBRANCH   2  20
TORSDOF 3
ENDMDL
MODEL 3
REMARK VINA RESULT:      -7.2      2.716      7.444
REMARK  Name = 
REMARK  3 active torsions:
REMARK  status: ('A' for Active; 'I' for Inactive)
REMARK    1  A    between atoms: C_2  and  C_19
REMARK    2  A    between atoms: C_6  and  C_7
REMARK    3  A    between atoms: C_12  and  C_13
REMARK                            x       y       z     vdW  Elec       q    Type
REMARK                         _______ _______ _______ _____ _____    ______ ____
ROOT
ATOM      1  O   UNL     1       0.855   7.057  21.109  0.00  0.00    +0.000 OA
ATOM      2  C   UNL     1       0.964   8.104  20.479  0.00  0.00    +0.000 C 
ATOM      3  N   UNL     1       1.740   8.299  19.349  0.00  0.00    +0.000 N 
ATOM      4  C   UNL     1       2.462   7.273  18.803  0.00  0.00    +0.000 A 
ATOM      5  N   UNL     1       2.394   5.999  19.070  0.00  0.00    +0.000 NA
ATOM      6  C   UNL     1       3.401   5.321  18.410  0.00  0.00    +0.000 A 
ATOM      7  C   UNL     1       4.159   6.091  17.532  0.00  0.00    +0.000 A 
ATOM      8  S   UNL     1       3.600   7.728  17.616  0.00  0.00    +0.000 S 
ATOM      9  H   UNL     1       1.894   9.223  18.981  0.00  0.00    +0.000 HD
ENDROOT
BRANCH   6  10
ATOM     10  C   UNL     1       3.595   3.853  18.682  0.00  0.00    +0.000 A 
ATOM     11  C   UNL     1       4.412   3.319  19.657  0.00  0.00    +0.000 A 
ATOM     12  C   UNL     1       4.468   1.897  19.597  0.00  0.00    +0.000 A 
ATOM     13  C   UNL     1       3.647   1.394  18.615  0.00  0.00    +0.000 A 
ATOM     14  S   UNL     1       2.779   2.630  17.810  0.00  0.00    +0.000 S 
ENDBRANCH   6  10
BRANCH   7  15
ATOM     15  C   UNL     1       5.205   5.672  16.626  0.00  0.00    +0.000 A 
ATOM     16  C   UNL     1       5.047   5.243  15.318  0.00  0.00    +0.000 A 
ATOM     17  C   UNL     1       6.232   4.668  14.777  0.00  0.00    +0.000 A 
ATOM     18  C   UNL     1       7.294   4.785  15.644  0.00  0.00    +0.000 A 
ATOM     19  S   UNL     1       6.849   5.558  17.104  0.00  0.00    +0.000 S 
ENDBRANCH   7  15
BRANCH   2  20
ATOM     20  C   UNL     1       0.167   9.343  20.879  0.00  0.00    +0.000 C 
ATOM     21  C   UNL     1      -0.077   9.415  22.387  0.00  0.00    +0.000 C 
ATOM     22  C   UNL     1      -0.495  10.857  22.625  0.00  0.00    +0.000 C 
ATOM     23  C   UNL     1       0.226  11.673  21.555  0.00  0.00    +0.000 C 
ATOM     24  C   UNL     1       0.879  10.666  20.608  0.00  0.00    +0.000 C 
ENDBRANCH   2  20
TORSDOF 3
ENDMDL
MODEL 4
REMARK VINA RESULT:      -7.2      2.714      7.509
REMARK  Name = 
REMARK  3 active torsions:
REMARK  status: ('A' for Active; 'I' for Inactive)
REMARK    1  A    between atoms: C_2  and  C_19
REMARK    2  A    between atoms: C_6  and  C_7
REMARK    3  A    between atoms: C_12  and  C_13
REMARK                            x       y       z     vdW  Elec       q    Type
REMARK                         _______ _______ _______ _____ _____    ______ ____
ROOT
ATOM      1  O   UNL     1       1.132   7.303  21.030  0.00  0.00    +0.000 OA
ATOM      2  C   UNL     1       1.383   8.366  20.470  0.00  0.00    +0.000 C 
ATOM      3  N   UNL     1       2.156   8.526  19.333  0.00  0.00    +0.000 N 
ATOM      4  C   UNL     1       2.706   7.446  18.696  0.00  0.00    +0.000 A 
ATOM      5  N   UNL     1       2.454   6.180  18.877  0.00  0.00    +0.000 NA
ATOM      6  C   UNL     1       3.334   5.411  18.140  0.00  0.00    +0.000 A 
ATOM      7  C   UNL     1       4.180   6.122  17.294  0.00  0.00    +0.000 A 
ATOM      8  S   UNL     1       3.874   7.814  17.507  0.00  0.00    +0.000 S 
ATOM      9  H   UNL     1       2.439   9.441  19.024  0.00  0.00    +0.000 HD
ENDROOT
BRANCH   6  10
ATOM     10  C   UNL     1       3.312   3.915  18.305  0.00  0.00    +0.000 A 
ATOM     11  C   UNL     1       2.478   3.046  17.632  0.00  0.00    +0.000 A 
ATOM     12  C   UNL     1       2.620   1.701  18.082  0.00  0.00    +0.000 A 
ATOM     13  C   UNL     1       3.597   1.585  19.043  0.00  0.00    +0.000 A 
ATOM     14  S   UNL     1       4.370   3.079  19.356  0.00  0.00    +0.000 S 
ENDBRANCH   6  10
BRANCH   7  15
ATOM     15  C   UNL     1       5.132   5.620  16.329  0.00  0.00    +0.000 A 
ATOM     16  C   UNL     1       4.845   4.950  15.151  0.00  0.00    +0.000 A 
ATOM     17  C   UNL     1       5.998   4.371  14.548  0.00  0.00    +0.000 A 
ATOM     18  C   UNL     1       7.149   4.719  15.216  0.00  0.00    +0.000 A 
ATOM     19  S   UNL     1       6.829   5.712  16.572  0.00  0.00    +0.000 S 
ENDBRANCH   7  15
BRANCH   2  20
ATOM     20  C   UNL     1       0.790   9.676  20.979  0.00  0.00    +0.000 C 
ATOM     21  C   UNL     1      -0.417  10.127  20.153  0.00  0.00    +0.000 C 
ATOM     22  C   UNL     1      -1.093  11.171  21.027  0.00  0.00    +0.000 C 
ATOM     23  C   UNL     1      -0.797  10.754  22.465  0.00  0.00    +0.000 C 
ATOM     24  C   UNL     1       0.203   9.600  22.386  0.00  0.00    +0.000 C 
ENDBRANCH   2  20
TORSDOF 3
ENDMDL
MODEL 5
REMARK VINA RESULT:      -7.1      3.210      8.191
REMARK  Name = 
REMARK  3 active torsions:
REMARK  status: ('A' for Active; 'I' for Inactive)
REMARK    1  A    between atoms: C_2  and  C_19
REMARK    2  A    between atoms: C_6  and  C_7
REMARK    3  A    between atoms: C_12  and  C_13
REMARK                            x       y       z     vdW  Elec       q    Type
REMARK                         _______ _______ _______ _____ _____    ______ ____
ROOT
ATOM      1  O   UNL     1       1.548   9.471  19.531  0.00  0.00    +0.000 OA
ATOM      2  C   UNL     1       0.823   8.952  20.373  0.00  0.00    +0.000 C 
ATOM      3  N   UNL     1       0.860   7.629  20.779  0.00  0.00    +0.000 N 
ATOM      4  C   UNL     1       1.781   6.759  20.262  0.00  0.00    +0.000 A 
ATOM      5  N   UNL     1       2.832   7.022  19.538  0.00  0.00    +0.000 NA
ATOM      6  C   UNL     1       3.409   5.849  19.094  0.00  0.00    +0.000 A 
ATOM      7  C   UNL     1       2.848   4.681  19.603  0.00  0.00    +0.000 A 
ATOM      8  S   UNL     1       1.512   5.112  20.617  0.00  0.00    +0.000 S 
ATOM      9  H   UNL     1       0.134   7.247  21.362  0.00  0.00    +0.000 HD
ENDROOT
BRANCH   6  10
ATOM     10  C   UNL     1       4.561   5.920  18.127  0.00  0.00    +0.000 A 
ATOM     11  C   UNL     1       4.481   6.334  16.813  0.00  0.00    +0.000 A 
ATOM     12  C   UNL     1       5.719   6.189  16.123  0.00  0.00    +0.000 A 
ATOM     13  C   UNL     1       6.713   5.722  16.950  0.00  0.00    +0.000 A 
ATOM     14  S   UNL     1       6.164   5.513  18.558  0.00  0.00    +0.000 S 
ENDBRANCH   6  10
BRANCH   7  15
ATOM     15  C   UNL     1       3.276   3.312  19.420  0.00  0.00    +0.000 A 
ATOM     16  C   UNL     1       4.184   2.615  20.202  0.00  0.00    +0.000 A 
ATOM     17  C   UNL     1       4.578   1.377  19.621  0.00  0.00    +0.000 A 
ATOM     18  C   UNL     1       3.870   1.105  18.473  0.00  0.00    +0.000 A 
ATOM     19  S   UNL     1       2.760   2.352  18.094  0.00  0.00    +0.000 S 
ENDBRANCH   7  15
BRANCH   2  20
ATOM     20  C   UNL     1      -0.213   9.780  21.129  0.00  0.00    +0.000 C 
ATOM     21  C   UNL     1      -0.298   9.397  22.608  0.00  0.00    +0.000 C 
ATOM     22  C   UNL     1      -1.040  10.558  23.248  0.00  0.00    +0.000 C 
ATOM     23  C   UNL     1      -0.676  11.785  22.416  0.00  0.00    +0.000 C 
ATOM     24  C   UNL     1       0.103  11.272  21.204  0.00  0.00    +0.000 C 
ENDBRANCH   2  20
TORSDOF 3
ENDMDL
MODEL 6
REMARK VINA RESULT:      -7.1      2.870      7.189
REMARK  Name = 
REMARK  3 active torsions:
REMARK  status: ('A' for Active; 'I' for Inactive)
REMARK    1  A    between atoms: C_2  and  C_19
REMARK    2  A    between atoms: C_6  and  C_7
REMARK    3  A    between atoms: C_12  and  C_13
REMARK                            x       y       z     vdW  Elec       q    Type
REMARK                         _______ _______ _______ _____ _____    ______ ____
ROOT
ATOM      1  O   UNL     1       0.750   8.537  20.863  0.00  0.00    +0.000 OA
ATOM      2  C   UNL     1       0.899   9.311  19.923  0.00  0.00    +0.000 C 
ATOM      3  N   UNL     1       1.673   9.088  18.798  0.00  0.00    +0.000 N 
ATOM      4  C   UNL     1       2.347   7.909  18.628  0.00  0.00    +0.000 A 
ATOM      5  N   UNL     1       2.226   6.799  19.300  0.00  0.00    +0.000 NA
ATOM      6  C   UNL     1       3.198   5.898  18.908  0.00  0.00    +0.000 A 
ATOM      7  C   UNL     1       3.982   6.301  17.831  0.00  0.00    +0.000 A 
ATOM      8  S   UNL     1       3.494   7.896  17.364  0.00  0.00    +0.000 S 
ATOM      9  H   UNL     1       1.864   9.831  18.146  0.00  0.00    +0.000 HD
ENDROOT
BRANCH   6  10
ATOM     10  C   UNL     1       3.330   4.596  19.653  0.00  0.00    +0.000 A 
ATOM     11  C   UNL     1       4.326   3.661  19.461  0.00  0.00    +0.000 A 
ATOM     12  C   UNL     1       4.121   2.484  20.238  0.00  0.00    +0.000 A 
ATOM     13  C   UNL     1       3.005   2.587  21.036  0.00  0.00    +0.000 A 
ATOM     14  S   UNL     1       2.248   4.115  20.884  0.00  0.00    +0.000 S 
ENDBRANCH   6  10
BRANCH   7  15
ATOM     15  C   UNL     1       5.001   5.561  17.122  0.00  0.00    +0.000 A 
ATOM     16  C   UNL     1       4.800   4.567  16.177  0.00  0.00    +0.000 A 
ATOM     17  C   UNL     1       5.994   3.866  15.848  0.00  0.00    +0.000 A 
ATOM     18  C   UNL     1       7.095   4.422  16.460  0.00  0.00    +0.000 A 
ATOM     19  S   UNL     1       6.676   5.762  17.439  0.00  0.00    +0.000 S 
ENDBRANCH   7  15
BRANCH   2  20
ATOM     20  C   UNL     1       0.159  10.646  19.885  0.00  0.00    +0.000 C 
ATOM     21  C   UNL     1       0.964  11.735  19.173  0.00  0.00    +0.000 C 
ATOM     22  C   UNL     1      -0.062  12.818  18.879  0.00  0.00    +0.000 C 
ATOM     23  C   UNL     1      -1.388  12.086  18.693  0.00  0.00    +0.000 C 
ATOM     24  C   UNL     1      -1.137  10.628  19.078  0.00  0.00    +0.000 C 
ENDBRANCH   2  20
TORSDOF 3
ENDMDL
MODEL 7
REMARK VINA RESULT:      -7.0      2.882      7.555
REMARK  Name = 
REMARK  3 active torsions:
REMARK  status: ('A' for Active; 'I' for Inactive)
REMARK    1  A    between atoms: C_2  and  C_19
REMARK    2  A    between atoms: C_6  and  C_7
REMARK    3  A    between atoms: C_12  and  C_13
REMARK                            x       y       z     vdW  Elec       q    Type
REMARK                         _______ _______ _______ _____ _____    ______ ____
ROOT
ATOM      1  O   UNL     1       0.845   8.134  21.520  0.00  0.00    +0.000 OA
ATOM      2  C   UNL     1       0.882   8.985  20.638  0.00  0.00    +0.000 C 
ATOM      3  N   UNL     1       1.551   8.881  19.431  0.00  0.00    +0.000 N 
ATOM      4  C   UNL     1       2.238   7.745  19.101  0.00  0.00    +0.000 A 
ATOM      5  N   UNL     1       2.214   6.581  19.687  0.00  0.00    +0.000 NA
ATOM      6  C   UNL     1       3.169   5.750  19.133  0.00  0.00    +0.000 A 
ATOM      7  C   UNL     1       3.834   6.266  18.024  0.00  0.00    +0.000 A 
ATOM      8  S   UNL     1       3.259   7.875  17.740  0.00  0.00    +0.000 S 
ATOM      9  H   UNL     1       1.658   9.681  18.828  0.00  0.00    +0.000 HD
ENDROOT
BRANCH   6  10
ATOM     10  C   UNL     1       3.409   4.398  19.751  0.00  0.00    +0.000 A 
ATOM     11  C   UNL     1       4.474   3.567  19.472  0.00  0.00    +0.000 A 
ATOM     12  C   UNL     1       4.367   2.310  20.134  0.00  0.00    +0.000 A 
ATOM     13  C   UNL     1       3.253   2.248  20.937  0.00  0.00    +0.000 A 
ATOM     14  S   UNL     1       2.376   3.718  20.931  0.00  0.00    +0.000 S 
ENDBRANCH   6  10
BRANCH   7  15
ATOM     15  C   UNL     1       4.802   5.623  17.165  0.00  0.00    +0.000 A 
ATOM     16  C   UNL     1       4.545   4.661  16.200  0.00  0.00    +0.000 A 
ATOM     17  C   UNL     1       5.730   4.050  15.699  0.00  0.00    +0.000 A 
ATOM     18  C   UNL     1       6.862   4.646  16.205  0.00  0.00    +0.000 A 
ATOM     19  S   UNL     1       6.489   5.913  17.294  0.00  0.00    +0.000 S 
ENDBRANCH   7  15
BRANCH   2  20
ATOM     20  C   UNL     1       0.105  10.292  20.780  0.00  0.00    +0.000 C 
ATOM     21  C   UNL     1      -0.339  10.550  22.221  0.00  0.00    +0.000 C 
ATOM     22  C   UNL     1      -0.709  12.024  22.235  0.00  0.00    +0.000 C 
ATOM     23  C   UNL     1       0.193  12.681  21.194  0.00  0.00    +0.000 C 
ATOM     24  C   UNL     1       0.916  11.547  20.467  0.00  0.00    +0.000 C 
ENDBRANCH   2  20
TORSDOF 3
ENDMDL
MODEL 8
REMARK VINA RESULT:      -7.0      2.940      7.560
REMARK  Name = 
REMARK  3 active torsions:
REMARK  status: ('A' for Active; 'I' for Inactive)
REMARK    1  A    between atoms: C_2  and  C_19
REMARK    2  A    between atoms: C_6  and  C_7
REMARK    3  A    between atoms: C_12  and  C_13
REMARK                            x       y       z     vdW  Elec       q    Type
REMARK                         _______ _______ _______ _____ _____    ______ ____
ROOT
ATOM      1  O   UNL     1       2.478   9.682  17.359  0.00  0.00    +0.000 OA
ATOM      2  C   UNL     1       1.783   9.449  18.343  0.00  0.00    +0.000 C 
ATOM      3  N   UNL     1       1.752   8.264  19.057  0.00  0.00    +0.000 N 
ATOM      4  C   UNL     1       2.561   7.214  18.717  0.00  0.00    +0.000 A 
ATOM      5  N   UNL     1       3.569   7.198  17.891  0.00  0.00    +0.000 NA
ATOM      6  C   UNL     1       4.018   5.904  17.715  0.00  0.00    +0.000 A 
ATOM      7  C   UNL     1       3.411   4.948  18.525  0.00  0.00    +0.000 A 
ATOM      8  S   UNL     1       2.196   5.731  19.479  0.00  0.00    +0.000 S 
ATOM      9  H   UNL     1       1.047   8.100  19.757  0.00  0.00    +0.000 HD
ENDROOT
BRANCH   6  10
ATOM     10  C   UNL     1       5.092   5.635  16.694  0.00  0.00    +0.000 A 
ATOM     11  C   UNL     1       4.892   5.088  15.444  0.00  0.00    +0.000 A 
ATOM     12  C   UNL     1       6.115   4.857  14.751  0.00  0.00    +0.000 A 
ATOM     13  C   UNL     1       7.202   5.288  15.476  0.00  0.00    +0.000 A 
ATOM     14  S   UNL     1       6.739   6.013  16.956  0.00  0.00    +0.000 S 
ENDBRANCH   6  10
BRANCH   7  15
ATOM     15  C   UNL     1       3.719   3.542  18.659  0.00  0.00    +0.000 A 
ATOM     16  C   UNL     1       3.384   2.532  17.772  0.00  0.00    +0.000 A 
ATOM     17  C   UNL     1       3.610   1.230  18.304  0.00  0.00    +0.000 A 
ATOM     18  C   UNL     1       4.225   1.285  19.534  0.00  0.00    +0.000 A 
ATOM     19  S   UNL     1       4.498   2.895  20.045  0.00  0.00    +0.000 S 
ENDBRANCH   7  15
BRANCH   2  20
ATOM     20  C   UNL     1       0.875  10.526  18.932  0.00  0.00    +0.000 C 
ATOM     21  C   UNL     1       1.375  11.939  18.624  0.00  0.00    +0.000 C 
ATOM     22  C   UNL     1       0.175  12.826  18.914  0.00  0.00    +0.000 C 
ATOM     23  C   UNL     1      -1.050  11.968  18.611  0.00  0.00    +0.000 C 
ATOM     24  C   UNL     1      -0.535  10.553  18.347  0.00  0.00    +0.000 C 
ENDBRANCH   2  20
TORSDOF 3
ENDMDL
MODEL 9
REMARK VINA RESULT:      -6.9      2.857      7.337
REMARK  Name = 
REMARK  3 active torsions:
REMARK  status: ('A' for Active; 'I' for Inactive)
REMARK    1  A    between atoms: C_2  and  C_19
REMARK    2  A    between atoms: C_6  and  C_7
REMARK    3  A    between atoms: C_12  and  C_13
REMARK                            x       y       z     vdW  Elec       q    Type
REMARK                         _______ _______ _______ _____ _____    ______ ____
ROOT
ATOM      1  O   UNL     1       0.669   8.516  20.772  0.00  0.00    +0.000 OA
ATOM      2  C   UNL     1       0.900   9.260  19.824  0.00  0.00    +0.000 C 
ATOM      3  N   UNL     1       1.746   8.990  18.762  0.00  0.00    +0.000 N 
ATOM      4  C   UNL     1       2.404   7.794  18.671  0.00  0.00    +0.000 A 
ATOM      5  N   UNL     1       2.214   6.706  19.364  0.00  0.00    +0.000 NA
ATOM      6  C   UNL     1       3.191   5.776  19.066  0.00  0.00    +0.000 A 
ATOM      7  C   UNL     1       4.056   6.132  18.035  0.00  0.00    +0.000 A 
ATOM      8  S   UNL     1       3.637   7.723  17.493  0.00  0.00    +0.000 S 
ATOM      9  H   UNL     1       1.998   9.710  18.105  0.00  0.00    +0.000 HD
ENDROOT
BRANCH   6  10
ATOM     10  C   UNL     1       3.243   4.493  19.852  0.00  0.00    +0.000 A 
ATOM     11  C   UNL     1       4.144   3.467  19.654  0.00  0.00    +0.000 A 
ATOM     12  C   UNL     1       3.873   2.340  20.483  0.00  0.00    +0.000 A 
ATOM     13  C   UNL     1       2.808   2.569  21.322  0.00  0.00    +0.000 A 
ATOM     14  S   UNL     1       2.179   4.151  21.145  0.00  0.00    +0.000 S 
ENDBRANCH   6  10
BRANCH   7  15
ATOM     15  C   UNL     1       5.107   5.353  17.420  0.00  0.00    +0.000 A 
ATOM     16  C   UNL     1       6.449   5.351  17.766  0.00  0.00    +0.000 A 
ATOM     17  C   UNL     1       7.264   4.669  16.817  0.00  0.00    +0.000 A 
ATOM     18  C   UNL     1       6.507   4.065  15.839  0.00  0.00    +0.000 A 
ATOM     19  S   UNL     1       4.833   4.347  16.057  0.00  0.00    +0.000 S 
ENDBRANCH   7  15
BRANCH   2  20
ATOM     20  C   UNL     1       0.194  10.607  19.698  0.00  0.00    +0.000 C 
ATOM     21  C   UNL     1      -0.989  10.555  18.728  0.00  0.00    +0.000 C 
ATOM     22  C   UNL     1      -1.780  11.814  19.044  0.00  0.00    +0.000 C 
ATOM     23  C   UNL     1      -1.545  12.083  20.528  0.00  0.00    +0.000 C 
ATOM     24  C   UNL     1      -0.470  11.096  20.983  0.00  0.00    +0.000 C 
ENDBRANCH   2  20
TORSDOF 3
ENDMDL
