MODEL 1
REMARK VINA RESULT:      -6.7      0.000      0.000
REMARK  Name = 
REMARK  11 active torsions:
REMARK  status: ('A' for Active; 'I' for Inactive)
REMARK    1  A    between atoms: C_4  and  O_5
REMARK    2  A    between atoms: N_9  and  C_10
REMARK    3  A    between atoms: C_10  and  O_11
REMARK    4  A    between atoms: O_11  and  C_12
REMARK    5  A    between atoms: C_12  and  C_13
REMARK    6  A    between atoms: C_13  and  O_14
REMARK    7  A    between atoms: O_14  and  C_15
REMARK    8  A    between atoms: C_15  and  C_17
REMARK    9  A    between atoms: C_17  and  C_18
REMARK   10  A    between atoms: C_18  and  C_19
REMARK   11  A    between atoms: C_19  and  O_21
REMARK                            x       y       z     vdW  Elec       q    Type
REMARK                         _______ _______ _______ _____ _____    ______ ____
ROOT
ATOM      1  N   UNL     1       8.356   5.268  20.444  0.00  0.00    +0.000 N 
ATOM      2  C   UNL     1       7.693   5.622  19.285  0.00  0.00    +0.000 A 
ATOM      3  N   UNL     1       8.030   6.810  18.752  0.00  0.00    +0.000 NA
ATOM      4  C   UNL     1       7.425   7.176  17.609  0.00  0.00    +0.000 A 
ATOM      5  C   UNL     1       6.478   6.360  17.002  0.00  0.00    +0.000 A 
ATOM      6  N   UNL     1       5.733   6.446  15.847  0.00  0.00    +0.000 NA
ATOM      7  C   UNL     1       5.011   5.343  15.830  0.00  0.00    +0.000 A 
ATOM      8  N   UNL     1       5.244   4.561  16.928  0.00  0.00    +0.000 N 
ATOM      9  C   UNL     1       6.204   5.183  17.679  0.00  0.00    +0.000 A 
ATOM     10  N   UNL     1       6.772   4.757  18.821  0.00  0.00    +0.000 NA
ATOM     11  H   UNL     1       8.706   6.094  20.909  0.00  0.00    +0.000 HD
ATOM     12  H   UNL     1       7.793   4.633  20.992  0.00  0.00    +0.000 HD
ENDROOT
BRANCH   4  13
ATOM     13  O   UNL     1       7.824   8.383  17.107  0.00  0.00    +0.000 OA
ATOM     14  H   UNL     1       7.983   8.878  17.928  0.00  0.00    +0.000 HD
ENDBRANCH   4  13
BRANCH   8  15
ATOM     15  C   UNL     1       4.638   3.279  17.222  0.00  0.00    +0.000 C 
BRANCH  15  16
ATOM     16  O   UNL     1       3.332   3.490  17.768  0.00  0.00    +0.000 OA
BRANCH  16  17
ATOM     17  C   UNL     1       2.631   2.255  17.949  0.00  0.00    +0.000 C 
BRANCH  17  18
ATOM     18  C   UNL     1       1.793   2.326  19.231  0.00  0.00    +0.000 C 
BRANCH  18  19
ATOM     19  O   UNL     1       1.299   3.656  19.479  0.00  0.00    +0.000 OA
BRANCH  19  20
ATOM     20  C   UNL     1       1.709   4.241  20.630  0.00  0.00    +0.000 C 
ATOM     21  O   UNL     1       2.029   3.649  21.658  0.00  0.00    +0.000 OA
BRANCH  20  22
ATOM     22  C   UNL     1       1.747   5.740  20.482  0.00  0.00    +0.000 C 
BRANCH  22  23
ATOM     23  C   UNL     1       2.908   6.159  19.593  0.00  0.00    +0.000 C 
BRANCH  23  24
ATOM     24  C   UNL     1       2.600   7.450  18.876  0.00  0.00    +0.000 C 
ATOM     25  O   UNL     1       1.806   8.281  19.289  0.00  0.00    +0.000 OA
BRANCH  24  26
ATOM     26  O   UNL     1       3.248   7.588  17.698  0.00  0.00    +0.000 OA
ATOM     27  H   UNL     1       3.094   6.844  17.072  0.00  0.00    +0.000 HD
ENDBRANCH  24  26
ENDBRANCH  23  24
ENDBRANCH  22  23
ENDBRANCH  20  22
ENDBRANCH  19  20
ENDBRANCH  18  19
ENDBRANCH  17  18
ENDBRANCH  16  17
ENDBRANCH  15  16
ENDBRANCH   8  15
TORSDOF 11
ENDMDL
MODEL 2
REMARK VINA RESULT:      -6.6      1.172      1.535
REMARK  Name = 
REMARK  11 active torsions:
REMARK  status: ('A' for Active; 'I' for Inactive)
REMARK    1  A    between atoms: C_4  and  O_5
REMARK    2  A    between atoms: N_9  and  C_10
REMARK    3  A    between atoms: C_10  and  O_11
REMARK    4  A    between atoms: O_11  and  C_12
REMARK    5  A    between atoms: C_12  and  C_13
REMARK    6  A    between atoms: C_13  and  O_14
REMARK    7  A    between atoms: O_14  and  C_15
REMARK    8  A    between atoms: C_15  and  C_17
REMARK    9  A    between atoms: C_17  and  C_18
REMARK   10  A    between atoms: C_18  and  C_19
REMARK   11  A    between atoms: C_19  and  O_21
REMARK                            x       y       z     vdW  Elec       q    Type
REMARK                         _______ _______ _______ _____ _____    ______ ____
ROOT
ATOM      1  N   UNL     1       8.584   5.262  20.411  0.00  0.00    +0.000 N 
ATOM      2  C   UNL     1       7.854   5.674  19.313  0.00  0.00    +0.000 A 
ATOM      3  N   UNL     1       8.204   6.859  18.782  0.00  0.00    +0.000 NA
ATOM      4  C   UNL     1       7.534   7.278  17.695  0.00  0.00    +0.000 A 
ATOM      5  C   UNL     1       6.509   6.519  17.143  0.00  0.00    +0.000 A 
ATOM      6  N   UNL     1       5.685   6.665  16.050  0.00  0.00    +0.000 NA
ATOM      7  C   UNL     1       4.916   5.596  16.062  0.00  0.00    +0.000 A 
ATOM      8  N   UNL     1       5.193   4.778  17.124  0.00  0.00    +0.000 N 
ATOM      9  C   UNL     1       6.233   5.339  17.814  0.00  0.00    +0.000 A 
ATOM     10  N   UNL     1       6.864   4.860  18.901  0.00  0.00    +0.000 NA
ATOM     11  H   UNL     1       9.005   6.061  20.866  0.00  0.00    +0.000 HD
ATOM     12  H   UNL     1       8.035   4.640  20.986  0.00  0.00    +0.000 HD
ENDROOT
BRANCH   4  13
ATOM     13  O   UNL     1       7.948   8.479  17.190  0.00  0.00    +0.000 OA
ATOM     14  H   UNL     1       8.172   8.227  16.279  0.00  0.00    +0.000 HD
ENDBRANCH   4  13
BRANCH   8  15
ATOM     15  C   UNL     1       4.554   3.516  17.435  0.00  0.00    +0.000 C 
BRANCH  15  16
ATOM     16  O   UNL     1       4.550   3.328  18.854  0.00  0.00    +0.000 OA
BRANCH  16  17
ATOM     17  C   UNL     1       4.320   1.959  19.203  0.00  0.00    +0.000 C 
BRANCH  17  18
ATOM     18  C   UNL     1       2.948   1.521  18.680  0.00  0.00    +0.000 C 
BRANCH  18  19
ATOM     19  O   UNL     1       1.897   1.795  19.626  0.00  0.00    +0.000 OA
BRANCH  19  20
ATOM     20  C   UNL     1       0.971   2.707  19.243  0.00  0.00    +0.000 C 
ATOM     21  O   UNL     1       0.043   2.499  18.465  0.00  0.00    +0.000 OA
BRANCH  20  22
ATOM     22  C   UNL     1       1.212   4.029  19.922  0.00  0.00    +0.000 C 
BRANCH  22  23
ATOM     23  C   UNL     1       1.631   5.082  18.906  0.00  0.00    +0.000 C 
BRANCH  23  24
ATOM     24  C   UNL     1       2.489   6.142  19.550  0.00  0.00    +0.000 C 
ATOM     25  O   UNL     1       2.230   7.335  19.518  0.00  0.00    +0.000 OA
BRANCH  24  26
ATOM     26  O   UNL     1       3.610   5.658  20.130  0.00  0.00    +0.000 OA
ATOM     27  H   UNL     1       3.985   6.249  20.823  0.00  0.00    +0.000 HD
ENDBRANCH  24  26
ENDBRANCH  23  24
ENDBRANCH  22  23
ENDBRANCH  20  22
ENDBRANCH  19  20
ENDBRANCH  18  19
ENDBRANCH  17  18
ENDBRANCH  16  17
ENDBRANCH  15  16
ENDBRANCH   8  15
TORSDOF 11
ENDMDL
MODEL 3
REMARK VINA RESULT:      -6.4      2.062      3.788
REMARK  Name = 
REMARK  11 active torsions:
REMARK  status: ('A' for Active; 'I' for Inactive)
REMARK    1  A    between atoms: C_4  and  O_5
REMARK    2  A    between atoms: N_9  and  C_10
REMARK    3  A    between atoms: C_10  and  O_11
REMARK    4  A    between atoms: O_11  and  C_12
REMARK    5  A    between atoms: C_12  and  C_13
REMARK    6  A    between atoms: C_13  and  O_14
REMARK    7  A    between atoms: O_14  and  C_15
REMARK    8  A    between atoms: C_15  and  C_17
REMARK    9  A    between atoms: C_17  and  C_18
REMARK   10  A    between atoms: C_18  and  C_19
REMARK   11  A    between atoms: C_19  and  O_21
REMARK                            x       y       z     vdW  Elec       q    Type
REMARK                         _______ _______ _______ _____ _____    ______ ____
ROOT
ATOM      1  N   UNL     1       6.951   5.258  13.976  0.00  0.00    +0.000 N 
ATOM      2  C   UNL     1       6.774   5.170  15.344  0.00  0.00    +0.000 A 
ATOM      3  N   UNL     1       7.753   4.552  16.027  0.00  0.00    +0.000 NA
ATOM      4  C   UNL     1       7.628   4.472  17.363  0.00  0.00    +0.000 A 
ATOM      5  C   UNL     1       6.521   5.001  18.016  0.00  0.00    +0.000 A 
ATOM      6  N   UNL     1       6.137   5.098  19.334  0.00  0.00    +0.000 NA
ATOM      7  C   UNL     1       4.973   5.713  19.301  0.00  0.00    +0.000 A 
ATOM      8  N   UNL     1       4.581   6.000  18.022  0.00  0.00    +0.000 N 
ATOM      9  C   UNL     1       5.575   5.577  17.183  0.00  0.00    +0.000 A 
ATOM     10  N   UNL     1       5.639   5.692  15.845  0.00  0.00    +0.000 NA
ATOM     11  H   UNL     1       7.584   4.535  13.662  0.00  0.00    +0.000 HD
ATOM     12  H   UNL     1       6.059   5.325  13.508  0.00  0.00    +0.000 HD
ENDROOT
BRANCH   4  13
ATOM     13  O   UNL     1       8.664   3.850  18.003  0.00  0.00    +0.000 OA
ATOM     14  H   UNL     1       8.850   3.124  17.385  0.00  0.00    +0.000 HD
ENDBRANCH   4  13
BRANCH   8  15
ATOM     15  C   UNL     1       3.368   6.684  17.621  0.00  0.00    +0.000 C 
BRANCH  15  16
ATOM     16  O   UNL     1       2.235   5.945  18.088  0.00  0.00    +0.000 OA
BRANCH  16  17
ATOM     17  C   UNL     1       2.267   4.588  17.635  0.00  0.00    +0.000 C 
BRANCH  17  18
ATOM     18  C   UNL     1       1.232   3.765  18.410  0.00  0.00    +0.000 C 
BRANCH  18  19
ATOM     19  O   UNL     1       0.923   4.353  19.688  0.00  0.00    +0.000 OA
BRANCH  19  20
ATOM     20  C   UNL     1       1.729   4.001  20.718  0.00  0.00    +0.000 C 
ATOM     21  O   UNL     1       2.233   4.776  21.527  0.00  0.00    +0.000 OA
BRANCH  20  22
ATOM     22  C   UNL     1       1.915   2.507  20.765  0.00  0.00    +0.000 C 
BRANCH  22  23
ATOM     23  C   UNL     1       3.379   2.159  20.992  0.00  0.00    +0.000 C 
BRANCH  23  24
ATOM     24  C   UNL     1       4.073   1.867  19.685  0.00  0.00    +0.000 C 
ATOM     25  O   UNL     1       3.583   1.191  18.794  0.00  0.00    +0.000 OA
BRANCH  24  26
ATOM     26  O   UNL     1       5.320   2.383  19.603  0.00  0.00    +0.000 OA
ATOM     27  H   UNL     1       5.348   3.297  19.238  0.00  0.00    +0.000 HD
ENDBRANCH  24  26
ENDBRANCH  23  24
ENDBRANCH  22  23
ENDBRANCH  20  22
ENDBRANCH  19  20
ENDBRANCH  18  19
ENDBRANCH  17  18
ENDBRANCH  16  17
ENDBRANCH  15  16
ENDBRANCH   8  15
TORSDOF 11
ENDMDL
MODEL 4
REMARK VINA RESULT:      -6.4      1.481      2.479
REMARK  Name = 
REMARK  11 active torsions:
REMARK  status: ('A' for Active; 'I' for Inactive)
REMARK    1  A    between atoms: C_4  and  O_5
REMARK    2  A    between atoms: N_9  and  C_10
REMARK    3  A    between atoms: C_10  and  O_11
REMARK    4  A    between atoms: O_11  and  C_12
REMARK    5  A    between atoms: C_12  and  C_13
REMARK    6  A    between atoms: C_13  and  O_14
REMARK    7  A    between atoms: O_14  and  C_15
REMARK    8  A    between atoms: C_15  and  C_17
REMARK    9  A    between atoms: C_17  and  C_18
REMARK   10  A    between atoms: C_18  and  C_19
REMARK   11  A    between atoms: C_19  and  O_21
REMARK                            x       y       z     vdW  Elec       q    Type
REMARK                         _______ _______ _______ _____ _____    ______ ____
ROOT
ATOM      1  N   UNL     1       7.131   5.260  14.149  0.00  0.00    +0.000 N 
ATOM      2  C   UNL     1       6.843   5.153  15.496  0.00  0.00    +0.000 A 
ATOM      3  N   UNL     1       7.530   5.972  16.312  0.00  0.00    +0.000 NA
ATOM      4  C   UNL     1       7.256   5.916  17.627  0.00  0.00    +0.000 A 
ATOM      5  C   UNL     1       6.303   5.037  18.128  0.00  0.00    +0.000 A 
ATOM      6  N   UNL     1       5.798   4.779  19.382  0.00  0.00    +0.000 NA
ATOM      7  C   UNL     1       4.910   3.824  19.197  0.00  0.00    +0.000 A 
ATOM      8  N   UNL     1       4.834   3.441  17.885  0.00  0.00    +0.000 N 
ATOM      9  C   UNL     1       5.701   4.229  17.178  0.00  0.00    +0.000 A 
ATOM     10  N   UNL     1       5.925   4.236  15.851  0.00  0.00    +0.000 NA
ATOM     11  H   UNL     1       8.053   5.653  14.022  0.00  0.00    +0.000 HD
ATOM     12  H   UNL     1       6.931   4.390  13.676  0.00  0.00    +0.000 HD
ENDROOT
BRANCH   4  13
ATOM     13  O   UNL     1       7.971   6.786  18.402  0.00  0.00    +0.000 OA
ATOM     14  H   UNL     1       7.782   7.627  17.955  0.00  0.00    +0.000 HD
ENDBRANCH   4  13
BRANCH   8  15
ATOM     15  C   UNL     1       3.956   2.434  17.326  0.00  0.00    +0.000 C 
BRANCH  15  16
ATOM     16  O   UNL     1       2.939   2.115  18.280  0.00  0.00    +0.000 OA
BRANCH  16  17
ATOM     17  C   UNL     1       1.716   2.801  17.997  0.00  0.00    +0.000 C 
BRANCH  17  18
ATOM     18  C   UNL     1       0.720   2.565  19.138  0.00  0.00    +0.000 C 
BRANCH  18  19
ATOM     19  O   UNL     1       1.385   2.280  20.383  0.00  0.00    +0.000 OA
BRANCH  19  20
ATOM     20  C   UNL     1       1.666   3.347  21.169  0.00  0.00    +0.000 C 
ATOM     21  O   UNL     1       2.284   3.309  22.230  0.00  0.00    +0.000 OA
BRANCH  20  22
ATOM     22  C   UNL     1       1.135   4.616  20.557  0.00  0.00    +0.000 C 
BRANCH  22  23
ATOM     23  C   UNL     1       2.140   5.747  20.717  0.00  0.00    +0.000 C 
BRANCH  23  24
ATOM     24  C   UNL     1       2.260   6.547  19.443  0.00  0.00    +0.000 C 
ATOM     25  O   UNL     1       2.570   6.062  18.366  0.00  0.00    +0.000 OA
BRANCH  24  26
ATOM     26  O   UNL     1       2.042   7.870  19.608  0.00  0.00    +0.000 OA
ATOM     27  H   UNL     1       1.090   8.121  19.585  0.00  0.00    +0.000 HD
ENDBRANCH  24  26
ENDBRANCH  23  24
ENDBRANCH  22  23
ENDBRANCH  20  22
ENDBRANCH  19  20
ENDBRANCH  18  19
ENDBRANCH  17  18
ENDBRANCH  16  17
ENDBRANCH  15  16
ENDBRANCH   8  15
TORSDOF 11
ENDMDL
MODEL 5
REMARK VINA RESULT:      -6.4      3.356      6.626
REMARK  Name = 
REMARK  11 active torsions:
REMARK  status: ('A' for Active; 'I' for Inactive)
REMARK    1  A    between atoms: C_4  and  O_5
REMARK    2  A    between atoms: N_9  and  C_10
REMARK    3  A    between atoms: C_10  and  O_11
REMARK    4  A    between atoms: O_11  and  C_12
REMARK    5  A    between atoms: C_12  and  C_13
REMARK    6  A    between atoms: C_13  and  O_14
REMARK    7  A    between atoms: O_14  and  C_15
REMARK    8  A    between atoms: C_15  and  C_17
REMARK    9  A    between atoms: C_17  and  C_18
REMARK   10  A    between atoms: C_18  and  C_19
REMARK   11  A    between atoms: C_19  and  O_21
REMARK                            x       y       z     vdW  Elec       q    Type
REMARK                         _______ _______ _______ _____ _____    ______ ____
ROOT
ATOM      1  N   UNL     1       4.430   1.463  18.993  0.00  0.00    +0.000 N 
ATOM      2  C   UNL     1       3.721   2.543  19.482  0.00  0.00    +0.000 A 
ATOM      3  N   UNL     1       2.962   2.308  20.567  0.00  0.00    +0.000 NA
ATOM      4  C   UNL     1       2.279   3.342  21.087  0.00  0.00    +0.000 A 
ATOM      5  C   UNL     1       2.347   4.609  20.520  0.00  0.00    +0.000 A 
ATOM      6  N   UNL     1       1.803   5.834  20.833  0.00  0.00    +0.000 NA
ATOM      7  C   UNL     1       2.249   6.649  19.900  0.00  0.00    +0.000 A 
ATOM      8  N   UNL     1       3.039   6.002  18.988  0.00  0.00    +0.000 N 
ATOM      9  C   UNL     1       3.138   4.697  19.385  0.00  0.00    +0.000 A 
ATOM     10  N   UNL     1       3.847   3.706  18.816  0.00  0.00    +0.000 NA
ATOM     11  H   UNL     1       3.992   0.600  19.285  0.00  0.00    +0.000 HD
ATOM     12  H   UNL     1       4.611   1.578  18.006  0.00  0.00    +0.000 HD
ENDROOT
BRANCH   4  13
ATOM     13  O   UNL     1       1.543   3.045  22.200  0.00  0.00    +0.000 OA
ATOM     14  H   UNL     1       1.860   2.147  22.393  0.00  0.00    +0.000 HD
ENDBRANCH   4  13
BRANCH   8  15
ATOM     15  C   UNL     1       3.705   6.593  17.846  0.00  0.00    +0.000 C 
BRANCH  15  16
ATOM     16  O   UNL     1       5.109   6.328  17.932  0.00  0.00    +0.000 OA
BRANCH  16  17
ATOM     17  C   UNL     1       5.770   6.582  16.689  0.00  0.00    +0.000 C 
BRANCH  17  18
ATOM     18  C   UNL     1       7.119   5.855  16.669  0.00  0.00    +0.000 C 
BRANCH  18  19
ATOM     19  O   UNL     1       7.265   5.022  15.503  0.00  0.00    +0.000 OA
BRANCH  19  20
ATOM     20  C   UNL     1       6.275   4.125  15.280  0.00  0.00    +0.000 C 
ATOM     21  O   UNL     1       5.914   3.251  16.065  0.00  0.00    +0.000 OA
BRANCH  20  22
ATOM     22  C   UNL     1       5.643   4.350  13.932  0.00  0.00    +0.000 C 
BRANCH  22  23
ATOM     23  C   UNL     1       6.422   3.617  12.849  0.00  0.00    +0.000 C 
BRANCH  23  24
ATOM     24  C   UNL     1       5.490   2.874  11.924  0.00  0.00    +0.000 C 
ATOM     25  O   UNL     1       4.406   3.306  11.565  0.00  0.00    +0.000 OA
BRANCH  24  26
ATOM     26  O   UNL     1       5.941   1.652  11.562  0.00  0.00    +0.000 OA
ATOM     27  H   UNL     1       5.953   1.000  12.299  0.00  0.00    +0.000 HD
ENDBRANCH  24  26
ENDBRANCH  23  24
ENDBRANCH  22  23
ENDBRANCH  20  22
ENDBRANCH  19  20
ENDBRANCH  18  19
ENDBRANCH  17  18
ENDBRANCH  16  17
ENDBRANCH  15  16
ENDBRANCH   8  15
TORSDOF 11
ENDMDL
MODEL 6
REMARK VINA RESULT:      -6.3      3.405      6.602
REMARK  Name = 
REMARK  11 active torsions:
REMARK  status: ('A' for Active; 'I' for Inactive)
REMARK    1  A    between atoms: C_4  and  O_5
REMARK    2  A    between atoms: N_9  and  C_10
REMARK    3  A    between atoms: C_10  and  O_11
REMARK    4  A    between atoms: O_11  and  C_12
REMARK    5  A    between atoms: C_12  and  C_13
REMARK    6  A    between atoms: C_13  and  O_14
REMARK    7  A    between atoms: O_14  and  C_15
REMARK    8  A    between atoms: C_15  and  C_17
REMARK    9  A    between atoms: C_17  and  C_18
REMARK   10  A    between atoms: C_18  and  C_19
REMARK   11  A    between atoms: C_19  and  O_21
REMARK                            x       y       z     vdW  Elec       q    Type
REMARK                         _______ _______ _______ _____ _____    ______ ____
ROOT
ATOM      1  N   UNL     1       4.418   0.502  18.933  0.00  0.00    +0.000 N 
ATOM      2  C   UNL     1       3.864   1.762  18.816  0.00  0.00    +0.000 A 
ATOM      3  N   UNL     1       2.548   1.804  18.546  0.00  0.00    +0.000 NA
ATOM      4  C   UNL     1       1.968   3.014  18.452  0.00  0.00    +0.000 A 
ATOM      5  C   UNL     1       2.704   4.180  18.620  0.00  0.00    +0.000 A 
ATOM      6  N   UNL     1       2.396   5.522  18.612  0.00  0.00    +0.000 NA
ATOM      7  C   UNL     1       3.543   6.133  18.833  0.00  0.00    +0.000 A 
ATOM      8  N   UNL     1       4.578   5.247  18.963  0.00  0.00    +0.000 N 
ATOM      9  C   UNL     1       4.055   3.987  18.858  0.00  0.00    +0.000 A 
ATOM     10  N   UNL     1       4.696   2.809  18.966  0.00  0.00    +0.000 NA
ATOM     11  H   UNL     1       3.851  -0.173  18.440  0.00  0.00    +0.000 HD
ATOM     12  H   UNL     1       5.403   0.527  18.711  0.00  0.00    +0.000 HD
ENDROOT
BRANCH   4  13
ATOM     13  O   UNL     1       0.626   2.991  18.195  0.00  0.00    +0.000 OA
ATOM     14  H   UNL     1       0.273   2.829  19.086  0.00  0.00    +0.000 HD
ENDBRANCH   4  13
BRANCH   8  15
ATOM     15  C   UNL     1       5.965   5.569  19.227  0.00  0.00    +0.000 C 
BRANCH  15  16
ATOM     16  O   UNL     1       6.782   4.442  18.892  0.00  0.00    +0.000 OA
BRANCH  16  17
ATOM     17  C   UNL     1       7.581   4.697  17.732  0.00  0.00    +0.000 C 
BRANCH  17  18
ATOM     18  C   UNL     1       6.929   5.800  16.893  0.00  0.00    +0.000 C 
BRANCH  18  19
ATOM     19  O   UNL     1       6.029   5.263  15.904  0.00  0.00    +0.000 OA
BRANCH  19  20
ATOM     20  C   UNL     1       6.569   4.980  14.694  0.00  0.00    +0.000 C 
ATOM     21  O   UNL     1       7.647   5.398  14.278  0.00  0.00    +0.000 OA
BRANCH  20  22
ATOM     22  C   UNL     1       5.677   4.050  13.915  0.00  0.00    +0.000 C 
BRANCH  22  23
ATOM     23  C   UNL     1       6.379   3.568  12.655  0.00  0.00    +0.000 C 
BRANCH  23  24
ATOM     24  C   UNL     1       5.440   2.768  11.786  0.00  0.00    +0.000 C 
ATOM     25  O   UNL     1       5.692   1.648  11.370  0.00  0.00    +0.000 OA
BRANCH  24  26
ATOM     26  O   UNL     1       4.304   3.425  11.462  0.00  0.00    +0.000 OA
ATOM     27  H   UNL     1       3.864   3.857  12.229  0.00  0.00    +0.000 HD
ENDBRANCH  24  26
ENDBRANCH  23  24
ENDBRANCH  22  23
ENDBRANCH  20  22
ENDBRANCH  19  20
ENDBRANCH  18  19
ENDBRANCH  17  18
ENDBRANCH  16  17
ENDBRANCH  15  16
ENDBRANCH   8  15
TORSDOF 11
ENDMDL
MODEL 7
REMARK VINA RESULT:      -6.3      0.900      1.236
REMARK  Name = 
REMARK  11 active torsions:
REMARK  status: ('A' for Active; 'I' for Inactive)
REMARK    1  A    between atoms: C_4  and  O_5
REMARK    2  A    between atoms: N_9  and  C_10
REMARK    3  A    between atoms: C_10  and  O_11
REMARK    4  A    between atoms: O_11  and  C_12
REMARK    5  A    between atoms: C_12  and  C_13
REMARK    6  A    between atoms: C_13  and  O_14
REMARK    7  A    between atoms: O_14  and  C_15
REMARK    8  A    between atoms: C_15  and  C_17
REMARK    9  A    between atoms: C_17  and  C_18
REMARK   10  A    between atoms: C_18  and  C_19
REMARK   11  A    between atoms: C_19  and  O_21
REMARK                            x       y       z     vdW  Elec       q    Type
REMARK                         _______ _______ _______ _____ _____    ______ ____
ROOT
ATOM      1  N   UNL     1       8.543   5.276  20.303  0.00  0.00    +0.000 N 
ATOM      2  C   UNL     1       7.867   5.680  19.167  0.00  0.00    +0.000 A 
ATOM      3  N   UNL     1       8.147   6.918  18.723  0.00  0.00    +0.000 NA
ATOM      4  C   UNL     1       7.528   7.334  17.604  0.00  0.00    +0.000 A 
ATOM      5  C   UNL     1       6.626   6.518  16.934  0.00  0.00    +0.000 A 
ATOM      6  N   UNL     1       5.881   6.649  15.783  0.00  0.00    +0.000 NA
ATOM      7  C   UNL     1       5.215   5.516  15.682  0.00  0.00    +0.000 A 
ATOM      8  N   UNL     1       5.482   4.670  16.724  0.00  0.00    +0.000 N 
ATOM      9  C   UNL     1       6.408   5.283  17.524  0.00  0.00    +0.000 A 
ATOM     10  N   UNL     1       6.993   4.805  18.637  0.00  0.00    +0.000 NA
ATOM     11  H   UNL     1       8.850   6.084  20.828  0.00  0.00    +0.000 HD
ATOM     12  H   UNL     1       8.010   4.578  20.800  0.00  0.00    +0.000 HD
ENDROOT
BRANCH   4  13
ATOM     13  O   UNL     1       7.869   8.592  17.192  0.00  0.00    +0.000 OA
ATOM     14  H   UNL     1       7.279   8.699  16.427  0.00  0.00    +0.000 HD
ENDBRANCH   4  13
BRANCH   8  15
ATOM     15  C   UNL     1       4.940   3.342  16.922  0.00  0.00    +0.000 C 
BRANCH  15  16
ATOM     16  O   UNL     1       3.985   3.377  17.988  0.00  0.00    +0.000 OA
BRANCH  16  17
ATOM     17  C   UNL     1       2.662   3.102  17.519  0.00  0.00    +0.000 C 
BRANCH  17  18
ATOM     18  C   UNL     1       1.695   4.155  18.070  0.00  0.00    +0.000 C 
BRANCH  18  19
ATOM     19  O   UNL     1       0.996   3.686  19.239  0.00  0.00    +0.000 OA
BRANCH  19  20
ATOM     20  C   UNL     1       1.725   3.598  20.377  0.00  0.00    +0.000 C 
ATOM     21  O   UNL     1       1.930   2.568  21.016  0.00  0.00    +0.000 OA
BRANCH  20  22
ATOM     22  C   UNL     1       2.285   4.943  20.759  0.00  0.00    +0.000 C 
BRANCH  22  23
ATOM     23  C   UNL     1       1.200   6.008  20.703  0.00  0.00    +0.000 C 
BRANCH  23  24
ATOM     24  C   UNL     1       1.795   7.373  20.461  0.00  0.00    +0.000 C 
ATOM     25  O   UNL     1       2.201   7.750  19.373  0.00  0.00    +0.000 OA
BRANCH  24  26
ATOM     26  O   UNL     1       1.887   8.133  21.575  0.00  0.00    +0.000 OA
ATOM     27  H   UNL     1       1.081   8.670  21.756  0.00  0.00    +0.000 HD
ENDBRANCH  24  26
ENDBRANCH  23  24
ENDBRANCH  22  23
ENDBRANCH  20  22
ENDBRANCH  19  20
ENDBRANCH  18  19
ENDBRANCH  17  18
ENDBRANCH  16  17
ENDBRANCH  15  16
ENDBRANCH   8  15
TORSDOF 11
ENDMDL
MODEL 8
REMARK VINA RESULT:      -6.3      1.597      2.761
REMARK  Name = 
REMARK  11 active torsions:
REMARK  status: ('A' for Active; 'I' for Inactive)
REMARK    1  A    between atoms: C_4  and  O_5
REMARK    2  A    between atoms: N_9  and  C_10
REMARK    3  A    between atoms: C_10  and  O_11
REMARK    4  A    between atoms: O_11  and  C_12
REMARK    5  A    between atoms: C_12  and  C_13
REMARK    6  A    between atoms: C_13  and  O_14
REMARK    7  A    between atoms: O_14  and  C_15
REMARK    8  A    between atoms: C_15  and  C_17
REMARK    9  A    between atoms: C_17  and  C_18
REMARK   10  A    between atoms: C_18  and  C_19
REMARK   11  A    between atoms: C_19  and  O_21
REMARK                            x       y       z     vdW  Elec       q    Type
REMARK                         _______ _______ _______ _____ _____    ______ ____
ROOT
ATOM      1  N   UNL     1       6.350   4.451  13.799  0.00  0.00    +0.000 N 
ATOM      2  C   UNL     1       6.307   4.598  15.172  0.00  0.00    +0.000 A 
ATOM      3  N   UNL     1       7.132   5.523  15.692  0.00  0.00    +0.000 NA
ATOM      4  C   UNL     1       7.097   5.714  17.022  0.00  0.00    +0.000 A 
ATOM      5  C   UNL     1       6.246   4.975  17.834  0.00  0.00    +0.000 A 
ATOM      6  N   UNL     1       5.971   4.964  19.183  0.00  0.00    +0.000 NA
ATOM      7  C   UNL     1       5.060   4.024  19.334  0.00  0.00    +0.000 A 
ATOM      8  N   UNL     1       4.749   3.417  18.147  0.00  0.00    +0.000 N 
ATOM      9  C   UNL     1       5.479   4.032  17.167  0.00  0.00    +0.000 A 
ATOM     10  N   UNL     1       5.463   3.793  15.844  0.00  0.00    +0.000 NA
ATOM     11  H   UNL     1       7.236   4.781  13.443  0.00  0.00    +0.000 HD
ATOM     12  H   UNL     1       6.065   3.518  13.535  0.00  0.00    +0.000 HD
ENDROOT
BRANCH   4  13
ATOM     13  O   UNL     1       7.944   6.681  17.488  0.00  0.00    +0.000 OA
ATOM     14  H   UNL     1       8.657   6.135  17.860  0.00  0.00    +0.000 HD
ENDBRANCH   4  13
BRANCH   8  15
ATOM     15  C   UNL     1       3.781   2.359  17.944  0.00  0.00    +0.000 C 
BRANCH  15  16
ATOM     16  O   UNL     1       3.333   1.880  19.215  0.00  0.00    +0.000 OA
BRANCH  16  17
ATOM     17  C   UNL     1       1.904   1.827  19.286  0.00  0.00    +0.000 C 
BRANCH  17  18
ATOM     18  C   UNL     1       1.381   3.075  20.005  0.00  0.00    +0.000 C 
BRANCH  18  19
ATOM     19  O   UNL     1       1.141   4.163  19.092  0.00  0.00    +0.000 OA
BRANCH  19  20
ATOM     20  C   UNL     1       1.832   5.304  19.326  0.00  0.00    +0.000 C 
ATOM     21  O   UNL     1       2.102   5.761  20.434  0.00  0.00    +0.000 OA
BRANCH  20  22
ATOM     22  C   UNL     1       2.257   5.946  18.032  0.00  0.00    +0.000 C 
BRANCH  22  23
ATOM     23  C   UNL     1       3.065   7.206  18.302  0.00  0.00    +0.000 C 
BRANCH  23  24
ATOM     24  C   UNL     1       2.185   8.431  18.263  0.00  0.00    +0.000 C 
ATOM     25  O   UNL     1       2.072   9.152  17.285  0.00  0.00    +0.000 OA
BRANCH  24  26
ATOM     26  O   UNL     1       1.564   8.693  19.435  0.00  0.00    +0.000 OA
ATOM     27  H   UNL     1       2.131   9.167  20.086  0.00  0.00    +0.000 HD
ENDBRANCH  24  26
ENDBRANCH  23  24
ENDBRANCH  22  23
ENDBRANCH  20  22
ENDBRANCH  19  20
ENDBRANCH  18  19
ENDBRANCH  17  18
ENDBRANCH  16  17
ENDBRANCH  15  16
ENDBRANCH   8  15
TORSDOF 11
ENDMDL
MODEL 9
REMARK VINA RESULT:      -6.2      3.372      6.894
REMARK  Name = 
REMARK  11 active torsions:
REMARK  status: ('A' for Active; 'I' for Inactive)
REMARK    1  A    between atoms: C_4  and  O_5
REMARK    2  A    between atoms: N_9  and  C_10
REMARK    3  A    between atoms: C_10  and  O_11
REMARK    4  A    between atoms: O_11  and  C_12
REMARK    5  A    between atoms: C_12  and  C_13
REMARK    6  A    between atoms: C_13  and  O_14
REMARK    7  A    between atoms: O_14  and  C_15
REMARK    8  A    between atoms: C_15  and  C_17
REMARK    9  A    between atoms: C_17  and  C_18
REMARK   10  A    between atoms: C_18  and  C_19
REMARK   11  A    between atoms: C_19  and  O_21
REMARK                            x       y       z     vdW  Elec       q    Type
REMARK                         _______ _______ _______ _____ _____    ______ ____
ROOT
ATOM      1  N   UNL     1       3.726   1.093  18.202  0.00  0.00    +0.000 N 
ATOM      2  C   UNL     1       3.183   2.228  18.772  0.00  0.00    +0.000 A 
ATOM      3  N   UNL     1       2.252   2.025  19.720  0.00  0.00    +0.000 NA
ATOM      4  C   UNL     1       1.722   3.107  20.317  0.00  0.00    +0.000 A 
ATOM      5  C   UNL     1       2.115   4.391  19.961  0.00  0.00    +0.000 A 
ATOM      6  N   UNL     1       1.786   5.654  20.399  0.00  0.00    +0.000 NA
ATOM      7  C   UNL     1       2.508   6.467  19.655  0.00  0.00    +0.000 A 
ATOM      8  N   UNL     1       3.272   5.788  18.746  0.00  0.00    +0.000 N 
ATOM      9  C   UNL     1       3.056   4.451  18.945  0.00  0.00    +0.000 A 
ATOM     10  N   UNL     1       3.627   3.412  18.310  0.00  0.00    +0.000 NA
ATOM     11  H   UNL     1       3.090   0.314  18.309  0.00  0.00    +0.000 HD
ATOM     12  H   UNL     1       4.059   1.291  17.269  0.00  0.00    +0.000 HD
ENDROOT
BRANCH   4  13
ATOM     13  O   UNL     1       0.796   2.835  21.285  0.00  0.00    +0.000 OA
ATOM     14  H   UNL     1       1.225   3.228  22.063  0.00  0.00    +0.000 HD
ENDBRANCH   4  13
BRANCH   8  15
ATOM     15  C   UNL     1       4.192   6.362  17.786  0.00  0.00    +0.000 C 
BRANCH  15  16
ATOM     16  O   UNL     1       5.527   6.249  18.289  0.00  0.00    +0.000 OA
BRANCH  16  17
ATOM     17  C   UNL     1       6.496   6.590  17.292  0.00  0.00    +0.000 C 
BRANCH  17  18
ATOM     18  C   UNL     1       6.863   5.340  16.486  0.00  0.00    +0.000 C 
BRANCH  18  19
ATOM     19  O   UNL     1       7.708   5.652  15.362  0.00  0.00    +0.000 OA
BRANCH  19  20
ATOM     20  C   UNL     1       7.224   5.322  14.140  0.00  0.00    +0.000 C 
ATOM     21  O   UNL     1       7.838   5.413  13.080  0.00  0.00    +0.000 OA
BRANCH  20  22
ATOM     22  C   UNL     1       5.817   4.795  14.247  0.00  0.00    +0.000 C 
BRANCH  22  23
ATOM     23  C   UNL     1       5.764   3.329  13.844  0.00  0.00    +0.000 C 
BRANCH  23  24
ATOM     24  C   UNL     1       5.682   3.184  12.345  0.00  0.00    +0.000 C 
ATOM     25  O   UNL     1       4.673   3.412  11.697  0.00  0.00    +0.000 OA
BRANCH  24  26
ATOM     26  O   UNL     1       6.821   2.727  11.778  0.00  0.00    +0.000 OA
ATOM     27  H   UNL     1       7.622   2.859  12.336  0.00  0.00    +0.000 HD
ENDBRANCH  24  26
ENDBRANCH  23  24
ENDBRANCH  22  23
ENDBRANCH  20  22
ENDBRANCH  19  20
ENDBRANCH  18  19
ENDBRANCH  17  18
ENDBRANCH  16  17
ENDBRANCH  15  16
ENDBRANCH   8  15
TORSDOF 11
ENDMDL
