MODEL 1
REMARK VINA RESULT:      -7.0      0.000      0.000
REMARK  Name = 
REMARK  7 active torsions:
REMARK  status: ('A' for Active; 'I' for Inactive)
REMARK    1  A    between atoms: C_2  and  O_3
REMARK    2  A    between atoms: C_2  and  C_4
REMARK    3  A    between atoms: C_7  and  N_8
REMARK    4  A    between atoms: C_12  and  C_13
REMARK    5  A    between atoms: C_14  and  C_15
REMARK    6  A    between atoms: C_15  and  O_17
REMARK    7  A    between atoms: C_21  and  N_22
REMARK                            x       y       z     vdW  Elec       q    Type
REMARK                         _______ _______ _______ _____ _____    ______ ____
ROOT
ATOM      1  C   UNL     1       4.333   3.646  17.244  0.00  0.00    +0.000 A 
ATOM      2  C   UNL     1       5.241   3.947  16.207  0.00  0.00    +0.000 A 
ATOM      3  C   UNL     1       6.327   4.779  16.439  0.00  0.00    +0.000 A 
ATOM      4  C   UNL     1       6.525   5.280  17.723  0.00  0.00    +0.000 A 
ATOM      5  C   UNL     1       5.674   4.898  18.783  0.00  0.00    +0.000 A 
ATOM      6  C   UNL     1       4.508   4.115  18.576  0.00  0.00    +0.000 A 
ENDROOT
BRANCH   6   7
ATOM      7  C   UNL     1       3.544   3.869  19.727  0.00  0.00    +0.000 A 
ATOM      8  C   UNL     1       3.588   2.727  20.572  0.00  0.00    +0.000 A 
ATOM      9  C   UNL     1       2.640   2.493  21.600  0.00  0.00    +0.000 A 
ATOM     10  C   UNL     1       1.625   3.404  21.859  0.00  0.00    +0.000 A 
ATOM     11  C   UNL     1       1.558   4.558  21.103  0.00  0.00    +0.000 A 
ATOM     12  C   UNL     1       2.487   4.771  20.060  0.00  0.00    +0.000 A 
BRANCH  12  13
ATOM     13  N   UNL     1       2.274   6.019  19.334  0.00  0.00    +0.000 N 
ATOM     14  O   UNL     1       1.947   5.942  18.148  0.00  0.00    +0.000 OA
ATOM     15  O   UNL     1       2.426   7.058  19.981  0.00  0.00    +0.000 OA
ENDBRANCH  12  13
BRANCH   8  16
ATOM     16  C   UNL     1       4.698   1.734  20.520  0.00  0.00    +0.000 C 
ATOM     17  O   UNL     1       5.496   1.581  21.425  0.00  0.00    +0.000 OA
BRANCH  16  18
ATOM     18  O   UNL     1       4.744   1.048  19.360  0.00  0.00    +0.000 OA
ATOM     19  H   UNL     1       4.042   1.296  18.723  0.00  0.00    +0.000 HD
ENDBRANCH  16  18
ENDBRANCH   8  16
ENDBRANCH   6   7
BRANCH   4  20
ATOM     20  N   UNL     1       7.586   6.273  17.952  0.00  0.00    +0.000 N 
ATOM     21  O   UNL     1       8.188   6.230  19.034  0.00  0.00    +0.000 OA
ATOM     22  O   UNL     1       7.824   7.079  17.044  0.00  0.00    +0.000 OA
ENDBRANCH   4  20
BRANCH   1  24
ATOM     23  O   UNL     1       2.232   3.372  16.139  0.00  0.00    +0.000 OA
ATOM     24  C   UNL     1       3.127   2.887  16.815  0.00  0.00    +0.000 C 
BRANCH  24  25
ATOM     25  O   UNL     1       3.106   1.619  17.289  0.00  0.00    +0.000 OA
ATOM     26  H   UNL     1       3.963   1.164  17.271  0.00  0.00    +0.000 HD
ENDBRANCH  24  25
ENDBRANCH   1  24
TORSDOF 7
ENDMDL
MODEL 2
REMARK VINA RESULT:      -6.8      0.118      1.112
REMARK  Name = 
REMARK  7 active torsions:
REMARK  status: ('A' for Active; 'I' for Inactive)
REMARK    1  A    between atoms: C_2  and  O_3
REMARK    2  A    between atoms: C_2  and  C_4
REMARK    3  A    between atoms: C_7  and  N_8
REMARK    4  A    between atoms: C_12  and  C_13
REMARK    5  A    between atoms: C_14  and  C_15
REMARK    6  A    between atoms: C_15  and  O_17
REMARK    7  A    between atoms: C_21  and  N_22
REMARK                            x       y       z     vdW  Elec       q    Type
REMARK                         _______ _______ _______ _____ _____    ______ ____
ROOT
ATOM      1  C   UNL     1       4.339   3.619  17.228  0.00  0.00    +0.000 A 
ATOM      2  C   UNL     1       5.235   3.909  16.178  0.00  0.00    +0.000 A 
ATOM      3  C   UNL     1       6.303   4.771  16.379  0.00  0.00    +0.000 A 
ATOM      4  C   UNL     1       6.495   5.315  17.647  0.00  0.00    +0.000 A 
ATOM      5  C   UNL     1       5.658   4.946  18.721  0.00  0.00    +0.000 A 
ATOM      6  C   UNL     1       4.509   4.132  18.544  0.00  0.00    +0.000 A 
ENDROOT
BRANCH   6   7
ATOM      7  C   UNL     1       3.556   3.899  19.707  0.00  0.00    +0.000 A 
ATOM      8  C   UNL     1       3.592   2.755  20.549  0.00  0.00    +0.000 A 
ATOM      9  C   UNL     1       2.654   2.533  21.589  0.00  0.00    +0.000 A 
ATOM     10  C   UNL     1       1.657   3.460  21.863  0.00  0.00    +0.000 A 
ATOM     11  C   UNL     1       1.600   4.617  21.109  0.00  0.00    +0.000 A 
ATOM     12  C   UNL     1       2.518   4.816  20.055  0.00  0.00    +0.000 A 
BRANCH  12  13
ATOM     13  N   UNL     1       2.316   6.070  19.334  0.00  0.00    +0.000 N 
ATOM     14  O   UNL     1       2.483   7.120  19.958  0.00  0.00    +0.000 OA
ATOM     15  O   UNL     1       2.006   5.970  18.145  0.00  0.00    +0.000 OA
ENDBRANCH  12  13
BRANCH   8  16
ATOM     16  C   UNL     1       4.685   1.743  20.481  0.00  0.00    +0.000 C 
ATOM     17  O   UNL     1       5.487   1.571  21.379  0.00  0.00    +0.000 OA
BRANCH  16  18
ATOM     18  O   UNL     1       4.712   1.067  19.315  0.00  0.00    +0.000 OA
ATOM     19  H   UNL     1       5.388   0.360  19.280  0.00  0.00    +0.000 HD
ENDBRANCH  16  18
ENDBRANCH   8  16
ENDBRANCH   6   7
BRANCH   4  20
ATOM     20  N   UNL     1       7.534   6.338  17.839  0.00  0.00    +0.000 N 
ATOM     21  O   UNL     1       7.780   7.092  16.887  0.00  0.00    +0.000 OA
ATOM     22  O   UNL     1       8.087   6.396  18.945  0.00  0.00    +0.000 OA
ENDBRANCH   4  20
BRANCH   1  24
ATOM     23  O   UNL     1       3.077   1.607  16.953  0.00  0.00    +0.000 OA
ATOM     24  C   UNL     1       3.148   2.821  16.828  0.00  0.00    +0.000 C 
BRANCH  24  25
ATOM     25  O   UNL     1       2.172   3.575  16.268  0.00  0.00    +0.000 OA
ATOM     26  H   UNL     1       1.539   3.953  16.899  0.00  0.00    +0.000 HD
ENDBRANCH  24  25
ENDBRANCH   1  24
TORSDOF 7
ENDMDL
MODEL 3
REMARK VINA RESULT:      -6.6      1.217      3.257
REMARK  Name = 
REMARK  7 active torsions:
REMARK  status: ('A' for Active; 'I' for Inactive)
REMARK    1  A    between atoms: C_2  and  O_3
REMARK    2  A    between atoms: C_2  and  C_4
REMARK    3  A    between atoms: C_7  and  N_8
REMARK    4  A    between atoms: C_12  and  C_13
REMARK    5  A    between atoms: C_14  and  C_15
REMARK    6  A    between atoms: C_15  and  O_17
REMARK    7  A    between atoms: C_21  and  N_22
REMARK                            x       y       z     vdW  Elec       q    Type
REMARK                         _______ _______ _______ _____ _____    ______ ____
ROOT
ATOM      1  C   UNL     1       4.005   4.129  17.104  0.00  0.00    +0.000 A 
ATOM      2  C   UNL     1       4.816   4.504  16.011  0.00  0.00    +0.000 A 
ATOM      3  C   UNL     1       5.976   5.238  16.212  0.00  0.00    +0.000 A 
ATOM      4  C   UNL     1       6.345   5.565  17.515  0.00  0.00    +0.000 A 
ATOM      5  C   UNL     1       5.587   5.103  18.613  0.00  0.00    +0.000 A 
ATOM      6  C   UNL     1       4.354   4.420  18.452  0.00  0.00    +0.000 A 
ENDROOT
BRANCH   6   7
ATOM      7  C   UNL     1       3.504   4.089  19.670  0.00  0.00    +0.000 A 
ATOM      8  C   UNL     1       2.638   5.015  20.311  0.00  0.00    +0.000 A 
ATOM      9  C   UNL     1       1.902   4.698  21.481  0.00  0.00    +0.000 A 
ATOM     10  C   UNL     1       1.966   3.432  22.046  0.00  0.00    +0.000 A 
ATOM     11  C   UNL     1       2.753   2.472  21.439  0.00  0.00    +0.000 A 
ATOM     12  C   UNL     1       3.508   2.804  20.292  0.00  0.00    +0.000 A 
BRANCH  12  13
ATOM     13  N   UNL     1       4.310   1.696  19.782  0.00  0.00    +0.000 N 
ATOM     14  O   UNL     1       3.886   1.091  18.795  0.00  0.00    +0.000 OA
ATOM     15  O   UNL     1       5.365   1.466  20.379  0.00  0.00    +0.000 OA
ENDBRANCH  12  13
BRANCH   8  16
ATOM     16  C   UNL     1       2.346   6.363  19.747  0.00  0.00    +0.000 C 
ATOM     17  O   UNL     1       2.246   6.577  18.554  0.00  0.00    +0.000 OA
BRANCH  16  18
ATOM     18  O   UNL     1       2.238   7.321  20.689  0.00  0.00    +0.000 OA
ATOM     19  H   UNL     1       1.376   7.785  20.688  0.00  0.00    +0.000 HD
ENDBRANCH  16  18
ENDBRANCH   8  16
ENDBRANCH   6   7
BRANCH   4  20
ATOM     20  N   UNL     1       7.491   6.460  17.733  0.00  0.00    +0.000 N 
ATOM     21  O   UNL     1       7.827   7.200  16.798  0.00  0.00    +0.000 OA
ATOM     22  O   UNL     1       8.039   6.433  18.842  0.00  0.00    +0.000 OA
ENDBRANCH   4  20
BRANCH   1  24
ATOM     23  O   UNL     1       2.624   2.421  16.163  0.00  0.00    +0.000 OA
ATOM     24  C   UNL     1       2.710   3.500  16.730  0.00  0.00    +0.000 C 
BRANCH  24  25
ATOM     25  O   UNL     1       1.640   4.268  17.044  0.00  0.00    +0.000 OA
ATOM     26  H   UNL     1       1.770   4.853  17.808  0.00  0.00    +0.000 HD
ENDBRANCH  24  25
ENDBRANCH   1  24
TORSDOF 7
ENDMDL
MODEL 4
REMARK VINA RESULT:      -6.5      2.404      3.890
REMARK  Name = 
REMARK  7 active torsions:
REMARK  status: ('A' for Active; 'I' for Inactive)
REMARK    1  A    between atoms: C_2  and  O_3
REMARK    2  A    between atoms: C_2  and  C_4
REMARK    3  A    between atoms: C_7  and  N_8
REMARK    4  A    between atoms: C_12  and  C_13
REMARK    5  A    between atoms: C_14  and  C_15
REMARK    6  A    between atoms: C_15  and  O_17
REMARK    7  A    between atoms: C_21  and  N_22
REMARK                            x       y       z     vdW  Elec       q    Type
REMARK                         _______ _______ _______ _____ _____    ______ ____
ROOT
ATOM      1  C   UNL     1       6.469   5.126  17.178  0.00  0.00    +0.000 A 
ATOM      2  C   UNL     1       7.504   5.004  16.226  0.00  0.00    +0.000 A 
ATOM      3  C   UNL     1       7.228   4.583  14.933  0.00  0.00    +0.000 A 
ATOM      4  C   UNL     1       5.906   4.320  14.582  0.00  0.00    +0.000 A 
ATOM      5  C   UNL     1       4.861   4.539  15.505  0.00  0.00    +0.000 A 
ATOM      6  C   UNL     1       5.103   4.892  16.858  0.00  0.00    +0.000 A 
ENDROOT
BRANCH   6   7
ATOM      7  C   UNL     1       3.947   4.958  17.844  0.00  0.00    +0.000 A 
ATOM      8  C   UNL     1       3.424   3.831  18.535  0.00  0.00    +0.000 A 
ATOM      9  C   UNL     1       2.307   3.910  19.404  0.00  0.00    +0.000 A 
ATOM     10  C   UNL     1       1.680   5.124  19.655  0.00  0.00    +0.000 A 
ATOM     11  C   UNL     1       2.173   6.264  19.051  0.00  0.00    +0.000 A 
ATOM     12  C   UNL     1       3.267   6.173  18.162  0.00  0.00    +0.000 A 
BRANCH  12  13
ATOM     13  N   UNL     1       3.656   7.455  17.583  0.00  0.00    +0.000 N 
ATOM     14  O   UNL     1       4.853   7.750  17.601  0.00  0.00    +0.000 OA
ATOM     15  O   UNL     1       2.745   8.137  17.106  0.00  0.00    +0.000 OA
ENDBRANCH  12  13
BRANCH   8  16
ATOM     16  C   UNL     1       4.073   2.490  18.488  0.00  0.00    +0.000 C 
ATOM     17  O   UNL     1       3.705   1.599  17.747  0.00  0.00    +0.000 OA
BRANCH  16  18
ATOM     18  O   UNL     1       5.084   2.358  19.370  0.00  0.00    +0.000 OA
ATOM     19  H   UNL     1       5.877   2.889  19.149  0.00  0.00    +0.000 HD
ENDBRANCH  16  18
ENDBRANCH   8  16
ENDBRANCH   6   7
BRANCH   4  20
ATOM     20  N   UNL     1       5.616   3.739  13.262  0.00  0.00    +0.000 N 
ATOM     21  O   UNL     1       4.429   3.679  12.911  0.00  0.00    +0.000 OA
ATOM     22  O   UNL     1       6.574   3.362  12.576  0.00  0.00    +0.000 OA
ENDBRANCH   4  20
BRANCH   1  24
ATOM     23  O   UNL     1       6.665   4.710  19.523  0.00  0.00    +0.000 OA
ATOM     24  C   UNL     1       6.929   5.418  18.563  0.00  0.00    +0.000 C 
BRANCH  24  25
ATOM     25  O   UNL     1       7.630   6.573  18.653  0.00  0.00    +0.000 OA
ATOM     26  H   UNL     1       7.104   7.349  18.903  0.00  0.00    +0.000 HD
ENDBRANCH  24  25
ENDBRANCH   1  24
TORSDOF 7
ENDMDL
MODEL 5
REMARK VINA RESULT:      -6.4      1.077      3.120
REMARK  Name = 
REMARK  7 active torsions:
REMARK  status: ('A' for Active; 'I' for Inactive)
REMARK    1  A    between atoms: C_2  and  O_3
REMARK    2  A    between atoms: C_2  and  C_4
REMARK    3  A    between atoms: C_7  and  N_8
REMARK    4  A    between atoms: C_12  and  C_13
REMARK    5  A    between atoms: C_14  and  C_15
REMARK    6  A    between atoms: C_15  and  O_17
REMARK    7  A    between atoms: C_21  and  N_22
REMARK                            x       y       z     vdW  Elec       q    Type
REMARK                         _______ _______ _______ _____ _____    ______ ____
ROOT
ATOM      1  C   UNL     1       4.383   3.730  17.226  0.00  0.00    +0.000 A 
ATOM      2  C   UNL     1       5.312   4.012  16.201  0.00  0.00    +0.000 A 
ATOM      3  C   UNL     1       6.396   4.843  16.441  0.00  0.00    +0.000 A 
ATOM      4  C   UNL     1       6.572   5.363  17.721  0.00  0.00    +0.000 A 
ATOM      5  C   UNL     1       5.700   5.000  18.770  0.00  0.00    +0.000 A 
ATOM      6  C   UNL     1       4.535   4.219  18.553  0.00  0.00    +0.000 A 
ENDROOT
BRANCH   6   7
ATOM      7  C   UNL     1       3.549   3.995  19.689  0.00  0.00    +0.000 A 
ATOM      8  C   UNL     1       2.526   4.913  20.049  0.00  0.00    +0.000 A 
ATOM      9  C   UNL     1       1.657   4.707  21.151  0.00  0.00    +0.000 A 
ATOM     10  C   UNL     1       1.743   3.557  21.924  0.00  0.00    +0.000 A 
ATOM     11  C   UNL     1       2.687   2.603  21.595  0.00  0.00    +0.000 A 
ATOM     12  C   UNL     1       3.569   2.829  20.515  0.00  0.00    +0.000 A 
BRANCH  12  13
ATOM     13  N   UNL     1       4.525   1.746  20.307  0.00  0.00    +0.000 N 
ATOM     14  O   UNL     1       5.418   1.604  21.144  0.00  0.00    +0.000 OA
ATOM     15  O   UNL     1       4.346   1.046  19.306  0.00  0.00    +0.000 OA
ENDBRANCH  12  13
BRANCH   8  16
ATOM     16  C   UNL     1       2.208   6.119  19.232  0.00  0.00    +0.000 C 
ATOM     17  O   UNL     1       2.351   7.255  19.642  0.00  0.00    +0.000 OA
BRANCH  16  18
ATOM     18  O   UNL     1       1.718   5.820  18.013  0.00  0.00    +0.000 OA
ATOM     19  H   UNL     1       1.481   6.604  17.476  0.00  0.00    +0.000 HD
ENDBRANCH  16  18
ENDBRANCH   8  16
ENDBRANCH   6   7
BRANCH   4  20
ATOM     20  N   UNL     1       7.633   6.355  17.954  0.00  0.00    +0.000 N 
ATOM     21  O   UNL     1       8.208   6.332  19.051  0.00  0.00    +0.000 OA
ATOM     22  O   UNL     1       7.899   7.139  17.035  0.00  0.00    +0.000 OA
ENDBRANCH   4  20
BRANCH   1  24
ATOM     23  O   UNL     1       2.164   3.501  16.369  0.00  0.00    +0.000 OA
ATOM     24  C   UNL     1       3.182   2.970  16.785  0.00  0.00    +0.000 C 
BRANCH  24  25
ATOM     25  O   UNL     1       3.321   1.631  16.938  0.00  0.00    +0.000 OA
ATOM     26  H   UNL     1       3.611   1.160  16.141  0.00  0.00    +0.000 HD
ENDBRANCH  24  25
ENDBRANCH   1  24
TORSDOF 7
ENDMDL
MODEL 6
REMARK VINA RESULT:      -6.3      2.420      4.700
REMARK  Name = 
REMARK  7 active torsions:
REMARK  status: ('A' for Active; 'I' for Inactive)
REMARK    1  A    between atoms: C_2  and  O_3
REMARK    2  A    between atoms: C_2  and  C_4
REMARK    3  A    between atoms: C_7  and  N_8
REMARK    4  A    between atoms: C_12  and  C_13
REMARK    5  A    between atoms: C_14  and  C_15
REMARK    6  A    between atoms: C_15  and  O_17
REMARK    7  A    between atoms: C_21  and  N_22
REMARK                            x       y       z     vdW  Elec       q    Type
REMARK                         _______ _______ _______ _____ _____    ______ ____
ROOT
ATOM      1  C   UNL     1       6.450   5.190  17.700  0.00  0.00    +0.000 A 
ATOM      2  C   UNL     1       7.501   5.111  16.761  0.00  0.00    +0.000 A 
ATOM      3  C   UNL     1       7.251   4.719  15.454  0.00  0.00    +0.000 A 
ATOM      4  C   UNL     1       5.940   4.442  15.076  0.00  0.00    +0.000 A 
ATOM      5  C   UNL     1       4.877   4.619  15.988  0.00  0.00    +0.000 A 
ATOM      6  C   UNL     1       5.093   4.940  17.353  0.00  0.00    +0.000 A 
ENDROOT
BRANCH   6   7
ATOM      7  C   UNL     1       3.922   4.959  18.324  0.00  0.00    +0.000 A 
ATOM      8  C   UNL     1       3.156   6.118  18.625  0.00  0.00    +0.000 A 
ATOM      9  C   UNL     1       2.107   6.122  19.579  0.00  0.00    +0.000 A 
ATOM     10  C   UNL     1       1.747   4.962  20.251  0.00  0.00    +0.000 A 
ATOM     11  C   UNL     1       2.422   3.791  19.966  0.00  0.00    +0.000 A 
ATOM     12  C   UNL     1       3.486   3.801  19.038  0.00  0.00    +0.000 A 
BRANCH  12  13
ATOM     13  N   UNL     1       4.119   2.497  18.862  0.00  0.00    +0.000 N 
ATOM     14  O   UNL     1       4.954   2.150  19.699  0.00  0.00    +0.000 OA
ATOM     15  O   UNL     1       3.748   1.838  17.887  0.00  0.00    +0.000 OA
ENDBRANCH  12  13
BRANCH   8  16
ATOM     16  C   UNL     1       3.319   7.401  17.884  0.00  0.00    +0.000 C 
ATOM     17  O   UNL     1       4.392   7.797  17.469  0.00  0.00    +0.000 OA
BRANCH  16  18
ATOM     18  O   UNL     1       2.167   8.088  17.752  0.00  0.00    +0.000 OA
ATOM     19  H   UNL     1       1.641   7.836  16.965  0.00  0.00    +0.000 HD
ENDBRANCH  16  18
ENDBRANCH   8  16
ENDBRANCH   6   7
BRANCH   4  20
ATOM     20  N   UNL     1       5.679   3.891  13.737  0.00  0.00    +0.000 N 
ATOM     21  O   UNL     1       4.497   3.788  13.380  0.00  0.00    +0.000 OA
ATOM     22  O   UNL     1       6.655   3.583  13.042  0.00  0.00    +0.000 OA
ENDBRANCH   4  20
BRANCH   1  24
ATOM     23  O   UNL     1       6.336   4.965  20.077  0.00  0.00    +0.000 OA
ATOM     24  C   UNL     1       6.884   5.453  19.099  0.00  0.00    +0.000 C 
BRANCH  24  25
ATOM     25  O   UNL     1       7.918   6.323  19.175  0.00  0.00    +0.000 OA
ATOM     26  H   UNL     1       8.794   5.909  19.231  0.00  0.00    +0.000 HD
ENDBRANCH  24  25
ENDBRANCH   1  24
TORSDOF 7
ENDMDL
MODEL 7
REMARK VINA RESULT:      -6.2      1.471      3.337
REMARK  Name = 
REMARK  7 active torsions:
REMARK  status: ('A' for Active; 'I' for Inactive)
REMARK    1  A    between atoms: C_2  and  O_3
REMARK    2  A    between atoms: C_2  and  C_4
REMARK    3  A    between atoms: C_7  and  N_8
REMARK    4  A    between atoms: C_12  and  C_13
REMARK    5  A    between atoms: C_14  and  C_15
REMARK    6  A    between atoms: C_15  and  O_17
REMARK    7  A    between atoms: C_21  and  N_22
REMARK                            x       y       z     vdW  Elec       q    Type
REMARK                         _______ _______ _______ _____ _____    ______ ____
ROOT
ATOM      1  C   UNL     1       4.983   4.330  17.260  0.00  0.00    +0.000 A 
ATOM      2  C   UNL     1       6.189   4.708  16.632  0.00  0.00    +0.000 A 
ATOM      3  C   UNL     1       7.226   5.260  17.370  0.00  0.00    +0.000 A 
ATOM      4  C   UNL     1       7.068   5.400  18.747  0.00  0.00    +0.000 A 
ATOM      5  C   UNL     1       5.901   4.929  19.388  0.00  0.00    +0.000 A 
ATOM      6  C   UNL     1       4.786   4.432  18.665  0.00  0.00    +0.000 A 
ENDROOT
BRANCH   6   7
ATOM      7  C   UNL     1       3.497   4.090  19.397  0.00  0.00    +0.000 A 
ATOM      8  C   UNL     1       2.490   5.038  19.721  0.00  0.00    +0.000 A 
ATOM      9  C   UNL     1       1.325   4.703  20.457  0.00  0.00    +0.000 A 
ATOM     10  C   UNL     1       1.091   3.400  20.874  0.00  0.00    +0.000 A 
ATOM     11  C   UNL     1       2.012   2.422  20.548  0.00  0.00    +0.000 A 
ATOM     12  C   UNL     1       3.185   2.768  19.841  0.00  0.00    +0.000 A 
BRANCH  12  13
ATOM     13  N   UNL     1       4.072   1.636  19.594  0.00  0.00    +0.000 N 
ATOM     14  O   UNL     1       3.833   0.927  18.614  0.00  0.00    +0.000 OA
ATOM     15  O   UNL     1       5.006   1.491  20.387  0.00  0.00    +0.000 OA
ENDBRANCH  12  13
BRANCH   8  16
ATOM     16  C   UNL     1       2.518   6.441  19.219  0.00  0.00    +0.000 C 
ATOM     17  O   UNL     1       2.606   6.724  18.040  0.00  0.00    +0.000 OA
BRANCH  16  18
ATOM     18  O   UNL     1       2.471   7.358  20.206  0.00  0.00    +0.000 OA
ATOM     19  H   UNL     1       1.991   8.177  19.966  0.00  0.00    +0.000 HD
ENDBRANCH  16  18
ENDBRANCH   8  16
ENDBRANCH   6   7
BRANCH   4  20
ATOM     20  N   UNL     1       8.098   6.111  19.520  0.00  0.00    +0.000 N 
ATOM     21  O   UNL     1       8.457   5.609  20.594  0.00  0.00    +0.000 OA
ATOM     22  O   UNL     1       8.555   7.157  19.043  0.00  0.00    +0.000 OA
ENDBRANCH   4  20
BRANCH   1  24
ATOM     23  O   UNL     1       2.806   3.518  16.699  0.00  0.00    +0.000 OA
ATOM     24  C   UNL     1       3.900   3.916  16.327  0.00  0.00    +0.000 C 
BRANCH  24  25
ATOM     25  O   UNL     1       4.270   3.983  15.026  0.00  0.00    +0.000 OA
ATOM     26  H   UNL     1       4.011   4.800  14.571  0.00  0.00    +0.000 HD
ENDBRANCH  24  25
ENDBRANCH   1  24
TORSDOF 7
ENDMDL
MODEL 8
REMARK VINA RESULT:      -6.1      0.876      1.096
REMARK  Name = 
REMARK  7 active torsions:
REMARK  status: ('A' for Active; 'I' for Inactive)
REMARK    1  A    between atoms: C_2  and  O_3
REMARK    2  A    between atoms: C_2  and  C_4
REMARK    3  A    between atoms: C_7  and  N_8
REMARK    4  A    between atoms: C_12  and  C_13
REMARK    5  A    between atoms: C_14  and  C_15
REMARK    6  A    between atoms: C_15  and  O_17
REMARK    7  A    between atoms: C_21  and  N_22
REMARK                            x       y       z     vdW  Elec       q    Type
REMARK                         _______ _______ _______ _____ _____    ______ ____
ROOT
ATOM      1  C   UNL     1       4.933   4.172  17.260  0.00  0.00    +0.000 A 
ATOM      2  C   UNL     1       6.087   4.561  16.548  0.00  0.00    +0.000 A 
ATOM      3  C   UNL     1       7.147   5.174  17.202  0.00  0.00    +0.000 A 
ATOM      4  C   UNL     1       7.065   5.362  18.579  0.00  0.00    +0.000 A 
ATOM      5  C   UNL     1       5.954   4.881  19.305  0.00  0.00    +0.000 A 
ATOM      6  C   UNL     1       4.815   4.322  18.669  0.00  0.00    +0.000 A 
ENDROOT
BRANCH   6   7
ATOM      7  C   UNL     1       3.583   3.969  19.489  0.00  0.00    +0.000 A 
ATOM      8  C   UNL     1       3.388   2.719  20.135  0.00  0.00    +0.000 A 
ATOM      9  C   UNL     1       2.204   2.394  20.843  0.00  0.00    +0.000 A 
ATOM     10  C   UNL     1       1.172   3.314  20.974  0.00  0.00    +0.000 A 
ATOM     11  C   UNL     1       1.323   4.566  20.409  0.00  0.00    +0.000 A 
ATOM     12  C   UNL     1       2.492   4.872  19.678  0.00  0.00    +0.000 A 
BRANCH  12  13
ATOM     13  N   UNL     1       2.495   6.221  19.120  0.00  0.00    +0.000 N 
ATOM     14  O   UNL     1       2.285   6.339  17.911  0.00  0.00    +0.000 OA
ATOM     15  O   UNL     1       2.695   7.140  19.917  0.00  0.00    +0.000 OA
ENDBRANCH  12  13
BRANCH   8  16
ATOM     16  C   UNL     1       4.456   1.682  20.215  0.00  0.00    +0.000 C 
ATOM     17  O   UNL     1       5.216   1.582  21.159  0.00  0.00    +0.000 OA
BRANCH  16  18
ATOM     18  O   UNL     1       4.512   0.892  19.124  0.00  0.00    +0.000 OA
ATOM     19  H   UNL     1       4.062   1.265  18.338  0.00  0.00    +0.000 HD
ENDBRANCH  16  18
ENDBRANCH   8  16
ENDBRANCH   6   7
BRANCH   4  20
ATOM     20  N   UNL     1       8.114   6.134  19.262  0.00  0.00    +0.000 N 
ATOM     21  O   UNL     1       8.657   5.616  20.249  0.00  0.00    +0.000 OA
ATOM     22  O   UNL     1       8.404   7.245  18.801  0.00  0.00    +0.000 OA
ENDBRANCH   4  20
BRANCH   1  24
ATOM     23  O   UNL     1       2.792   3.187  16.860  0.00  0.00    +0.000 OA
ATOM     24  C   UNL     1       3.812   3.688  16.409  0.00  0.00    +0.000 C 
BRANCH  24  25
ATOM     25  O   UNL     1       4.060   3.820  15.084  0.00  0.00    +0.000 OA
ATOM     26  H   UNL     1       4.987   4.001  14.861  0.00  0.00    +0.000 HD
ENDBRANCH  24  25
ENDBRANCH   1  24
TORSDOF 7
ENDMDL
MODEL 9
REMARK VINA RESULT:      -6.0      2.063      3.307
REMARK  Name = 
REMARK  7 active torsions:
REMARK  status: ('A' for Active; 'I' for Inactive)
REMARK    1  A    between atoms: C_2  and  O_3
REMARK    2  A    between atoms: C_2  and  C_4
REMARK    3  A    between atoms: C_7  and  N_8
REMARK    4  A    between atoms: C_12  and  C_13
REMARK    5  A    between atoms: C_14  and  C_15
REMARK    6  A    between atoms: C_15  and  O_17
REMARK    7  A    between atoms: C_21  and  N_22
REMARK                            x       y       z     vdW  Elec       q    Type
REMARK                         _______ _______ _______ _____ _____    ______ ____
ROOT
ATOM      1  C   UNL     1       6.024   4.768  18.053  0.00  0.00    +0.000 A 
ATOM      2  C   UNL     1       7.153   5.000  17.239  0.00  0.00    +0.000 A 
ATOM      3  C   UNL     1       7.083   4.817  15.865  0.00  0.00    +0.000 A 
ATOM      4  C   UNL     1       5.868   4.436  15.301  0.00  0.00    +0.000 A 
ATOM      5  C   UNL     1       4.714   4.302  16.104  0.00  0.00    +0.000 A 
ATOM      6  C   UNL     1       4.757   4.402  17.519  0.00  0.00    +0.000 A 
ENDROOT
BRANCH   6   7
ATOM      7  C   UNL     1       3.516   4.091  18.341  0.00  0.00    +0.000 A 
ATOM      8  C   UNL     1       3.167   2.790  18.795  0.00  0.00    +0.000 A 
ATOM      9  C   UNL     1       1.973   2.517  19.509  0.00  0.00    +0.000 A 
ATOM     10  C   UNL     1       1.086   3.535  19.836  0.00  0.00    +0.000 A 
ATOM     11  C   UNL     1       1.393   4.829  19.464  0.00  0.00    +0.000 A 
ATOM     12  C   UNL     1       2.570   5.089  18.727  0.00  0.00    +0.000 A 
BRANCH  12  13
ATOM     13  N   UNL     1       2.744   6.498  18.384  0.00  0.00    +0.000 N 
ATOM     14  O   UNL     1       2.142   6.924  17.396  0.00  0.00    +0.000 OA
ATOM     15  O   UNL     1       3.476   7.154  19.130  0.00  0.00    +0.000 OA
ENDBRANCH  12  13
BRANCH   8  16
ATOM     16  C   UNL     1       4.081   1.621  18.655  0.00  0.00    +0.000 C 
ATOM     17  O   UNL     1       4.005   0.825  17.739  0.00  0.00    +0.000 OA
BRANCH  16  18
ATOM     18  O   UNL     1       4.973   1.520  19.661  0.00  0.00    +0.000 OA
ATOM     19  H   UNL     1       5.831   1.130  19.395  0.00  0.00    +0.000 HD
ENDBRANCH  16  18
ENDBRANCH   8  16
ENDBRANCH   6   7
BRANCH   4  20
ATOM     20  N   UNL     1       5.813   4.101  13.870  0.00  0.00    +0.000 N 
ATOM     21  O   UNL     1       4.717   3.760  13.403  0.00  0.00    +0.000 OA
ATOM     22  O   UNL     1       6.859   4.197  13.217  0.00  0.00    +0.000 OA
ENDBRANCH   4  20
BRANCH   1  24
ATOM     23  O   UNL     1       5.593   4.277  20.352  0.00  0.00    +0.000 OA
ATOM     24  C   UNL     1       6.287   4.835  19.516  0.00  0.00    +0.000 C 
BRANCH  24  25
ATOM     25  O   UNL     1       7.350   5.616  19.825  0.00  0.00    +0.000 OA
ATOM     26  H   UNL     1       8.214   5.231  19.608  0.00  0.00    +0.000 HD
ENDBRANCH  24  25
ENDBRANCH   1  24
TORSDOF 7
ENDMDL
