MODEL 1
REMARK VINA RESULT:      -8.7      0.000      0.000
REMARK  Name = 
REMARK  7 active torsions:
REMARK  status: ('A' for Active; 'I' for Inactive)
REMARK    1  A    between atoms: C_1  and  C_2
REMARK    2  A    between atoms: C_5  and  C_6
REMARK    3  A    between atoms: C_7  and  N_8
REMARK    4  A    between atoms: C_9  and  C_11
REMARK    5  A    between atoms: N_15  and  C_16
REMARK    6  A    between atoms: C_16  and  C_17
REMARK    7  A    between atoms: C_20  and  N_21
REMARK                            x       y       z     vdW  Elec       q    Type
REMARK                         _______ _______ _______ _____ _____    ______ ____
ROOT
ATOM      1  C   UNL     1       7.838   7.789  18.207  0.00  0.00    +0.000 A 
ATOM      2  C   UNL     1       8.425   6.857  19.060  0.00  0.00    +0.000 A 
ATOM      3  C   UNL     1       7.967   5.543  19.032  0.00  0.00    +0.000 A 
ATOM      4  C   UNL     1       6.961   5.179  18.141  0.00  0.00    +0.000 A 
ATOM      5  N   UNL     1       6.416   6.092  17.300  0.00  0.00    +0.000 N 
ATOM      6  C   UNL     1       6.811   7.391  17.349  0.00  0.00    +0.000 A 
ENDROOT
BRANCH   1   8
ATOM      7  N   UNL     1       9.217   9.566  19.098  0.00  0.00    +0.000 N 
ATOM      8  C   UNL     1       8.251   9.210  18.178  0.00  0.00    +0.000 C 
ATOM      9  O   UNL     1       7.795   9.895  17.275  0.00  0.00    +0.000 OA
ATOM     10  H   UNL     1       9.741   8.823  19.544  0.00  0.00    +0.000 HD
BRANCH   7  17
ATOM     11  C   UNL     1      11.771  13.153  16.794  0.00  0.00    +0.000 C 
ATOM     12  C   UNL     1      11.092  12.612  18.016  0.00  0.00    +0.000 A 
ATOM     13  C   UNL     1      10.976  13.394  19.168  0.00  0.00    +0.000 A 
ATOM     14  C   UNL     1      10.304  12.908  20.284  0.00  0.00    +0.000 A 
ATOM     15  C   UNL     1       9.713  11.637  20.274  0.00  0.00    +0.000 A 
ATOM     16  C   UNL     1       9.051  11.137  21.528  0.00  0.00    +0.000 C 
ATOM     17  C   UNL     1       9.839  10.837  19.124  0.00  0.00    +0.000 A 
ATOM     18  C   UNL     1      10.539  11.319  18.012  0.00  0.00    +0.000 A 
ENDBRANCH   7  17
ENDBRANCH   1   8
BRANCH   5  19
ATOM     19  C   UNL     1       5.424   5.654  16.277  0.00  0.00    +0.000 C 
BRANCH  19  20
ATOM     20  C   UNL     1       4.209   5.034  16.919  0.00  0.00    +0.000 A 
ATOM     21  C   UNL     1       3.339   5.819  17.696  0.00  0.00    +0.000 A 
ATOM     22  C   UNL     1       2.264   5.233  18.372  0.00  0.00    +0.000 A 
ATOM     23  C   UNL     1       2.051   3.853  18.274  0.00  0.00    +0.000 A 
ATOM     24  C   UNL     1       2.871   3.069  17.454  0.00  0.00    +0.000 A 
ATOM     25  C   UNL     1       3.944   3.661  16.778  0.00  0.00    +0.000 A 
BRANCH  23  26
ATOM     26  N   UNL     1       0.993   3.217  19.070  0.00  0.00    +0.000 N 
ATOM     27  O   UNL     1       0.346   2.306  18.537  0.00  0.00    +0.000 OA
ATOM     28  O   UNL     1       0.798   3.654  20.212  0.00  0.00    +0.000 OA
ENDBRANCH  23  26
ENDBRANCH  19  20
ENDBRANCH   5  19
TORSDOF 5
ENDMDL
MODEL 2
REMARK VINA RESULT:      -8.5      5.390      8.199
REMARK  Name = 
REMARK  7 active torsions:
REMARK  status: ('A' for Active; 'I' for Inactive)
REMARK    1  A    between atoms: C_1  and  C_2
REMARK    2  A    between atoms: C_5  and  C_6
REMARK    3  A    between atoms: C_7  and  N_8
REMARK    4  A    between atoms: C_9  and  C_11
REMARK    5  A    between atoms: N_15  and  C_16
REMARK    6  A    between atoms: C_16  and  C_17
REMARK    7  A    between atoms: C_20  and  N_21
REMARK                            x       y       z     vdW  Elec       q    Type
REMARK                         _______ _______ _______ _____ _____    ______ ____
ROOT
ATOM      1  C   UNL     1       2.351   7.272  18.978  0.00  0.00    +0.000 A 
ATOM      2  C   UNL     1       1.977   7.004  20.292  0.00  0.00    +0.000 A 
ATOM      3  C   UNL     1       1.300   7.986  21.009  0.00  0.00    +0.000 A 
ATOM      4  C   UNL     1       0.985   9.197  20.397  0.00  0.00    +0.000 A 
ATOM      5  N   UNL     1       1.336   9.434  19.109  0.00  0.00    +0.000 N 
ATOM      6  C   UNL     1       2.044   8.509  18.410  0.00  0.00    +0.000 A 
ENDROOT
BRANCH   1   8
ATOM      7  N   UNL     1       4.384   6.637  17.829  0.00  0.00    +0.000 N 
ATOM      8  C   UNL     1       3.086   6.292  18.145  0.00  0.00    +0.000 C 
ATOM      9  O   UNL     1       2.522   5.231  17.923  0.00  0.00    +0.000 OA
ATOM     10  H   UNL     1       4.819   7.379  18.365  0.00  0.00    +0.000 HD
BRANCH   7  17
ATOM     11  C   UNL     1       5.801   4.218  13.727  0.00  0.00    +0.000 C 
ATOM     12  C   UNL     1       6.002   4.569  15.170  0.00  0.00    +0.000 A 
ATOM     13  C   UNL     1       7.132   4.125  15.859  0.00  0.00    +0.000 A 
ATOM     14  C   UNL     1       7.340   4.492  17.183  0.00  0.00    +0.000 A 
ATOM     15  C   UNL     1       6.434   5.329  17.851  0.00  0.00    +0.000 A 
ATOM     16  C   UNL     1       6.675   5.645  19.301  0.00  0.00    +0.000 C 
ATOM     17  C   UNL     1       5.284   5.767  17.170  0.00  0.00    +0.000 A 
ATOM     18  C   UNL     1       5.066   5.374  15.845  0.00  0.00    +0.000 A 
ENDBRANCH   7  17
ENDBRANCH   1   8
BRANCH   5  19
ATOM     19  C   UNL     1       0.888  10.689  18.441  0.00  0.00    +0.000 C 
BRANCH  19  20
ATOM     20  C   UNL     1      -0.615  10.761  18.356  0.00  0.00    +0.000 A 
ATOM     21  C   UNL     1      -1.323   9.864  17.537  0.00  0.00    +0.000 A 
ATOM     22  C   UNL     1      -2.707   9.985  17.379  0.00  0.00    +0.000 A 
ATOM     23  C   UNL     1      -3.395  11.009  18.040  0.00  0.00    +0.000 A 
ATOM     24  C   UNL     1      -2.714  11.871  18.906  0.00  0.00    +0.000 A 
ATOM     25  C   UNL     1      -1.329  11.744  19.064  0.00  0.00    +0.000 A 
BRANCH  23  26
ATOM     26  N   UNL     1      -4.828  11.209  17.788  0.00  0.00    +0.000 N 
ATOM     27  O   UNL     1      -5.621  10.455  18.367  0.00  0.00    +0.000 OA
ATOM     28  O   UNL     1      -5.148  12.101  16.991  0.00  0.00    +0.000 OA
ENDBRANCH  23  26
ENDBRANCH  19  20
ENDBRANCH   5  19
TORSDOF 5
ENDMDL
MODEL 3
REMARK VINA RESULT:      -8.4      0.332      1.147
REMARK  Name = 
REMARK  7 active torsions:
REMARK  status: ('A' for Active; 'I' for Inactive)
REMARK    1  A    between atoms: C_1  and  C_2
REMARK    2  A    between atoms: C_5  and  C_6
REMARK    3  A    between atoms: C_7  and  N_8
REMARK    4  A    between atoms: C_9  and  C_11
REMARK    5  A    between atoms: N_15  and  C_16
REMARK    6  A    between atoms: C_16  and  C_17
REMARK    7  A    between atoms: C_20  and  N_21
REMARK                            x       y       z     vdW  Elec       q    Type
REMARK                         _______ _______ _______ _____ _____    ______ ____
ROOT
ATOM      1  C   UNL     1       7.741   7.947  18.126  0.00  0.00    +0.000 A 
ATOM      2  C   UNL     1       8.440   6.983  18.847  0.00  0.00    +0.000 A 
ATOM      3  C   UNL     1       7.971   5.673  18.841  0.00  0.00    +0.000 A 
ATOM      4  C   UNL     1       6.841   5.345  18.096  0.00  0.00    +0.000 A 
ATOM      5  N   UNL     1       6.185   6.291  17.380  0.00  0.00    +0.000 N 
ATOM      6  C   UNL     1       6.594   7.585  17.417  0.00  0.00    +0.000 A 
ENDROOT
BRANCH   1   8
ATOM      7  N   UNL     1       9.177   9.711  18.952  0.00  0.00    +0.000 N 
ATOM      8  C   UNL     1       8.158   9.368  18.087  0.00  0.00    +0.000 C 
ATOM      9  O   UNL     1       7.652  10.064  17.219  0.00  0.00    +0.000 OA
ATOM     10  H   UNL     1       9.722   8.961  19.360  0.00  0.00    +0.000 HD
BRANCH   7  17
ATOM     11  C   UNL     1      11.679  13.276  16.560  0.00  0.00    +0.000 C 
ATOM     12  C   UNL     1      11.033  12.744  17.804  0.00  0.00    +0.000 A 
ATOM     13  C   UNL     1      10.953  13.531  18.955  0.00  0.00    +0.000 A 
ATOM     14  C   UNL     1      10.312  13.053  20.092  0.00  0.00    +0.000 A 
ATOM     15  C   UNL     1       9.715  11.784  20.105  0.00  0.00    +0.000 A 
ATOM     16  C   UNL     1       9.087  11.293  21.379  0.00  0.00    +0.000 C 
ATOM     17  C   UNL     1       9.805  10.978  18.955  0.00  0.00    +0.000 A 
ATOM     18  C   UNL     1      10.475  11.453  17.821  0.00  0.00    +0.000 A 
ENDBRANCH   7  17
ENDBRANCH   1   8
BRANCH   5  19
ATOM     19  C   UNL     1       5.048   5.894  16.501  0.00  0.00    +0.000 C 
BRANCH  19  20
ATOM     20  C   UNL     1       4.027   5.080  17.254  0.00  0.00    +0.000 A 
ATOM     21  C   UNL     1       3.888   3.705  16.999  0.00  0.00    +0.000 A 
ATOM     22  C   UNL     1       2.882   2.963  17.624  0.00  0.00    +0.000 A 
ATOM     23  C   UNL     1       2.003   3.594  18.512  0.00  0.00    +0.000 A 
ATOM     24  C   UNL     1       2.167   4.949  18.823  0.00  0.00    +0.000 A 
ATOM     25  C   UNL     1       3.178   5.686  18.197  0.00  0.00    +0.000 A 
BRANCH  23  26
ATOM     26  N   UNL     1       0.875   2.845  19.083  0.00  0.00    +0.000 N 
ATOM     27  O   UNL     1       0.681   2.946  20.301  0.00  0.00    +0.000 OA
ATOM     28  O   UNL     1       0.210   2.140  18.313  0.00  0.00    +0.000 OA
ENDBRANCH  23  26
ENDBRANCH  19  20
ENDBRANCH   5  19
TORSDOF 5
ENDMDL
MODEL 4
REMARK VINA RESULT:      -8.3      5.334      7.753
REMARK  Name = 
REMARK  7 active torsions:
REMARK  status: ('A' for Active; 'I' for Inactive)
REMARK    1  A    between atoms: C_1  and  C_2
REMARK    2  A    between atoms: C_5  and  C_6
REMARK    3  A    between atoms: C_7  and  N_8
REMARK    4  A    between atoms: C_9  and  C_11
REMARK    5  A    between atoms: N_15  and  C_16
REMARK    6  A    between atoms: C_16  and  C_17
REMARK    7  A    between atoms: C_20  and  N_21
REMARK                            x       y       z     vdW  Elec       q    Type
REMARK                         _______ _______ _______ _____ _____    ______ ____
ROOT
ATOM      1  C   UNL     1       2.924   5.006  20.058  0.00  0.00    +0.000 A 
ATOM      2  C   UNL     1       2.834   3.672  20.447  0.00  0.00    +0.000 A 
ATOM      3  C   UNL     1       3.847   2.795  20.070  0.00  0.00    +0.000 A 
ATOM      4  C   UNL     1       4.938   3.267  19.346  0.00  0.00    +0.000 A 
ATOM      5  N   UNL     1       5.024   4.574  18.995  0.00  0.00    +0.000 N 
ATOM      6  C   UNL     1       4.019   5.434  19.305  0.00  0.00    +0.000 A 
ENDROOT
BRANCH   1   8
ATOM      7  N   UNL     1       2.275   7.325  20.288  0.00  0.00    +0.000 N 
ATOM      8  C   UNL     1       1.887   6.005  20.400  0.00  0.00    +0.000 C 
ATOM      9  O   UNL     1       0.766   5.576  20.628  0.00  0.00    +0.000 OA
ATOM     10  H   UNL     1       3.118   7.526  19.764  0.00  0.00    +0.000 HD
BRANCH   7  17
ATOM     11  C   UNL     1      -0.660  10.135  23.148  0.00  0.00    +0.000 C 
ATOM     12  C   UNL     1      -0.063   9.810  21.812  0.00  0.00    +0.000 A 
ATOM     13  C   UNL     1      -0.297  10.635  20.710  0.00  0.00    +0.000 A 
ATOM     14  C   UNL     1       0.296  10.358  19.484  0.00  0.00    +0.000 A 
ATOM     15  C   UNL     1       1.156   9.261  19.330  0.00  0.00    +0.000 A 
ATOM     16  C   UNL     1       1.723   8.972  17.967  0.00  0.00    +0.000 C 
ATOM     17  C   UNL     1       1.384   8.415  20.431  0.00  0.00    +0.000 A 
ATOM     18  C   UNL     1       0.763   8.683  21.656  0.00  0.00    +0.000 A 
ENDBRANCH   7  17
ENDBRANCH   1   8
BRANCH   5  19
ATOM     19  C   UNL     1       6.253   5.078  18.320  0.00  0.00    +0.000 C 
BRANCH  19  20
ATOM     20  C   UNL     1       6.289   4.677  16.868  0.00  0.00    +0.000 A 
ATOM     21  C   UNL     1       7.276   5.196  16.012  0.00  0.00    +0.000 A 
ATOM     22  C   UNL     1       7.259   4.903  14.645  0.00  0.00    +0.000 A 
ATOM     23  C   UNL     1       6.250   4.087  14.122  0.00  0.00    +0.000 A 
ATOM     24  C   UNL     1       5.295   3.513  14.971  0.00  0.00    +0.000 A 
ATOM     25  C   UNL     1       5.319   3.807  16.339  0.00  0.00    +0.000 A 
BRANCH  23  26
ATOM     26  N   UNL     1       6.162   3.869  12.672  0.00  0.00    +0.000 N 
ATOM     27  O   UNL     1       5.092   3.438  12.223  0.00  0.00    +0.000 OA
ATOM     28  O   UNL     1       7.173   4.103  11.998  0.00  0.00    +0.000 OA
ENDBRANCH  23  26
ENDBRANCH  19  20
ENDBRANCH   5  19
TORSDOF 5
ENDMDL
MODEL 5
REMARK VINA RESULT:      -8.2      6.279      9.214
REMARK  Name = 
REMARK  7 active torsions:
REMARK  status: ('A' for Active; 'I' for Inactive)
REMARK    1  A    between atoms: C_1  and  C_2
REMARK    2  A    between atoms: C_5  and  C_6
REMARK    3  A    between atoms: C_7  and  N_8
REMARK    4  A    between atoms: C_9  and  C_11
REMARK    5  A    between atoms: N_15  and  C_16
REMARK    6  A    between atoms: C_16  and  C_17
REMARK    7  A    between atoms: C_20  and  N_21
REMARK                            x       y       z     vdW  Elec       q    Type
REMARK                         _______ _______ _______ _____ _____    ______ ____
ROOT
ATOM      1  C   UNL     1       1.561   8.593  19.391  0.00  0.00    +0.000 A 
ATOM      2  C   UNL     1       1.201   8.150  20.661  0.00  0.00    +0.000 A 
ATOM      3  C   UNL     1       0.349   8.939  21.429  0.00  0.00    +0.000 A 
ATOM      4  C   UNL     1      -0.148  10.131  20.908  0.00  0.00    +0.000 A 
ATOM      5  N   UNL     1       0.193  10.537  19.660  0.00  0.00    +0.000 N 
ATOM      6  C   UNL     1       1.066   9.809  18.916  0.00  0.00    +0.000 A 
ENDROOT
BRANCH   1   8
ATOM      7  N   UNL     1       2.886   6.606  19.004  0.00  0.00    +0.000 N 
ATOM      8  C   UNL     1       2.473   7.827  18.511  0.00  0.00    +0.000 C 
ATOM      9  O   UNL     1       2.672   8.286  17.397  0.00  0.00    +0.000 OA
ATOM     10  H   UNL     1       2.371   6.213  19.783  0.00  0.00    +0.000 HD
BRANCH   7  17
ATOM     11  C   UNL     1       7.265   4.954  17.334  0.00  0.00    +0.000 C 
ATOM     12  C   UNL     1       5.773   4.842  17.417  0.00  0.00    +0.000 A 
ATOM     13  C   UNL     1       5.109   3.760  16.835  0.00  0.00    +0.000 A 
ATOM     14  C   UNL     1       3.730   3.633  16.954  0.00  0.00    +0.000 A 
ATOM     15  C   UNL     1       2.978   4.571  17.674  0.00  0.00    +0.000 A 
ATOM     16  C   UNL     1       1.483   4.419  17.721  0.00  0.00    +0.000 C 
ATOM     17  C   UNL     1       3.636   5.673  18.250  0.00  0.00    +0.000 A 
ATOM     18  C   UNL     1       5.022   5.811  18.105  0.00  0.00    +0.000 A 
ENDBRANCH   7  17
ENDBRANCH   1   8
BRANCH   5  19
ATOM     19  C   UNL     1      -0.441  11.756  19.081  0.00  0.00    +0.000 C 
BRANCH  19  20
ATOM     20  C   UNL     1      -1.924  11.566  18.889  0.00  0.00    +0.000 A 
ATOM     21  C   UNL     1      -2.404  10.619  17.967  0.00  0.00    +0.000 A 
ATOM     22  C   UNL     1      -3.775  10.504  17.714  0.00  0.00    +0.000 A 
ATOM     23  C   UNL     1      -4.677  11.339  18.382  0.00  0.00    +0.000 A 
ATOM     24  C   UNL     1      -4.220  12.243  19.348  0.00  0.00    +0.000 A 
ATOM     25  C   UNL     1      -2.848  12.352  19.600  0.00  0.00    +0.000 A 
BRANCH  23  26
ATOM     26  N   UNL     1      -6.104  11.299  18.037  0.00  0.00    +0.000 N 
ATOM     27  O   UNL     1      -6.525  12.154  17.246  0.00  0.00    +0.000 OA
ATOM     28  O   UNL     1      -6.800  10.432  18.583  0.00  0.00    +0.000 OA
ENDBRANCH  23  26
ENDBRANCH  19  20
ENDBRANCH   5  19
TORSDOF 5
ENDMDL
MODEL 6
REMARK VINA RESULT:      -8.2      5.262      7.757
REMARK  Name = 
REMARK  7 active torsions:
REMARK  status: ('A' for Active; 'I' for Inactive)
REMARK    1  A    between atoms: C_1  and  C_2
REMARK    2  A    between atoms: C_5  and  C_6
REMARK    3  A    between atoms: C_7  and  N_8
REMARK    4  A    between atoms: C_9  and  C_11
REMARK    5  A    between atoms: N_15  and  C_16
REMARK    6  A    between atoms: C_16  and  C_17
REMARK    7  A    between atoms: C_20  and  N_21
REMARK                            x       y       z     vdW  Elec       q    Type
REMARK                         _______ _______ _______ _____ _____    ______ ____
ROOT
ATOM      1  C   UNL     1       3.101   5.176  19.910  0.00  0.00    +0.000 A 
ATOM      2  C   UNL     1       3.111   3.831  20.272  0.00  0.00    +0.000 A 
ATOM      3  C   UNL     1       4.137   3.018  19.799  0.00  0.00    +0.000 A 
ATOM      4  C   UNL     1       5.144   3.564  19.007  0.00  0.00    +0.000 A 
ATOM      5  N   UNL     1       5.134   4.881  18.683  0.00  0.00    +0.000 N 
ATOM      6  C   UNL     1       4.112   5.678  19.088  0.00  0.00    +0.000 A 
ENDROOT
BRANCH   1   8
ATOM      7  N   UNL     1       2.315   7.450  20.163  0.00  0.00    +0.000 N 
ATOM      8  C   UNL     1       2.042   6.110  20.353  0.00  0.00    +0.000 C 
ATOM      9  O   UNL     1       0.992   5.611  20.726  0.00  0.00    +0.000 OA
ATOM     10  H   UNL     1       3.072   7.693  19.536  0.00  0.00    +0.000 HD
BRANCH   7  17
ATOM     11  C   UNL     1      -0.582  10.024  23.274  0.00  0.00    +0.000 C 
ATOM     12  C   UNL     1      -0.061   9.757  21.894  0.00  0.00    +0.000 A 
ATOM     13  C   UNL     1      -0.423  10.582  20.827  0.00  0.00    +0.000 A 
ATOM     14  C   UNL     1       0.099  10.362  19.558  0.00  0.00    +0.000 A 
ATOM     15  C   UNL     1       1.013   9.324  19.323  0.00  0.00    +0.000 A 
ATOM     16  C   UNL     1       1.499   9.093  17.919  0.00  0.00    +0.000 C 
ATOM     17  C   UNL     1       1.370   8.478  20.389  0.00  0.00    +0.000 A 
ATOM     18  C   UNL     1       0.821   8.688  21.659  0.00  0.00    +0.000 A 
ENDBRANCH   7  17
ENDBRANCH   1   8
BRANCH   5  19
ATOM     19  C   UNL     1       6.280   5.464  17.930  0.00  0.00    +0.000 C 
BRANCH  19  20
ATOM     20  C   UNL     1       6.228   5.093  16.471  0.00  0.00    +0.000 A 
ATOM     21  C   UNL     1       5.003   4.754  15.868  0.00  0.00    +0.000 A 
ATOM     22  C   UNL     1       4.960   4.318  14.541  0.00  0.00    +0.000 A 
ATOM     23  C   UNL     1       6.145   4.215  13.804  0.00  0.00    +0.000 A 
ATOM     24  C   UNL     1       7.364   4.607  14.370  0.00  0.00    +0.000 A 
ATOM     25  C   UNL     1       7.402   5.047  15.698  0.00  0.00    +0.000 A 
BRANCH  23  26
ATOM     26  N   UNL     1       6.118   3.651  12.448  0.00  0.00    +0.000 N 
ATOM     27  O   UNL     1       7.183   3.626  11.818  0.00  0.00    +0.000 OA
ATOM     28  O   UNL     1       5.026   3.263  12.013  0.00  0.00    +0.000 OA
ENDBRANCH  23  26
ENDBRANCH  19  20
ENDBRANCH   5  19
TORSDOF 5
ENDMDL
MODEL 7
REMARK VINA RESULT:      -8.2      5.006      7.903
REMARK  Name = 
REMARK  7 active torsions:
REMARK  status: ('A' for Active; 'I' for Inactive)
REMARK    1  A    between atoms: C_1  and  C_2
REMARK    2  A    between atoms: C_5  and  C_6
REMARK    3  A    between atoms: C_7  and  N_8
REMARK    4  A    between atoms: C_9  and  C_11
REMARK    5  A    between atoms: N_15  and  C_16
REMARK    6  A    between atoms: C_16  and  C_17
REMARK    7  A    between atoms: C_20  and  N_21
REMARK                            x       y       z     vdW  Elec       q    Type
REMARK                         _______ _______ _______ _____ _____    ______ ____
ROOT
ATOM      1  C   UNL     1       2.687   4.844  20.162  0.00  0.00    +0.000 A 
ATOM      2  C   UNL     1       2.417   3.494  20.374  0.00  0.00    +0.000 A 
ATOM      3  C   UNL     1       3.398   2.559  20.057  0.00  0.00    +0.000 A 
ATOM      4  C   UNL     1       4.630   2.985  19.569  0.00  0.00    +0.000 A 
ATOM      5  N   UNL     1       4.886   4.305  19.391  0.00  0.00    +0.000 N 
ATOM      6  C   UNL     1       3.923   5.230  19.642  0.00  0.00    +0.000 A 
ENDROOT
BRANCH   1   8
ATOM      7  N   UNL     1       2.178   7.199  20.383  0.00  0.00    +0.000 N 
ATOM      8  C   UNL     1       1.699   5.907  20.456  0.00  0.00    +0.000 C 
ATOM      9  O   UNL     1       0.541   5.551  20.613  0.00  0.00    +0.000 OA
ATOM     10  H   UNL     1       3.062   7.349  19.912  0.00  0.00    +0.000 HD
BRANCH   7  17
ATOM     11  C   UNL     1      -0.670  10.214  23.120  0.00  0.00    +0.000 C 
ATOM     12  C   UNL     1      -0.049   9.840  21.809  0.00  0.00    +0.000 A 
ATOM     13  C   UNL     1      -0.192  10.669  20.694  0.00  0.00    +0.000 A 
ATOM     14  C   UNL     1       0.426  10.344  19.491  0.00  0.00    +0.000 A 
ATOM     15  C   UNL     1       1.218   9.193  19.374  0.00  0.00    +0.000 A 
ATOM     16  C   UNL     1       1.813   8.857  18.034  0.00  0.00    +0.000 C 
ATOM     17  C   UNL     1       1.354   8.344  20.488  0.00  0.00    +0.000 A 
ATOM     18  C   UNL     1       0.709   8.662  21.689  0.00  0.00    +0.000 A 
ENDBRANCH   7  17
ENDBRANCH   1   8
BRANCH   5  19
ATOM     19  C   UNL     1       6.249   4.743  18.977  0.00  0.00    +0.000 C 
BRANCH  19  20
ATOM     20  C   UNL     1       6.381   4.788  17.476  0.00  0.00    +0.000 A 
ATOM     21  C   UNL     1       5.700   3.855  16.676  0.00  0.00    +0.000 A 
ATOM     22  C   UNL     1       5.892   3.831  15.291  0.00  0.00    +0.000 A 
ATOM     23  C   UNL     1       6.770   4.743  14.695  0.00  0.00    +0.000 A 
ATOM     24  C   UNL     1       7.408   5.718  15.471  0.00  0.00    +0.000 A 
ATOM     25  C   UNL     1       7.210   5.740  16.856  0.00  0.00    +0.000 A 
BRANCH  23  26
ATOM     26  N   UNL     1       7.060   4.649  13.258  0.00  0.00    +0.000 N 
ATOM     27  O   UNL     1       7.868   5.459  12.784  0.00  0.00    +0.000 OA
ATOM     28  O   UNL     1       6.457   3.784  12.610  0.00  0.00    +0.000 OA
ENDBRANCH  23  26
ENDBRANCH  19  20
ENDBRANCH   5  19
TORSDOF 5
ENDMDL
MODEL 8
REMARK VINA RESULT:      -8.1      3.749      7.939
REMARK  Name = 
REMARK  7 active torsions:
REMARK  status: ('A' for Active; 'I' for Inactive)
REMARK    1  A    between atoms: C_1  and  C_2
REMARK    2  A    between atoms: C_5  and  C_6
REMARK    3  A    between atoms: C_7  and  N_8
REMARK    4  A    between atoms: C_9  and  C_11
REMARK    5  A    between atoms: N_15  and  C_16
REMARK    6  A    between atoms: C_16  and  C_17
REMARK    7  A    between atoms: C_20  and  N_21
REMARK                            x       y       z     vdW  Elec       q    Type
REMARK                         _______ _______ _______ _____ _____    ______ ____
ROOT
ATOM      1  C   UNL     1       2.564   4.404  20.192  0.00  0.00    +0.000 A 
ATOM      2  C   UNL     1       2.701   3.333  21.073  0.00  0.00    +0.000 A 
ATOM      3  C   UNL     1       3.570   2.299  20.739  0.00  0.00    +0.000 A 
ATOM      4  C   UNL     1       4.305   2.366  19.557  0.00  0.00    +0.000 A 
ATOM      5  N   UNL     1       4.179   3.427  18.722  0.00  0.00    +0.000 N 
ATOM      6  C   UNL     1       3.295   4.420  19.004  0.00  0.00    +0.000 A 
ENDROOT
BRANCH   1   8
ATOM      7  N   UNL     1       2.235   6.791  20.413  0.00  0.00    +0.000 N 
ATOM      8  C   UNL     1       1.653   5.541  20.459  0.00  0.00    +0.000 C 
ATOM      9  O   UNL     1       0.466   5.276  20.571  0.00  0.00    +0.000 OA
ATOM     10  H   UNL     1       3.145   6.872  19.975  0.00  0.00    +0.000 HD
BRANCH   7  17
ATOM     11  C   UNL     1      -0.431  10.029  23.078  0.00  0.00    +0.000 C 
ATOM     12  C   UNL     1       0.189   9.603  21.781  0.00  0.00    +0.000 A 
ATOM     13  C   UNL     1       0.136  10.435  20.662  0.00  0.00    +0.000 A 
ATOM     14  C   UNL     1       0.753  10.059  19.474  0.00  0.00    +0.000 A 
ATOM     15  C   UNL     1       1.456   8.850  19.377  0.00  0.00    +0.000 A 
ATOM     16  C   UNL     1       2.053   8.464  18.052  0.00  0.00    +0.000 C 
ATOM     17  C   UNL     1       1.500   7.997  20.496  0.00  0.00    +0.000 A 
ATOM     18  C   UNL     1       0.855   8.368  21.681  0.00  0.00    +0.000 A 
ENDBRANCH   7  17
ENDBRANCH   1   8
BRANCH   5  19
ATOM     19  C   UNL     1       5.058   3.531  17.523  0.00  0.00    +0.000 C 
BRANCH  19  20
ATOM     20  C   UNL     1       5.894   4.784  17.560  0.00  0.00    +0.000 A 
ATOM     21  C   UNL     1       7.030   4.856  18.385  0.00  0.00    +0.000 A 
ATOM     22  C   UNL     1       7.755   6.046  18.497  0.00  0.00    +0.000 A 
ATOM     23  C   UNL     1       7.347   7.178  17.782  0.00  0.00    +0.000 A 
ATOM     24  C   UNL     1       6.254   7.105  16.909  0.00  0.00    +0.000 A 
ATOM     25  C   UNL     1       5.534   5.910  16.799  0.00  0.00    +0.000 A 
BRANCH  23  26
ATOM     26  N   UNL     1       8.036   8.459  17.982  0.00  0.00    +0.000 N 
ATOM     27  O   UNL     1       7.772   9.380  17.198  0.00  0.00    +0.000 OA
ATOM     28  O   UNL     1       8.859   8.526  18.905  0.00  0.00    +0.000 OA
ENDBRANCH  23  26
ENDBRANCH  19  20
ENDBRANCH   5  19
TORSDOF 5
ENDMDL
MODEL 9
REMARK VINA RESULT:      -8.0      5.909      9.021
REMARK  Name = 
REMARK  7 active torsions:
REMARK  status: ('A' for Active; 'I' for Inactive)
REMARK    1  A    between atoms: C_1  and  C_2
REMARK    2  A    between atoms: C_5  and  C_6
REMARK    3  A    between atoms: C_7  and  N_8
REMARK    4  A    between atoms: C_9  and  C_11
REMARK    5  A    between atoms: N_15  and  C_16
REMARK    6  A    between atoms: C_16  and  C_17
REMARK    7  A    between atoms: C_20  and  N_21
REMARK                            x       y       z     vdW  Elec       q    Type
REMARK                         _______ _______ _______ _____ _____    ______ ____
ROOT
ATOM      1  C   UNL     1       1.653   8.017  20.277  0.00  0.00    +0.000 A 
ATOM      2  C   UNL     1       1.331   8.188  21.621  0.00  0.00    +0.000 A 
ATOM      3  C   UNL     1       0.703   9.366  22.014  0.00  0.00    +0.000 A 
ATOM      4  C   UNL     1       0.381  10.331  21.062  0.00  0.00    +0.000 A 
ATOM      5  N   UNL     1       0.680  10.139  19.753  0.00  0.00    +0.000 N 
ATOM      6  C   UNL     1       1.343   9.021  19.358  0.00  0.00    +0.000 A 
ENDROOT
BRANCH   1   8
ATOM      7  N   UNL     1       2.709   6.844  18.443  0.00  0.00    +0.000 N 
ATOM      8  C   UNL     1       2.335   6.804  19.771  0.00  0.00    +0.000 C 
ATOM      9  O   UNL     1       2.607   5.945  20.596  0.00  0.00    +0.000 OA
ATOM     10  H   UNL     1       2.723   7.746  17.984  0.00  0.00    +0.000 HD
BRANCH   7  17
ATOM     11  C   UNL     1       7.112   5.254  16.774  0.00  0.00    +0.000 C 
ATOM     12  C   UNL     1       5.645   5.039  16.997  0.00  0.00    +0.000 A 
ATOM     13  C   UNL     1       5.052   3.813  16.690  0.00  0.00    +0.000 A 
ATOM     14  C   UNL     1       3.702   3.600  16.943  0.00  0.00    +0.000 A 
ATOM     15  C   UNL     1       2.911   4.599  17.527  0.00  0.00    +0.000 A 
ATOM     16  C   UNL     1       1.443   4.338  17.723  0.00  0.00    +0.000 C 
ATOM     17  C   UNL     1       3.496   5.844  17.825  0.00  0.00    +0.000 A 
ATOM     18  C   UNL     1       4.850   6.062  17.544  0.00  0.00    +0.000 A 
ENDBRANCH   7  17
ENDBRANCH   1   8
BRANCH   5  19
ATOM     19  C   UNL     1       0.225  11.132  18.739  0.00  0.00    +0.000 C 
BRANCH  19  20
ATOM     20  C   UNL     1      -1.273  11.105  18.575  0.00  0.00    +0.000 A 
ATOM     21  C   UNL     1      -1.876  10.164  17.721  0.00  0.00    +0.000 A 
ATOM     22  C   UNL     1      -3.255  10.193  17.491  0.00  0.00    +0.000 A 
ATOM     23  C   UNL     1      -4.043  11.167  18.115  0.00  0.00    +0.000 A 
ATOM     24  C   UNL     1      -3.467  12.071  19.015  0.00  0.00    +0.000 A 
ATOM     25  C   UNL     1      -2.087  12.036  19.245  0.00  0.00    +0.000 A 
BRANCH  23  26
ATOM     26  N   UNL     1      -5.471  11.273  17.788  0.00  0.00    +0.000 N 
ATOM     27  O   UNL     1      -5.805  12.120  16.950  0.00  0.00    +0.000 OA
ATOM     28  O   UNL     1      -6.252  10.527  18.394  0.00  0.00    +0.000 OA
ENDBRANCH  23  26
ENDBRANCH  19  20
ENDBRANCH   5  19
TORSDOF 5
ENDMDL
