MODEL 1
REMARK VINA RESULT:      -8.5      0.000      0.000
REMARK  Name = 
REMARK  9 active torsions:
REMARK  status: ('A' for Active; 'I' for Inactive)
REMARK    1  A    between atoms: C_1  and  C_2
REMARK    2  A    between atoms: C_5  and  C_6
REMARK    3  A    between atoms: C_8  and  C_9
REMARK    4  A    between atoms: C_9  and  S_10
REMARK    5  A    between atoms: S_10  and  C_13
REMARK    6  A    between atoms: C_13  and  C_14
REMARK    7  A    between atoms: N_16  and  C_17
REMARK    8  A    between atoms: C_17  and  C_18
REMARK    9  A    between atoms: C_25  and  C_26
REMARK                            x       y       z     vdW  Elec       q    Type
REMARK                         _______ _______ _______ _____ _____    ______ ____
ROOT
ATOM      1  S   UNL     1       1.818   3.721  20.487  0.00  0.00    +0.000 S 
ATOM      2  O   UNL     1       2.070   3.103  21.785  0.00  0.00    +0.000 OA
ATOM      3  O   UNL     1       0.534   4.346  20.242  0.00  0.00    +0.000 OA
ENDROOT
BRANCH   1   4
ATOM      4  C   UNL     1       3.063   4.988  20.248  0.00  0.00    +0.000 C 
BRANCH   4   7
ATOM      5  C   UNL     1       1.302   8.046  20.610  0.00  0.00    +0.000 A 
ATOM      6  N   UNL     1       1.714   6.895  21.082  0.00  0.00    +0.000 NA
ATOM      7  C   UNL     1       2.478   6.339  20.064  0.00  0.00    +0.000 A 
ATOM      8  C   UNL     1       2.524   7.238  19.001  0.00  0.00    +0.000 A 
ATOM      9  C   UNL     1       3.159   7.350  17.668  0.00  0.00    +0.000 C 
ATOM     10  O   UNL     1       1.755   8.312  19.345  0.00  0.00    +0.000 OA
BRANCH   5  15
ATOM     11  C   UNL     1      -1.792  12.313  23.024  0.00  0.00    +0.000 C 
ATOM     12  C   UNL     1      -1.032  11.177  22.403  0.00  0.00    +0.000 A 
ATOM     13  C   UNL     1      -0.574  10.104  23.176  0.00  0.00    +0.000 A 
ATOM     14  C   UNL     1       0.169   9.068  22.588  0.00  0.00    +0.000 A 
ATOM     15  C   UNL     1       0.474   9.094  21.219  0.00  0.00    +0.000 A 
ATOM     16  C   UNL     1      -0.010  10.159  20.450  0.00  0.00    +0.000 A 
ATOM     17  C   UNL     1      -0.755  11.188  21.033  0.00  0.00    +0.000 A 
ENDBRANCH   5  15
ENDBRANCH   4   7
ENDBRANCH   1   4
BRANCH   1  18
ATOM     18  C   UNL     1       1.998   2.418  19.291  0.00  0.00    +0.000 C 
BRANCH  18  19
ATOM     19  C   UNL     1       2.649   2.989  18.067  0.00  0.00    +0.000 C 
ATOM     20  O   UNL     1       1.995   3.570  17.193  0.00  0.00    +0.000 OA
ATOM     21  N   UNL     1       4.019   2.856  17.977  0.00  0.00    +0.000 N 
ATOM     22  H   UNL     1       4.543   2.456  18.746  0.00  0.00    +0.000 HD
BRANCH  21  23
ATOM     23  C   UNL     1       4.752   3.400  16.849  0.00  0.00    +0.000 C 
BRANCH  23  24
ATOM     24  C   UNL     1       5.652   4.557  17.222  0.00  0.00    +0.000 A 
ATOM     25  C   UNL     1       5.970   5.535  16.264  0.00  0.00    +0.000 A 
ATOM     26  C   UNL     1       6.799   6.614  16.589  0.00  0.00    +0.000 A 
ATOM     27  C   UNL     1       7.311   6.730  17.879  0.00  0.00    +0.000 A 
ATOM     28 CL   UNL     1       8.341   8.048  18.281  0.00  0.00    +0.000 Cl
ATOM     29  C   UNL     1       6.988   5.787  18.848  0.00  0.00    +0.000 A 
ATOM     30  C   UNL     1       6.155   4.710  18.524  0.00  0.00    +0.000 A 
ENDBRANCH  23  24
ENDBRANCH  21  23
ENDBRANCH  18  19
ENDBRANCH   1  18
TORSDOF 7
ENDMDL
MODEL 2
REMARK VINA RESULT:      -8.5      1.036      1.444
REMARK  Name = 
REMARK  9 active torsions:
REMARK  status: ('A' for Active; 'I' for Inactive)
REMARK    1  A    between atoms: C_1  and  C_2
REMARK    2  A    between atoms: C_5  and  C_6
REMARK    3  A    between atoms: C_8  and  C_9
REMARK    4  A    between atoms: C_9  and  S_10
REMARK    5  A    between atoms: S_10  and  C_13
REMARK    6  A    between atoms: C_13  and  C_14
REMARK    7  A    between atoms: N_16  and  C_17
REMARK    8  A    between atoms: C_17  and  C_18
REMARK    9  A    between atoms: C_25  and  C_26
REMARK                            x       y       z     vdW  Elec       q    Type
REMARK                         _______ _______ _______ _____ _____    ______ ____
ROOT
ATOM      1  S   UNL     1       1.725   4.343  19.583  0.00  0.00    +0.000 S 
ATOM      2  O   UNL     1       0.671   4.348  20.593  0.00  0.00    +0.000 OA
ATOM      3  O   UNL     1       1.366   4.516  18.191  0.00  0.00    +0.000 OA
ENDROOT
BRANCH   1   4
ATOM      4  C   UNL     1       2.863   5.666  19.991  0.00  0.00    +0.000 C 
BRANCH   4   7
ATOM      5  C   UNL     1       1.105   8.692  20.571  0.00  0.00    +0.000 A 
ATOM      6  N   UNL     1       1.581   7.543  20.983  0.00  0.00    +0.000 NA
ATOM      7  C   UNL     1       2.242   7.009  19.885  0.00  0.00    +0.000 A 
ATOM      8  C   UNL     1       2.163   7.919  18.833  0.00  0.00    +0.000 A 
ATOM      9  C   UNL     1       2.653   8.055  17.442  0.00  0.00    +0.000 C 
ATOM     10  O   UNL     1       1.419   8.978  19.268  0.00  0.00    +0.000 OA
BRANCH   5  15
ATOM     11  C   UNL     1      -1.769  12.832  23.436  0.00  0.00    +0.000 C 
ATOM     12  C   UNL     1      -1.071  11.739  22.680  0.00  0.00    +0.000 A 
ATOM     13  C   UNL     1      -1.020  10.432  23.177  0.00  0.00    +0.000 A 
ATOM     14  C   UNL     1      -0.330   9.430  22.478  0.00  0.00    +0.000 A 
ATOM     15  C   UNL     1       0.330   9.721  21.275  0.00  0.00    +0.000 A 
ATOM     16  C   UNL     1       0.253  11.026  20.773  0.00  0.00    +0.000 A 
ATOM     17  C   UNL     1      -0.439  12.024  21.465  0.00  0.00    +0.000 A 
ENDBRANCH   5  15
ENDBRANCH   4   7
ENDBRANCH   1   4
BRANCH   1  18
ATOM     18  C   UNL     1       2.516   2.757  19.721  0.00  0.00    +0.000 C 
BRANCH  18  19
ATOM     19  C   UNL     1       3.876   2.853  19.097  0.00  0.00    +0.000 C 
ATOM     20  O   UNL     1       4.905   2.616  19.741  0.00  0.00    +0.000 OA
ATOM     21  N   UNL     1       3.920   3.195  17.762  0.00  0.00    +0.000 N 
ATOM     22  H   UNL     1       3.062   3.298  17.234  0.00  0.00    +0.000 HD
BRANCH  21  23
ATOM     23  C   UNL     1       5.183   3.285  17.053  0.00  0.00    +0.000 C 
BRANCH  23  24
ATOM     24  C   UNL     1       5.878   4.616  17.233  0.00  0.00    +0.000 A 
ATOM     25  C   UNL     1       6.996   4.714  18.079  0.00  0.00    +0.000 A 
ATOM     26  C   UNL     1       7.655   5.936  18.258  0.00  0.00    +0.000 A 
ATOM     27  C   UNL     1       7.207   7.068  17.584  0.00  0.00    +0.000 A 
ATOM     28 CL   UNL     1       8.005   8.576  17.809  0.00  0.00    +0.000 Cl
ATOM     29  C   UNL     1       6.119   6.986  16.723  0.00  0.00    +0.000 A 
ATOM     30  C   UNL     1       5.463   5.764  16.541  0.00  0.00    +0.000 A 
ENDBRANCH  23  24
ENDBRANCH  21  23
ENDBRANCH  18  19
ENDBRANCH   1  18
TORSDOF 7
ENDMDL
MODEL 3
REMARK VINA RESULT:      -7.9      4.376      7.407
REMARK  Name = 
REMARK  9 active torsions:
REMARK  status: ('A' for Active; 'I' for Inactive)
REMARK    1  A    between atoms: C_1  and  C_2
REMARK    2  A    between atoms: C_5  and  C_6
REMARK    3  A    between atoms: C_8  and  C_9
REMARK    4  A    between atoms: C_9  and  S_10
REMARK    5  A    between atoms: S_10  and  C_13
REMARK    6  A    between atoms: C_13  and  C_14
REMARK    7  A    between atoms: N_16  and  C_17
REMARK    8  A    between atoms: C_17  and  C_18
REMARK    9  A    between atoms: C_25  and  C_26
REMARK                            x       y       z     vdW  Elec       q    Type
REMARK                         _______ _______ _______ _____ _____    ______ ____
ROOT
ATOM      1  S   UNL     1       6.908   5.099  15.920  0.00  0.00    +0.000 S 
ATOM      2  O   UNL     1       7.311   5.602  14.611  0.00  0.00    +0.000 OA
ATOM      3  O   UNL     1       7.915   4.541  16.800  0.00  0.00    +0.000 OA
ENDROOT
BRANCH   1   4
ATOM      4  C   UNL     1       6.146   6.459  16.804  0.00  0.00    +0.000 C 
BRANCH   4   7
ATOM      5  C   UNL     1       8.282   8.967  18.120  0.00  0.00    +0.000 A 
ATOM      6  N   UNL     1       7.352   8.572  17.286  0.00  0.00    +0.000 NA
ATOM      7  C   UNL     1       7.121   7.240  17.605  0.00  0.00    +0.000 A 
ATOM      8  C   UNL     1       7.927   6.896  18.687  0.00  0.00    +0.000 A 
ATOM      9  C   UNL     1       8.171   5.727  19.563  0.00  0.00    +0.000 C 
ATOM     10  O   UNL     1       8.680   7.991  18.997  0.00  0.00    +0.000 OA
BRANCH   5  15
ATOM     11  C   UNL     1      10.739  14.148  18.970  0.00  0.00    +0.000 C 
ATOM     12  C   UNL     1      10.126  12.804  18.702  0.00  0.00    +0.000 A 
ATOM     13  C   UNL     1       9.057  12.660  17.811  0.00  0.00    +0.000 A 
ATOM     14  C   UNL     1       8.468  11.404  17.602  0.00  0.00    +0.000 A 
ATOM     15  C   UNL     1       8.933  10.271  18.288  0.00  0.00    +0.000 A 
ATOM     16  C   UNL     1      10.018  10.422  19.160  0.00  0.00    +0.000 A 
ATOM     17  C   UNL     1      10.610  11.672  19.365  0.00  0.00    +0.000 A 
ENDBRANCH   5  15
ENDBRANCH   4   7
ENDBRANCH   1   4
BRANCH   1  18
ATOM     18  C   UNL     1       5.728   3.809  15.598  0.00  0.00    +0.000 C 
BRANCH  18  19
ATOM     19  C   UNL     1       4.905   3.604  16.834  0.00  0.00    +0.000 C 
ATOM     20  O   UNL     1       5.427   3.442  17.943  0.00  0.00    +0.000 OA
ATOM     21  N   UNL     1       3.535   3.631  16.675  0.00  0.00    +0.000 N 
ATOM     22  H   UNL     1       3.131   3.854  15.774  0.00  0.00    +0.000 HD
BRANCH  21  23
ATOM     23  C   UNL     1       2.646   3.475  17.812  0.00  0.00    +0.000 C 
BRANCH  23  24
ATOM     24  C   UNL     1       2.399   4.766  18.560  0.00  0.00    +0.000 A 
ATOM     25  C   UNL     1       1.956   4.729  19.894  0.00  0.00    +0.000 A 
ATOM     26  C   UNL     1       1.723   5.912  20.605  0.00  0.00    +0.000 A 
ATOM     27  C   UNL     1       1.941   7.143  19.991  0.00  0.00    +0.000 A 
ATOM     28 CL   UNL     1       1.644   8.600  20.855  0.00  0.00    +0.000 Cl
ATOM     29  C   UNL     1       2.403   7.200  18.681  0.00  0.00    +0.000 A 
ATOM     30  C   UNL     1       2.639   6.018  17.971  0.00  0.00    +0.000 A 
ENDBRANCH  23  24
ENDBRANCH  21  23
ENDBRANCH  18  19
ENDBRANCH   1  18
TORSDOF 7
ENDMDL
MODEL 4
REMARK VINA RESULT:      -7.6      4.495      5.896
REMARK  Name = 
REMARK  9 active torsions:
REMARK  status: ('A' for Active; 'I' for Inactive)
REMARK    1  A    between atoms: C_1  and  C_2
REMARK    2  A    between atoms: C_5  and  C_6
REMARK    3  A    between atoms: C_8  and  C_9
REMARK    4  A    between atoms: C_9  and  S_10
REMARK    5  A    between atoms: S_10  and  C_13
REMARK    6  A    between atoms: C_13  and  C_14
REMARK    7  A    between atoms: N_16  and  C_17
REMARK    8  A    between atoms: C_17  and  C_18
REMARK    9  A    between atoms: C_25  and  C_26
REMARK                            x       y       z     vdW  Elec       q    Type
REMARK                         _______ _______ _______ _____ _____    ______ ____
ROOT
ATOM      1  S   UNL     1       6.751   5.689  17.297  0.00  0.00    +0.000 S 
ATOM      2  O   UNL     1       6.470   5.672  18.729  0.00  0.00    +0.000 OA
ATOM      3  O   UNL     1       7.759   4.792  16.768  0.00  0.00    +0.000 OA
ENDROOT
BRANCH   1   4
ATOM      4  C   UNL     1       5.221   5.302  16.448  0.00  0.00    +0.000 C 
BRANCH   4   7
ATOM      5  C   UNL     1       2.701   6.999  18.281  0.00  0.00    +0.000 A 
ATOM      6  N   UNL     1       3.786   7.002  17.546  0.00  0.00    +0.000 NA
ATOM      7  C   UNL     1       4.018   5.668  17.237  0.00  0.00    +0.000 A 
ATOM      8  C   UNL     1       2.996   4.899  17.789  0.00  0.00    +0.000 A 
ATOM      9  C   UNL     1       2.568   3.482  17.827  0.00  0.00    +0.000 C 
ATOM     10  O   UNL     1       2.173   5.749  18.471  0.00  0.00    +0.000 OA
BRANCH   5  15
ATOM     11  C   UNL     1      -0.068  11.467  20.726  0.00  0.00    +0.000 C 
ATOM     12  C   UNL     1       0.605  10.282  20.095  0.00  0.00    +0.000 A 
ATOM     13  C   UNL     1       0.940   9.152  20.849  0.00  0.00    +0.000 A 
ATOM     14  C   UNL     1       1.604   8.069  20.254  0.00  0.00    +0.000 A 
ATOM     15  C   UNL     1       1.953   8.102  18.895  0.00  0.00    +0.000 A 
ATOM     16  C   UNL     1       1.591   9.227  18.143  0.00  0.00    +0.000 A 
ATOM     17  C   UNL     1       0.924  10.304  18.734  0.00  0.00    +0.000 A 
ENDBRANCH   5  15
ENDBRANCH   4   7
ENDBRANCH   1   4
BRANCH   1  18
ATOM     18  C   UNL     1       7.283   7.344  16.929  0.00  0.00    +0.000 C 
BRANCH  18  19
ATOM     19  C   UNL     1       8.073   7.855  18.096  0.00  0.00    +0.000 C 
ATOM     20  O   UNL     1       8.509   7.094  18.969  0.00  0.00    +0.000 OA
ATOM     21  N   UNL     1       8.311   9.213  18.134  0.00  0.00    +0.000 N 
ATOM     22  H   UNL     1       8.021   9.802  17.364  0.00  0.00    +0.000 HD
BRANCH  21  23
ATOM     23  C   UNL     1       9.093   9.806  19.203  0.00  0.00    +0.000 C 
BRANCH  23  24
ATOM     24  C   UNL     1       9.644  11.171  18.856  0.00  0.00    +0.000 A 
ATOM     25  C   UNL     1      10.438  11.334  17.707  0.00  0.00    +0.000 A 
ATOM     26  C   UNL     1      10.956  12.589  17.367  0.00  0.00    +0.000 A 
ATOM     27  C   UNL     1      10.677  13.694  18.167  0.00  0.00    +0.000 A 
ATOM     28 CL   UNL     1      11.322  15.236  17.761  0.00  0.00    +0.000 Cl
ATOM     29  C   UNL     1       9.873  13.557  19.293  0.00  0.00    +0.000 A 
ATOM     30  C   UNL     1       9.351  12.304  19.631  0.00  0.00    +0.000 A 
ENDBRANCH  23  24
ENDBRANCH  21  23
ENDBRANCH  18  19
ENDBRANCH   1  18
TORSDOF 7
ENDMDL
MODEL 5
REMARK VINA RESULT:      -7.5      4.416      5.765
REMARK  Name = 
REMARK  9 active torsions:
REMARK  status: ('A' for Active; 'I' for Inactive)
REMARK    1  A    between atoms: C_1  and  C_2
REMARK    2  A    between atoms: C_5  and  C_6
REMARK    3  A    between atoms: C_8  and  C_9
REMARK    4  A    between atoms: C_9  and  S_10
REMARK    5  A    between atoms: S_10  and  C_13
REMARK    6  A    between atoms: C_13  and  C_14
REMARK    7  A    between atoms: N_16  and  C_17
REMARK    8  A    between atoms: C_17  and  C_18
REMARK    9  A    between atoms: C_25  and  C_26
REMARK                            x       y       z     vdW  Elec       q    Type
REMARK                         _______ _______ _______ _____ _____    ______ ____
ROOT
ATOM      1  S   UNL     1       6.576   5.678  17.457  0.00  0.00    +0.000 S 
ATOM      2  O   UNL     1       6.493   5.774  18.912  0.00  0.00    +0.000 OA
ATOM      3  O   UNL     1       7.483   4.715  16.867  0.00  0.00    +0.000 OA
ENDROOT
BRANCH   1   4
ATOM      4  C   UNL     1       4.936   5.280  16.855  0.00  0.00    +0.000 C 
BRANCH   4   7
ATOM      5  C   UNL     1       2.577   6.822  19.010  0.00  0.00    +0.000 A 
ATOM      6  N   UNL     1       3.472   6.883  18.054  0.00  0.00    +0.000 NA
ATOM      7  C   UNL     1       3.873   5.569  17.849  0.00  0.00    +0.000 A 
ATOM      8  C   UNL     1       3.140   4.743  18.697  0.00  0.00    +0.000 A 
ATOM      9  C   UNL     1       2.991   3.298  18.985  0.00  0.00    +0.000 C 
ATOM     10  O   UNL     1       2.333   5.547  19.450  0.00  0.00    +0.000 OA
BRANCH   5  15
ATOM     11  C   UNL     1      -0.376  11.097  21.580  0.00  0.00    +0.000 C 
ATOM     12  C   UNL     1       0.344   9.961  20.913  0.00  0.00    +0.000 A 
ATOM     13  C   UNL     1       0.662   8.793  21.614  0.00  0.00    +0.000 A 
ATOM     14  C   UNL     1       1.372   7.757  20.988  0.00  0.00    +0.000 A 
ATOM     15  C   UNL     1       1.783   7.876  19.652  0.00  0.00    +0.000 A 
ATOM     16  C   UNL     1       1.439   9.039  18.952  0.00  0.00    +0.000 A 
ATOM     17  C   UNL     1       0.727  10.070  19.572  0.00  0.00    +0.000 A 
ENDBRANCH   5  15
ENDBRANCH   4   7
ENDBRANCH   1   4
BRANCH   1  18
ATOM     18  C   UNL     1       7.087   7.285  16.896  0.00  0.00    +0.000 C 
BRANCH  18  19
ATOM     19  C   UNL     1       7.955   7.899  17.953  0.00  0.00    +0.000 C 
ATOM     20  O   UNL     1       8.520   7.210  18.811  0.00  0.00    +0.000 OA
ATOM     21  N   UNL     1       8.113   9.268  17.906  0.00  0.00    +0.000 N 
ATOM     22  H   UNL     1       7.714   9.800  17.142  0.00  0.00    +0.000 HD
BRANCH  21  23
ATOM     23  C   UNL     1       8.957   9.958  18.863  0.00  0.00    +0.000 C 
BRANCH  23  24
ATOM     24  C   UNL     1       9.530  11.254  18.332  0.00  0.00    +0.000 A 
ATOM     25  C   UNL     1       8.782  12.440  18.424  0.00  0.00    +0.000 A 
ATOM     26  C   UNL     1       9.294  13.650  17.941  0.00  0.00    +0.000 A 
ATOM     27  C   UNL     1      10.564  13.685  17.369  0.00  0.00    +0.000 A 
ATOM     28 CL   UNL     1      11.194  15.166  16.762  0.00  0.00    +0.000 Cl
ATOM     29  C   UNL     1      11.329  12.527  17.292  0.00  0.00    +0.000 A 
ATOM     30  C   UNL     1      10.818  11.318  17.779  0.00  0.00    +0.000 A 
ENDBRANCH  23  24
ENDBRANCH  21  23
ENDBRANCH  18  19
ENDBRANCH   1  18
TORSDOF 7
ENDMDL
MODEL 6
REMARK VINA RESULT:      -7.5      4.327      7.526
REMARK  Name = 
REMARK  9 active torsions:
REMARK  status: ('A' for Active; 'I' for Inactive)
REMARK    1  A    between atoms: C_1  and  C_2
REMARK    2  A    between atoms: C_5  and  C_6
REMARK    3  A    between atoms: C_8  and  C_9
REMARK    4  A    between atoms: C_9  and  S_10
REMARK    5  A    between atoms: S_10  and  C_13
REMARK    6  A    between atoms: C_13  and  C_14
REMARK    7  A    between atoms: N_16  and  C_17
REMARK    8  A    between atoms: C_17  and  C_18
REMARK    9  A    between atoms: C_25  and  C_26
REMARK                            x       y       z     vdW  Elec       q    Type
REMARK                         _______ _______ _______ _____ _____    ______ ____
ROOT
ATOM      1  S   UNL     1       5.287   6.306  16.310  0.00  0.00    +0.000 S 
ATOM      2  O   UNL     1       4.904   7.403  17.193  0.00  0.00    +0.000 OA
ATOM      3  O   UNL     1       4.950   6.385  14.904  0.00  0.00    +0.000 OA
ENDROOT
BRANCH   1   4
ATOM      4  C   UNL     1       7.069   6.141  16.405  0.00  0.00    +0.000 C 
BRANCH   4   7
ATOM      5  C   UNL     1       8.469   8.783  18.314  0.00  0.00    +0.000 A 
ATOM      6  N   UNL     1       7.896   8.330  17.226  0.00  0.00    +0.000 NA
ATOM      7  C   UNL     1       7.668   6.982  17.471  0.00  0.00    +0.000 A 
ATOM      8  C   UNL     1       8.095   6.686  18.762  0.00  0.00    +0.000 A 
ATOM      9  C   UNL     1       8.120   5.529  19.687  0.00  0.00    +0.000 C 
ATOM     10  O   UNL     1       8.625   7.830  19.286  0.00  0.00    +0.000 OA
BRANCH   5  15
ATOM     11  C   UNL     1      10.492  14.061  19.602  0.00  0.00    +0.000 C 
ATOM     12  C   UNL     1       9.927  12.703  19.300  0.00  0.00    +0.000 A 
ATOM     13  C   UNL     1       9.987  11.668  20.240  0.00  0.00    +0.000 A 
ATOM     14  C   UNL     1       9.491  10.393  19.928  0.00  0.00    +0.000 A 
ATOM     15  C   UNL     1       8.934  10.129  18.667  0.00  0.00    +0.000 A 
ATOM     16  C   UNL     1       8.857  11.178  17.743  0.00  0.00    +0.000 A 
ATOM     17  C   UNL     1       9.345  12.450  18.053  0.00  0.00    +0.000 A 
ENDBRANCH   5  15
ENDBRANCH   4   7
ENDBRANCH   1   4
BRANCH   1  18
ATOM     18  C   UNL     1       4.479   4.862  16.958  0.00  0.00    +0.000 C 
BRANCH  18  19
ATOM     19  C   UNL     1       4.049   5.153  18.364  0.00  0.00    +0.000 C 
ATOM     20  O   UNL     1       4.720   4.791  19.337  0.00  0.00    +0.000 OA
ATOM     21  N   UNL     1       2.879   5.868  18.517  0.00  0.00    +0.000 N 
ATOM     22  H   UNL     1       2.394   6.230  17.706  0.00  0.00    +0.000 HD
BRANCH  21  23
ATOM     23  C   UNL     1       2.390   6.230  19.834  0.00  0.00    +0.000 C 
BRANCH  23  24
ATOM     24  C   UNL     1       1.826   7.632  19.899  0.00  0.00    +0.000 A 
ATOM     25  C   UNL     1       1.828   8.442  18.750  0.00  0.00    +0.000 A 
ATOM     26  C   UNL     1       1.309   9.741  18.789  0.00  0.00    +0.000 A 
ATOM     27  C   UNL     1       0.775  10.238  19.974  0.00  0.00    +0.000 A 
ATOM     28 CL   UNL     1       0.147  11.840  20.031  0.00  0.00    +0.000 Cl
ATOM     29  C   UNL     1       0.741   9.444  21.115  0.00  0.00    +0.000 A 
ATOM     30  C   UNL     1       1.256   8.144  21.076  0.00  0.00    +0.000 A 
ENDBRANCH  23  24
ENDBRANCH  21  23
ENDBRANCH  18  19
ENDBRANCH   1  18
TORSDOF 7
ENDMDL
MODEL 7
REMARK VINA RESULT:      -7.5      4.107      5.712
REMARK  Name = 
REMARK  9 active torsions:
REMARK  status: ('A' for Active; 'I' for Inactive)
REMARK    1  A    between atoms: C_1  and  C_2
REMARK    2  A    between atoms: C_5  and  C_6
REMARK    3  A    between atoms: C_8  and  C_9
REMARK    4  A    between atoms: C_9  and  S_10
REMARK    5  A    between atoms: S_10  and  C_13
REMARK    6  A    between atoms: C_13  and  C_14
REMARK    7  A    between atoms: N_16  and  C_17
REMARK    8  A    between atoms: C_17  and  C_18
REMARK    9  A    between atoms: C_25  and  C_26
REMARK                            x       y       z     vdW  Elec       q    Type
REMARK                         _______ _______ _______ _____ _____    ______ ____
ROOT
ATOM      1  S   UNL     1       6.655   5.273  16.085  0.00  0.00    +0.000 S 
ATOM      2  O   UNL     1       7.824   4.776  16.805  0.00  0.00    +0.000 OA
ATOM      3  O   UNL     1       6.687   5.315  14.637  0.00  0.00    +0.000 OA
ENDROOT
BRANCH   1   4
ATOM      4  C   UNL     1       5.266   4.237  16.541  0.00  0.00    +0.000 C 
BRANCH   4   7
ATOM      5  C   UNL     1       3.200   6.353  18.500  0.00  0.00    +0.000 A 
ATOM      6  N   UNL     1       3.815   6.065  17.380  0.00  0.00    +0.000 NA
ATOM      7  C   UNL     1       4.426   4.839  17.606  0.00  0.00    +0.000 A 
ATOM      8  C   UNL     1       4.102   4.411  18.891  0.00  0.00    +0.000 A 
ATOM      9  C   UNL     1       4.334   3.236  19.763  0.00  0.00    +0.000 C 
ATOM     10  O   UNL     1       3.340   5.388  19.464  0.00  0.00    +0.000 OA
BRANCH   5  15
ATOM     11  C   UNL     1      -0.250  10.776  19.962  0.00  0.00    +0.000 C 
ATOM     12  C   UNL     1       0.684   9.664  19.582  0.00  0.00    +0.000 A 
ATOM     13  C   UNL     1       1.172   9.542  18.276  0.00  0.00    +0.000 A 
ATOM     14  C   UNL     1       2.013   8.475  17.926  0.00  0.00    +0.000 A 
ATOM     15  C   UNL     1       2.372   7.505  18.875  0.00  0.00    +0.000 A 
ATOM     16  C   UNL     1       1.897   7.649  20.185  0.00  0.00    +0.000 A 
ATOM     17  C   UNL     1       1.065   8.715  20.536  0.00  0.00    +0.000 A 
ENDBRANCH   5  15
ENDBRANCH   4   7
ENDBRANCH   1   4
BRANCH   1  18
ATOM     18  C   UNL     1       6.417   6.942  16.648  0.00  0.00    +0.000 C 
BRANCH  18  19
ATOM     19  C   UNL     1       7.356   7.193  17.789  0.00  0.00    +0.000 C 
ATOM     20  O   UNL     1       7.586   6.329  18.644  0.00  0.00    +0.000 OA
ATOM     21  N   UNL     1       7.970   8.427  17.823  0.00  0.00    +0.000 N 
ATOM     22  H   UNL     1       7.835   9.084  17.065  0.00  0.00    +0.000 HD
BRANCH  21  23
ATOM     23  C   UNL     1       8.921   8.761  18.867  0.00  0.00    +0.000 C 
BRANCH  23  24
ATOM     24  C   UNL     1       9.127  10.250  19.037  0.00  0.00    +0.000 A 
ATOM     25  C   UNL     1       9.050  11.100  17.919  0.00  0.00    +0.000 A 
ATOM     26  C   UNL     1       9.235  12.480  18.055  0.00  0.00    +0.000 A 
ATOM     27  C   UNL     1       9.488  13.025  19.311  0.00  0.00    +0.000 A 
ATOM     28 CL   UNL     1       9.729  14.720  19.482  0.00  0.00    +0.000 Cl
ATOM     29  C   UNL     1       9.542  12.204  20.432  0.00  0.00    +0.000 A 
ATOM     30  C   UNL     1       9.354  10.825  20.297  0.00  0.00    +0.000 A 
ENDBRANCH  23  24
ENDBRANCH  21  23
ENDBRANCH  18  19
ENDBRANCH   1  18
TORSDOF 7
ENDMDL
MODEL 8
REMARK VINA RESULT:      -7.4      4.277      7.745
REMARK  Name = 
REMARK  9 active torsions:
REMARK  status: ('A' for Active; 'I' for Inactive)
REMARK    1  A    between atoms: C_1  and  C_2
REMARK    2  A    between atoms: C_5  and  C_6
REMARK    3  A    between atoms: C_8  and  C_9
REMARK    4  A    between atoms: C_9  and  S_10
REMARK    5  A    between atoms: S_10  and  C_13
REMARK    6  A    between atoms: C_13  and  C_14
REMARK    7  A    between atoms: N_16  and  C_17
REMARK    8  A    between atoms: C_17  and  C_18
REMARK    9  A    between atoms: C_25  and  C_26
REMARK                            x       y       z     vdW  Elec       q    Type
REMARK                         _______ _______ _______ _____ _____    ______ ____
ROOT
ATOM      1  S   UNL     1       5.078   5.848  16.452  0.00  0.00    +0.000 S 
ATOM      2  O   UNL     1       4.644   6.970  15.624  0.00  0.00    +0.000 OA
ATOM      3  O   UNL     1       4.616   4.514  16.126  0.00  0.00    +0.000 OA
ENDROOT
BRANCH   1   4
ATOM      4  C   UNL     1       6.869   5.803  16.392  0.00  0.00    +0.000 C 
BRANCH   4   7
ATOM      5  C   UNL     1       8.282   8.561  18.118  0.00  0.00    +0.000 A 
ATOM      6  N   UNL     1       7.660   8.049  17.085  0.00  0.00    +0.000 NA
ATOM      7  C   UNL     1       7.499   6.703  17.389  0.00  0.00    +0.000 A 
ATOM      8  C   UNL     1       8.017   6.470  18.661  0.00  0.00    +0.000 A 
ATOM      9  C   UNL     1       8.142   5.349  19.620  0.00  0.00    +0.000 C 
ATOM     10  O   UNL     1       8.534   7.650  19.111  0.00  0.00    +0.000 OA
BRANCH   5  15
ATOM     11  C   UNL     1       9.832  14.007  19.359  0.00  0.00    +0.000 C 
ATOM     12  C   UNL     1       9.467  12.596  18.999  0.00  0.00    +0.000 A 
ATOM     13  C   UNL     1       8.725  12.311  17.847  0.00  0.00    +0.000 A 
ATOM     14  C   UNL     1       8.357  10.991  17.545  0.00  0.00    +0.000 A 
ATOM     15  C   UNL     1       8.716   9.935  18.396  0.00  0.00    +0.000 A 
ATOM     16  C   UNL     1       9.479  10.228  19.533  0.00  0.00    +0.000 A 
ATOM     17  C   UNL     1       9.852  11.541  19.832  0.00  0.00    +0.000 A 
ENDBRANCH   5  15
ENDBRANCH   4   7
ENDBRANCH   1   4
BRANCH   1  18
ATOM     18  C   UNL     1       4.505   6.210  18.094  0.00  0.00    +0.000 C 
BRANCH  18  19
ATOM     19  C   UNL     1       3.093   6.705  18.002  0.00  0.00    +0.000 C 
ATOM     20  O   UNL     1       2.127   5.956  18.191  0.00  0.00    +0.000 OA
ATOM     21  N   UNL     1       2.925   8.044  17.718  0.00  0.00    +0.000 N 
ATOM     22  H   UNL     1       3.729   8.656  17.656  0.00  0.00    +0.000 HD
BRANCH  21  23
ATOM     23  C   UNL     1       1.601   8.633  17.638  0.00  0.00    +0.000 C 
BRANCH  23  24
ATOM     24  C   UNL     1       1.411   9.812  18.566  0.00  0.00    +0.000 A 
ATOM     25  C   UNL     1       1.916  11.074  18.208  0.00  0.00    +0.000 A 
ATOM     26  C   UNL     1       1.750  12.178  19.052  0.00  0.00    +0.000 A 
ATOM     27  C   UNL     1       1.067  12.031  20.256  0.00  0.00    +0.000 A 
ATOM     28 CL   UNL     1       0.871  13.382  21.304  0.00  0.00    +0.000 Cl
ATOM     29  C   UNL     1       0.538  10.797  20.616  0.00  0.00    +0.000 A 
ATOM     30  C   UNL     1       0.701   9.694  19.771  0.00  0.00    +0.000 A 
ENDBRANCH  23  24
ENDBRANCH  21  23
ENDBRANCH  18  19
ENDBRANCH   1  18
TORSDOF 7
ENDMDL
MODEL 9
REMARK VINA RESULT:      -7.4      1.133      1.597
REMARK  Name = 
REMARK  9 active torsions:
REMARK  status: ('A' for Active; 'I' for Inactive)
REMARK    1  A    between atoms: C_1  and  C_2
REMARK    2  A    between atoms: C_5  and  C_6
REMARK    3  A    between atoms: C_8  and  C_9
REMARK    4  A    between atoms: C_9  and  S_10
REMARK    5  A    between atoms: S_10  and  C_13
REMARK    6  A    between atoms: C_13  and  C_14
REMARK    7  A    between atoms: N_16  and  C_17
REMARK    8  A    between atoms: C_17  and  C_18
REMARK    9  A    between atoms: C_25  and  C_26
REMARK                            x       y       z     vdW  Elec       q    Type
REMARK                         _______ _______ _______ _____ _____    ______ ____
ROOT
ATOM      1  S   UNL     1       2.165   4.140  19.816  0.00  0.00    +0.000 S 
ATOM      2  O   UNL     1       2.023   3.635  21.178  0.00  0.00    +0.000 OA
ATOM      3  O   UNL     1       0.983   4.579  19.102  0.00  0.00    +0.000 OA
ENDROOT
BRANCH   1   4
ATOM      4  C   UNL     1       3.280   5.542  19.880  0.00  0.00    +0.000 C 
BRANCH   4   7
ATOM      5  C   UNL     1       1.340   8.454  20.461  0.00  0.00    +0.000 A 
ATOM      6  N   UNL     1       1.894   7.341  20.875  0.00  0.00    +0.000 NA
ATOM      7  C   UNL     1       2.574   6.842  19.772  0.00  0.00    +0.000 A 
ATOM      8  C   UNL     1       2.424   7.737  18.716  0.00  0.00    +0.000 A 
ATOM      9  C   UNL     1       2.886   7.893  17.317  0.00  0.00    +0.000 C 
ATOM     10  O   UNL     1       1.619   8.750  19.153  0.00  0.00    +0.000 OA
BRANCH   5  15
ATOM     11  C   UNL     1      -2.116  12.219  23.199  0.00  0.00    +0.000 C 
ATOM     12  C   UNL     1      -1.180  11.276  22.498  0.00  0.00    +0.000 A 
ATOM     13  C   UNL     1      -0.690  11.559  21.219  0.00  0.00    +0.000 A 
ATOM     14  C   UNL     1       0.152  10.650  20.561  0.00  0.00    +0.000 A 
ATOM     15  C   UNL     1       0.510   9.437  21.168  0.00  0.00    +0.000 A 
ATOM     16  C   UNL     1       0.033   9.174  22.459  0.00  0.00    +0.000 A 
ATOM     17  C   UNL     1      -0.801  10.081  23.118  0.00  0.00    +0.000 A 
ENDBRANCH   5  15
ENDBRANCH   4   7
ENDBRANCH   1   4
BRANCH   1  18
ATOM     18  C   UNL     1       2.872   2.806  18.878  0.00  0.00    +0.000 C 
BRANCH  18  19
ATOM     19  C   UNL     1       4.365   2.936  18.926  0.00  0.00    +0.000 C 
ATOM     20  O   UNL     1       5.042   2.344  19.775  0.00  0.00    +0.000 OA
ATOM     21  N   UNL     1       4.948   3.730  17.961  0.00  0.00    +0.000 N 
ATOM     22  H   UNL     1       4.382   4.133  17.224  0.00  0.00    +0.000 HD
BRANCH  21  23
ATOM     23  C   UNL     1       6.388   3.898  17.899  0.00  0.00    +0.000 C 
BRANCH  23  24
ATOM     24  C   UNL     1       6.822   5.347  17.886  0.00  0.00    +0.000 A 
ATOM     25  C   UNL     1       6.173   6.266  17.043  0.00  0.00    +0.000 A 
ATOM     26  C   UNL     1       6.558   7.611  17.017  0.00  0.00    +0.000 A 
ATOM     27  C   UNL     1       7.589   8.051  17.842  0.00  0.00    +0.000 A 
ATOM     28 CL   UNL     1       8.076   9.701  17.805  0.00  0.00    +0.000 Cl
ATOM     29  C   UNL     1       8.227   7.163  18.701  0.00  0.00    +0.000 A 
ATOM     30  C   UNL     1       7.839   5.820  18.730  0.00  0.00    +0.000 A 
ENDBRANCH  23  24
ENDBRANCH  21  23
ENDBRANCH  18  19
ENDBRANCH   1  18
TORSDOF 7
ENDMDL
