MODEL 1
REMARK VINA RESULT:      -6.7      0.000      0.000
REMARK  Name = 
REMARK  3 active torsions:
REMARK  status: ('A' for Active; 'I' for Inactive)
REMARK    1  A    between atoms: C_5  and  S_6
REMARK    2  A    between atoms: S_6  and  C_7
REMARK    3  A    between atoms: C_12  and  N_13
REMARK                            x       y       z     vdW  Elec       q    Type
REMARK                         _______ _______ _______ _____ _____    ______ ____
ROOT
ATOM      1  S   UNL     1       3.052   6.185  18.834  0.00  0.00    +0.000 S 
ENDROOT
BRANCH   1   6
ATOM      2  N   UNL     1       7.725   4.497  16.698  0.00  0.00    +0.000 N 
ATOM      3  C   UNL     1       6.675   4.817  17.478  0.00  0.00    +0.000 A 
ATOM      4  N   UNL     1       6.643   4.667  18.783  0.00  0.00    +0.000 NA
ATOM      5  N   UNL     1       5.441   5.076  19.333  0.00  0.00    +0.000 NA
ATOM      6  C   UNL     1       4.611   5.518  18.414  0.00  0.00    +0.000 A 
ATOM      7  S   UNL     1       5.229   5.467  16.817  0.00  0.00    +0.000 S 
ATOM      8  H   UNL     1       8.446   3.923  17.123  0.00  0.00    +0.000 HD
ATOM      9  H   UNL     1       7.560   4.310  15.716  0.00  0.00    +0.000 HD
ENDBRANCH   1   6
BRANCH   1  10
ATOM     10  C   UNL     1       2.368   4.753  19.649  0.00  0.00    +0.000 A 
ATOM     11  N   UNL     1       2.518   4.731  21.002  0.00  0.00    +0.000 NA
ATOM     12  C   UNL     1       2.045   3.662  21.686  0.00  0.00    +0.000 A 
ATOM     13  C   UNL     1       1.417   2.582  21.091  0.00  0.00    +0.000 A 
ATOM     14  C   UNL     1       1.270   2.592  19.710  0.00  0.00    +0.000 A 
ATOM     15  C   UNL     1       1.765   3.688  18.991  0.00  0.00    +0.000 A 
BRANCH  15  16
ATOM     16  N   UNL     1       1.648   3.658  17.555  0.00  0.00    +0.000 N 
ATOM     17  O   UNL     1       0.759   4.347  17.039  0.00  0.00    +0.000 OA
ATOM     18  O   UNL     1       2.501   3.005  16.939  0.00  0.00    +0.000 OA
ENDBRANCH  15  16
ENDBRANCH   1  10
TORSDOF 3
ENDMDL
MODEL 2
REMARK VINA RESULT:      -6.6      2.204      2.691
REMARK  Name = 
REMARK  3 active torsions:
REMARK  status: ('A' for Active; 'I' for Inactive)
REMARK    1  A    between atoms: C_5  and  S_6
REMARK    2  A    between atoms: S_6  and  C_7
REMARK    3  A    between atoms: C_12  and  N_13
REMARK                            x       y       z     vdW  Elec       q    Type
REMARK                         _______ _______ _______ _____ _____    ______ ____
ROOT
ATOM      1  S   UNL     1       4.627   4.149  17.279  0.00  0.00    +0.000 S 
ENDROOT
BRANCH   1   6
ATOM      2  N   UNL     1       8.562   7.518  18.831  0.00  0.00    +0.000 N 
ATOM      3  C   UNL     1       7.700   6.502  18.642  0.00  0.00    +0.000 A 
ATOM      4  N   UNL     1       7.686   5.394  19.349  0.00  0.00    +0.000 NA
ATOM      5  N   UNL     1       6.697   4.518  18.942  0.00  0.00    +0.000 NA
ATOM      6  C   UNL     1       6.001   5.003  17.937  0.00  0.00    +0.000 A 
ATOM      7  S   UNL     1       6.501   6.555  17.413  0.00  0.00    +0.000 S 
ATOM      8  H   UNL     1       9.367   7.326  19.417  0.00  0.00    +0.000 HD
ATOM      9  H   UNL     1       8.741   8.152  18.061  0.00  0.00    +0.000 HD
ENDBRANCH   1   6
BRANCH   1  10
ATOM     10  C   UNL     1       3.549   4.260  18.695  0.00  0.00    +0.000 A 
ATOM     11  N   UNL     1       2.933   5.464  18.859  0.00  0.00    +0.000 NA
ATOM     12  C   UNL     1       2.118   5.631  19.928  0.00  0.00    +0.000 A 
ATOM     13  C   UNL     1       1.872   4.649  20.871  0.00  0.00    +0.000 A 
ATOM     14  C   UNL     1       2.506   3.423  20.717  0.00  0.00    +0.000 A 
ATOM     15  C   UNL     1       3.359   3.242  19.621  0.00  0.00    +0.000 A 
BRANCH  15  16
ATOM     16  N   UNL     1       4.046   1.980  19.504  0.00  0.00    +0.000 N 
ATOM     17  O   UNL     1       3.668   1.204  18.618  0.00  0.00    +0.000 OA
ATOM     18  O   UNL     1       5.018   1.803  20.251  0.00  0.00    +0.000 OA
ENDBRANCH  15  16
ENDBRANCH   1  10
TORSDOF 3
ENDMDL
MODEL 3
REMARK VINA RESULT:      -6.5      2.336      2.803
REMARK  Name = 
REMARK  3 active torsions:
REMARK  status: ('A' for Active; 'I' for Inactive)
REMARK    1  A    between atoms: C_5  and  S_6
REMARK    2  A    between atoms: S_6  and  C_7
REMARK    3  A    between atoms: C_12  and  N_13
REMARK                            x       y       z     vdW  Elec       q    Type
REMARK                         _______ _______ _______ _____ _____    ______ ____
ROOT
ATOM      1  S   UNL     1       4.734   5.358  19.501  0.00  0.00    +0.000 S 
ENDROOT
BRANCH   1   6
ATOM      2  N   UNL     1       7.437   5.242  14.818  0.00  0.00    +0.000 N 
ATOM      3  C   UNL     1       6.978   5.098  16.076  0.00  0.00    +0.000 A 
ATOM      4  N   UNL     1       7.610   4.452  17.030  0.00  0.00    +0.000 NA
ATOM      5  N   UNL     1       6.913   4.459  18.224  0.00  0.00    +0.000 NA
ATOM      6  C   UNL     1       5.776   5.112  18.121  0.00  0.00    +0.000 A 
ATOM      7  S   UNL     1       5.472   5.762  16.566  0.00  0.00    +0.000 S 
ATOM      8  H   UNL     1       8.212   4.647  14.548  0.00  0.00    +0.000 HD
ATOM      9  H   UNL     1       6.771   5.431  14.078  0.00  0.00    +0.000 HD
ENDBRANCH   1   6
BRANCH   1  10
ATOM     10  C   UNL     1       3.378   4.318  18.991  0.00  0.00    +0.000 A 
ATOM     11  N   UNL     1       2.539   4.871  18.072  0.00  0.00    +0.000 NA
ATOM     12  C   UNL     1       1.472   4.149  17.655  0.00  0.00    +0.000 A 
ATOM     13  C   UNL     1       1.177   2.876  18.110  0.00  0.00    +0.000 A 
ATOM     14  C   UNL     1       2.022   2.310  19.057  0.00  0.00    +0.000 A 
ATOM     15  C   UNL     1       3.123   3.052  19.502  0.00  0.00    +0.000 A 
BRANCH  15  16
ATOM     16  N   UNL     1       3.960   2.468  20.520  0.00  0.00    +0.000 N 
ATOM     17  O   UNL     1       3.478   2.343  21.653  0.00  0.00    +0.000 OA
ATOM     18  O   UNL     1       5.073   2.061  20.162  0.00  0.00    +0.000 OA
ENDBRANCH  15  16
ENDBRANCH   1  10
TORSDOF 3
ENDMDL
MODEL 4
REMARK VINA RESULT:      -6.5      2.588      5.373
REMARK  Name = 
REMARK  3 active torsions:
REMARK  status: ('A' for Active; 'I' for Inactive)
REMARK    1  A    between atoms: C_5  and  S_6
REMARK    2  A    between atoms: S_6  and  C_7
REMARK    3  A    between atoms: C_12  and  N_13
REMARK                            x       y       z     vdW  Elec       q    Type
REMARK                         _______ _______ _______ _____ _____    ______ ____
ROOT
ATOM      1  S   UNL     1       4.626   3.712  17.210  0.00  0.00    +0.000 S 
ENDROOT
BRANCH   1   6
ATOM      2  N   UNL     1       2.194   3.115  22.003  0.00  0.00    +0.000 N 
ATOM      3  C   UNL     1       2.647   3.510  20.798  0.00  0.00    +0.000 A 
ATOM      4  N   UNL     1       2.350   4.658  20.231  0.00  0.00    +0.000 NA
ATOM      5  N   UNL     1       2.951   4.807  18.994  0.00  0.00    +0.000 NA
ATOM      6  C   UNL     1       3.679   3.758  18.677  0.00  0.00    +0.000 A 
ATOM      7  S   UNL     1       3.683   2.517  19.857  0.00  0.00    +0.000 S 
ATOM      8  H   UNL     1       1.424   3.648  22.394  0.00  0.00    +0.000 HD
ATOM      9  H   UNL     1       2.170   2.124  22.211  0.00  0.00    +0.000 HD
ENDBRANCH   1   6
BRANCH   1  10
ATOM     10  C   UNL     1       5.913   4.848  17.696  0.00  0.00    +0.000 A 
ATOM     11  N   UNL     1       6.335   4.726  18.984  0.00  0.00    +0.000 NA
ATOM     12  C   UNL     1       7.293   5.572  19.432  0.00  0.00    +0.000 A 
ATOM     13  C   UNL     1       7.872   6.561  18.657  0.00  0.00    +0.000 A 
ATOM     14  C   UNL     1       7.438   6.699  17.344  0.00  0.00    +0.000 A 
ATOM     15  C   UNL     1       6.440   5.836  16.873  0.00  0.00    +0.000 A 
BRANCH  15  16
ATOM     16  N   UNL     1       5.968   6.026  15.525  0.00  0.00    +0.000 N 
ATOM     17  O   UNL     1       5.063   6.850  15.348  0.00  0.00    +0.000 OA
ATOM     18  O   UNL     1       6.561   5.404  14.633  0.00  0.00    +0.000 OA
ENDBRANCH  15  16
ENDBRANCH   1  10
TORSDOF 3
ENDMDL
MODEL 5
REMARK VINA RESULT:      -6.5      1.092      1.364
REMARK  Name = 
REMARK  3 active torsions:
REMARK  status: ('A' for Active; 'I' for Inactive)
REMARK    1  A    between atoms: C_5  and  S_6
REMARK    2  A    between atoms: S_6  and  C_7
REMARK    3  A    between atoms: C_12  and  N_13
REMARK                            x       y       z     vdW  Elec       q    Type
REMARK                         _______ _______ _______ _____ _____    ______ ____
ROOT
ATOM      1  S   UNL     1       2.784   6.361  18.967  0.00  0.00    +0.000 S 
ENDROOT
BRANCH   1   6
ATOM      2  N   UNL     1       7.634   4.285  17.776  0.00  0.00    +0.000 N 
ATOM      3  C   UNL     1       6.426   4.880  17.793  0.00  0.00    +0.000 A 
ATOM      4  N   UNL     1       5.826   5.378  16.735  0.00  0.00    +0.000 NA
ATOM      5  N   UNL     1       4.595   5.931  17.037  0.00  0.00    +0.000 NA
ATOM      6  C   UNL     1       4.316   5.828  18.318  0.00  0.00    +0.000 A 
ATOM      7  S   UNL     1       5.530   5.056  19.247  0.00  0.00    +0.000 S 
ATOM      8  H   UNL     1       8.190   4.413  16.937  0.00  0.00    +0.000 HD
ATOM      9  H   UNL     1       8.169   4.248  18.636  0.00  0.00    +0.000 HD
ENDBRANCH   1   6
BRANCH   1  10
ATOM     10  C   UNL     1       2.266   4.822  19.705  0.00  0.00    +0.000 A 
ATOM     11  N   UNL     1       2.402   4.756  21.058  0.00  0.00    +0.000 NA
ATOM     12  C   UNL     1       2.052   3.609  21.687  0.00  0.00    +0.000 A 
ATOM     13  C   UNL     1       1.564   2.490  21.034  0.00  0.00    +0.000 A 
ATOM     14  C   UNL     1       1.433   2.546  19.653  0.00  0.00    +0.000 A 
ATOM     15  C   UNL     1       1.802   3.724  18.991  0.00  0.00    +0.000 A 
BRANCH  15  16
ATOM     16  N   UNL     1       1.706   3.747  17.553  0.00  0.00    +0.000 N 
ATOM     17  O   UNL     1       2.537   3.088  16.915  0.00  0.00    +0.000 OA
ATOM     18  O   UNL     1       0.748   4.362  17.067  0.00  0.00    +0.000 OA
ENDBRANCH  15  16
ENDBRANCH   1  10
TORSDOF 3
ENDMDL
MODEL 6
REMARK VINA RESULT:      -6.4      2.387      3.058
REMARK  Name = 
REMARK  3 active torsions:
REMARK  status: ('A' for Active; 'I' for Inactive)
REMARK    1  A    between atoms: C_5  and  S_6
REMARK    2  A    between atoms: S_6  and  C_7
REMARK    3  A    between atoms: C_12  and  N_13
REMARK                            x       y       z     vdW  Elec       q    Type
REMARK                         _______ _______ _______ _____ _____    ______ ____
ROOT
ATOM      1  S   UNL     1       4.938   4.096  17.047  0.00  0.00    +0.000 S 
ENDROOT
BRANCH   1   6
ATOM      2  N   UNL     1       8.580   7.668  18.842  0.00  0.00    +0.000 N 
ATOM      3  C   UNL     1       7.671   6.947  18.159  0.00  0.00    +0.000 A 
ATOM      4  N   UNL     1       7.300   7.195  16.922  0.00  0.00    +0.000 NA
ATOM      5  N   UNL     1       6.352   6.298  16.465  0.00  0.00    +0.000 NA
ATOM      6  C   UNL     1       6.043   5.406  17.381  0.00  0.00    +0.000 A 
ATOM      7  S   UNL     1       6.880   5.595  18.863  0.00  0.00    +0.000 S 
ATOM      8  H   UNL     1       8.836   8.565  18.446  0.00  0.00    +0.000 HD
ATOM      9  H   UNL     1       8.556   7.644  19.855  0.00  0.00    +0.000 HD
ENDBRANCH   1   6
BRANCH   1  10
ATOM     10  C   UNL     1       3.770   4.399  18.360  0.00  0.00    +0.000 A 
ATOM     11  N   UNL     1       3.209   5.640  18.360  0.00  0.00    +0.000 NA
ATOM     12  C   UNL     1       2.331   5.951  19.343  0.00  0.00    +0.000 A 
ATOM     13  C   UNL     1       1.967   5.082  20.356  0.00  0.00    +0.000 A 
ATOM     14  C   UNL     1       2.544   3.818  20.369  0.00  0.00    +0.000 A 
ATOM     15  C   UNL     1       3.461   3.488  19.363  0.00  0.00    +0.000 A 
BRANCH  15  16
ATOM     16  N   UNL     1       4.086   2.191  19.421  0.00  0.00    +0.000 N 
ATOM     17  O   UNL     1       3.666   1.320  18.650  0.00  0.00    +0.000 OA
ATOM     18  O   UNL     1       5.053   2.071  20.186  0.00  0.00    +0.000 OA
ENDBRANCH  15  16
ENDBRANCH   1  10
TORSDOF 3
ENDMDL
MODEL 7
REMARK VINA RESULT:      -6.4      2.318      2.850
REMARK  Name = 
REMARK  3 active torsions:
REMARK  status: ('A' for Active; 'I' for Inactive)
REMARK    1  A    between atoms: C_5  and  S_6
REMARK    2  A    between atoms: S_6  and  C_7
REMARK    3  A    between atoms: C_12  and  N_13
REMARK                            x       y       z     vdW  Elec       q    Type
REMARK                         _______ _______ _______ _____ _____    ______ ____
ROOT
ATOM      1  S   UNL     1       5.516   4.862  19.119  0.00  0.00    +0.000 S 
ENDROOT
BRANCH   1   6
ATOM      2  N   UNL     1       6.694   4.510  13.853  0.00  0.00    +0.000 N 
ATOM      3  C   UNL     1       6.687   4.565  15.198  0.00  0.00    +0.000 A 
ATOM      4  N   UNL     1       7.765   4.552  15.950  0.00  0.00    +0.000 NA
ATOM      5  N   UNL     1       7.469   4.618  17.299  0.00  0.00    +0.000 NA
ATOM      6  C   UNL     1       6.173   4.678  17.512  0.00  0.00    +0.000 A 
ATOM      7  S   UNL     1       5.221   4.654  16.087  0.00  0.00    +0.000 S 
ATOM      8  H   UNL     1       7.569   4.241  13.416  0.00  0.00    +0.000 HD
ATOM      9  H   UNL     1       5.864   4.179  13.377  0.00  0.00    +0.000 HD
ENDBRANCH   1   6
BRANCH   1  10
ATOM     10  C   UNL     1       3.938   4.077  18.847  0.00  0.00    +0.000 A 
ATOM     11  N   UNL     1       3.984   2.725  18.689  0.00  0.00    +0.000 NA
ATOM     12  C   UNL     1       2.827   2.063  18.453  0.00  0.00    +0.000 A 
ATOM     13  C   UNL     1       1.592   2.679  18.359  0.00  0.00    +0.000 A 
ATOM     14  C   UNL     1       1.538   4.059  18.508  0.00  0.00    +0.000 A 
ATOM     15  C   UNL     1       2.730   4.755  18.742  0.00  0.00    +0.000 A 
BRANCH  15  16
ATOM     16  N   UNL     1       2.661   6.191  18.844  0.00  0.00    +0.000 N 
ATOM     17  O   UNL     1       2.865   6.847  17.816  0.00  0.00    +0.000 OA
ATOM     18  O   UNL     1       2.323   6.657  19.941  0.00  0.00    +0.000 OA
ENDBRANCH  15  16
ENDBRANCH   1  10
TORSDOF 3
ENDMDL
MODEL 8
REMARK VINA RESULT:      -6.4      1.742      1.962
REMARK  Name = 
REMARK  3 active torsions:
REMARK  status: ('A' for Active; 'I' for Inactive)
REMARK    1  A    between atoms: C_5  and  S_6
REMARK    2  A    between atoms: S_6  and  C_7
REMARK    3  A    between atoms: C_12  and  N_13
REMARK                            x       y       z     vdW  Elec       q    Type
REMARK                         _______ _______ _______ _____ _____    ______ ____
ROOT
ATOM      1  S   UNL     1       4.456   3.247  17.697  0.00  0.00    +0.000 S 
ENDROOT
BRANCH   1   6
ATOM      2  N   UNL     1       8.235   6.982  18.700  0.00  0.00    +0.000 N 
ATOM      3  C   UNL     1       7.325   5.991  18.732  0.00  0.00    +0.000 A 
ATOM      4  N   UNL     1       6.954   5.356  19.821  0.00  0.00    +0.000 NA
ATOM      5  N   UNL     1       6.004   4.383  19.568  0.00  0.00    +0.000 NA
ATOM      6  C   UNL     1       5.696   4.323  18.291  0.00  0.00    +0.000 A 
ATOM      7  S   UNL     1       6.541   5.442  17.306  0.00  0.00    +0.000 S 
ATOM      8  H   UNL     1       8.807   7.099  19.530  0.00  0.00    +0.000 HD
ATOM      9  H   UNL     1       8.713   7.174  17.827  0.00  0.00    +0.000 HD
ENDBRANCH   1   6
BRANCH   1  10
ATOM     10  C   UNL     1       3.350   3.330  19.094  0.00  0.00    +0.000 A 
ATOM     11  N   UNL     1       3.679   2.524  20.141  0.00  0.00    +0.000 NA
ATOM     12  C   UNL     1       2.871   2.516  21.228  0.00  0.00    +0.000 A 
ATOM     13  C   UNL     1       1.723   3.279  21.341  0.00  0.00    +0.000 A 
ATOM     14  C   UNL     1       1.375   4.096  20.272  0.00  0.00    +0.000 A 
ATOM     15  C   UNL     1       2.197   4.105  19.139  0.00  0.00    +0.000 A 
BRANCH  15  16
ATOM     16  N   UNL     1       1.793   4.920  18.021  0.00  0.00    +0.000 N 
ATOM     17  O   UNL     1       1.019   4.417  17.198  0.00  0.00    +0.000 OA
ATOM     18  O   UNL     1       2.191   6.093  18.013  0.00  0.00    +0.000 OA
ENDBRANCH  15  16
ENDBRANCH   1  10
TORSDOF 3
ENDMDL
MODEL 9
REMARK VINA RESULT:      -6.4      2.696      3.915
REMARK  Name = 
REMARK  3 active torsions:
REMARK  status: ('A' for Active; 'I' for Inactive)
REMARK    1  A    between atoms: C_5  and  S_6
REMARK    2  A    between atoms: S_6  and  C_7
REMARK    3  A    between atoms: C_12  and  N_13
REMARK                            x       y       z     vdW  Elec       q    Type
REMARK                         _______ _______ _______ _____ _____    ______ ____
ROOT
ATOM      1  S   UNL     1       6.735   5.070  17.909  0.00  0.00    +0.000 S 
ENDROOT
BRANCH   1   6
ATOM      2  N   UNL     1       6.418   3.848  12.650  0.00  0.00    +0.000 N 
ATOM      3  C   UNL     1       6.692   4.348  13.870  0.00  0.00    +0.000 A 
ATOM      4  N   UNL     1       7.488   5.369  14.096  0.00  0.00    +0.000 NA
ATOM      5  N   UNL     1       7.591   5.672  15.441  0.00  0.00    +0.000 NA
ATOM      6  C   UNL     1       6.866   4.861  16.180  0.00  0.00    +0.000 A 
ATOM      7  S   UNL     1       6.010   3.671  15.294  0.00  0.00    +0.000 S 
ATOM      8  H   UNL     1       7.019   4.152  11.892  0.00  0.00    +0.000 HD
ATOM      9  H   UNL     1       6.101   2.888  12.580  0.00  0.00    +0.000 HD
ENDBRANCH   1   6
BRANCH   1  10
ATOM     10  C   UNL     1       5.008   5.508  17.988  0.00  0.00    +0.000 A 
ATOM     11  N   UNL     1       4.728   6.809  17.698  0.00  0.00    +0.000 NA
ATOM     12  C   UNL     1       3.441   7.221  17.761  0.00  0.00    +0.000 A 
ATOM     13  C   UNL     1       2.383   6.398  18.107  0.00  0.00    +0.000 A 
ATOM     14  C   UNL     1       2.662   5.073  18.415  0.00  0.00    +0.000 A 
ATOM     15  C   UNL     1       3.993   4.638  18.363  0.00  0.00    +0.000 A 
BRANCH  15  16
ATOM     16  N   UNL     1       4.269   3.273  18.733  0.00  0.00    +0.000 N 
ATOM     17  O   UNL     1       3.923   2.385  17.944  0.00  0.00    +0.000 OA
ATOM     18  O   UNL     1       4.905   3.097  19.782  0.00  0.00    +0.000 OA
ENDBRANCH  15  16
ENDBRANCH   1  10
TORSDOF 3
ENDMDL
