MODEL 1
REMARK VINA RESULT:      -8.5      0.000      0.000
REMARK  Name = 
REMARK  7 active torsions:
REMARK  status: ('A' for Active; 'I' for Inactive)
REMARK    1  A    between atoms: C_1  and  O_2
REMARK    2  A    between atoms: O_2  and  C_3
REMARK    3  A    between atoms: C_11  and  O_12
REMARK    4  A    between atoms: C_15  and  C_16
REMARK    5  A    between atoms: C_15  and  C_17
REMARK    6  A    between atoms: C_20  and  C_21
REMARK    7  A    between atoms: C_26  and  O_27
REMARK                            x       y       z     vdW  Elec       q    Type
REMARK                         _______ _______ _______ _____ _____    ______ ____
ROOT
ATOM      1  C   UNL     1       4.005   4.581  17.848  0.00  0.00    +0.000 C 
ATOM      2  C   UNL     1       3.772   5.267  19.176  0.00  0.00    +0.000 C 
ATOM      3  O   UNL     1       4.153   4.849  20.266  0.00  0.00    +0.000 OA
ATOM      4  C   UNL     1       3.092   6.549  19.033  0.00  0.00    +0.000 A 
ATOM      5  C   UNL     1       3.349   7.270  17.863  0.00  0.00    +0.000 A 
ATOM      6  C   UNL     1       2.678   8.474  17.670  0.00  0.00    +0.000 A 
ATOM      7  C   UNL     1       1.761   8.938  18.633  0.00  0.00    +0.000 A 
ATOM      8  C   UNL     1       1.517   8.216  19.811  0.00  0.00    +0.000 A 
ATOM      9  C   UNL     1       2.179   6.996  19.994  0.00  0.00    +0.000 A 
ATOM     10  C   UNL     1       0.566   8.735  20.783  0.00  0.00    +0.000 C 
ATOM     11  C   UNL     1      -0.053   9.885  20.509  0.00  0.00    +0.000 C 
ATOM     12  C   UNL     1       0.150  10.650  19.229  0.00  0.00    +0.000 C 
ATOM     13  C   UNL     1      -1.186  10.690  18.478  0.00  0.00    +0.000 C 
ATOM     14  C   UNL     1       0.614  12.071  19.560  0.00  0.00    +0.000 C 
ATOM     15  O   UNL     1       1.132  10.111  18.319  0.00  0.00    +0.000 OA
ATOM     16  O   UNL     1       4.201   6.843  16.868  0.00  0.00    +0.000 OA
ATOM     17  C   UNL     1       4.922   5.608  17.152  0.00  0.00    +0.000 C 
ENDROOT
BRANCH  17  18
ATOM     18  C   UNL     1       5.565   5.060  15.886  0.00  0.00    +0.000 A 
ATOM     19  C   UNL     1       4.798   4.247  15.027  0.00  0.00    +0.000 A 
ATOM     20  C   UNL     1       5.298   3.825  13.794  0.00  0.00    +0.000 A 
ATOM     21  C   UNL     1       6.579   4.201  13.398  0.00  0.00    +0.000 A 
ATOM     22  C   UNL     1       7.365   4.980  14.247  0.00  0.00    +0.000 A 
ATOM     23  C   UNL     1       6.860   5.399  15.481  0.00  0.00    +0.000 A 
BRANCH  23  24
ATOM     24  O   UNL     1       7.629   6.180  16.297  0.00  0.00    +0.000 OA
ATOM     25  H   UNL     1       7.609   7.089  15.957  0.00  0.00    +0.000 HD
ENDBRANCH  23  24
ENDBRANCH  17  18
BRANCH   1  27
ATOM     26  C   UNL     1       3.583   2.272  17.982  0.00  0.00    +0.000 C 
ATOM     27  O   UNL     1       4.582   3.291  18.042  0.00  0.00    +0.000 OA
ENDBRANCH   1  27
BRANCH   9  28
ATOM     28  O   UNL     1       1.889   6.170  21.046  0.00  0.00    +0.000 OA
ATOM     29  H   UNL     1       1.863   6.675  21.872  0.00  0.00    +0.000 HD
ENDBRANCH   9  28
TORSDOF 4
ENDMDL
MODEL 2
REMARK VINA RESULT:      -7.8      1.148      1.278
REMARK  Name = 
REMARK  7 active torsions:
REMARK  status: ('A' for Active; 'I' for Inactive)
REMARK    1  A    between atoms: C_1  and  O_2
REMARK    2  A    between atoms: O_2  and  C_3
REMARK    3  A    between atoms: C_11  and  O_12
REMARK    4  A    between atoms: C_15  and  C_16
REMARK    5  A    between atoms: C_15  and  C_17
REMARK    6  A    between atoms: C_20  and  C_21
REMARK    7  A    between atoms: C_26  and  O_27
REMARK                            x       y       z     vdW  Elec       q    Type
REMARK                         _______ _______ _______ _____ _____    ______ ____
ROOT
ATOM      1  C   UNL     1       3.285   5.063  18.390  0.00  0.00    +0.000 C 
ATOM      2  C   UNL     1       2.871   5.771  19.662  0.00  0.00    +0.000 C 
ATOM      3  O   UNL     1       2.982   5.312  20.795  0.00  0.00    +0.000 OA
ATOM      4  C   UNL     1       2.378   7.121  19.417  0.00  0.00    +0.000 A 
ATOM      5  C   UNL     1       2.938   7.809  18.337  0.00  0.00    +0.000 A 
ATOM      6  C   UNL     1       2.454   9.080  18.043  0.00  0.00    +0.000 A 
ATOM      7  C   UNL     1       1.422   9.644  18.818  0.00  0.00    +0.000 A 
ATOM      8  C   UNL     1       0.874   8.954  19.909  0.00  0.00    +0.000 A 
ATOM      9  C   UNL     1       1.348   7.668  20.191  0.00  0.00    +0.000 A 
ATOM     10  C   UNL     1      -0.187   9.576  20.687  0.00  0.00    +0.000 C 
ATOM     11  C   UNL     1      -0.610  10.788  20.323  0.00  0.00    +0.000 C 
ATOM     12  C   UNL     1      -0.076  11.526  19.124  0.00  0.00    +0.000 C 
ATOM     13  C   UNL     1      -1.225  11.715  18.128  0.00  0.00    +0.000 C 
ATOM     14  C   UNL     1       0.467  12.885  19.572  0.00  0.00    +0.000 C 
ATOM     15  O   UNL     1       1.001  10.880  18.413  0.00  0.00    +0.000 OA
ATOM     16  O   UNL     1       3.917   7.289  17.518  0.00  0.00    +0.000 OA
ATOM     17  C   UNL     1       4.428   5.981  17.910  0.00  0.00    +0.000 C 
ENDROOT
BRANCH  17  18
ATOM     18  C   UNL     1       5.244   5.364  16.782  0.00  0.00    +0.000 A 
ATOM     19  C   UNL     1       4.933   5.704  15.450  0.00  0.00    +0.000 A 
ATOM     20  C   UNL     1       5.728   5.268  14.389  0.00  0.00    +0.000 A 
ATOM     21  C   UNL     1       6.846   4.478  14.639  0.00  0.00    +0.000 A 
ATOM     22  C   UNL     1       7.154   4.105  15.947  0.00  0.00    +0.000 A 
ATOM     23  C   UNL     1       6.354   4.544  17.006  0.00  0.00    +0.000 A 
BRANCH  23  24
ATOM     24  O   UNL     1       6.674   4.192  18.287  0.00  0.00    +0.000 OA
ATOM     25  H   UNL     1       7.596   4.449  18.452  0.00  0.00    +0.000 HD
ENDBRANCH  23  24
ENDBRANCH  17  18
BRANCH   1  27
ATOM     26  C   UNL     1       2.844   2.797  17.945  0.00  0.00    +0.000 C 
ATOM     27  O   UNL     1       3.667   3.717  18.664  0.00  0.00    +0.000 OA
ENDBRANCH   1  27
BRANCH   9  28
ATOM     28  O   UNL     1       0.768   6.879  21.147  0.00  0.00    +0.000 OA
ATOM     29  H   UNL     1       1.356   6.145  21.379  0.00  0.00    +0.000 HD
ENDBRANCH   9  28
TORSDOF 4
ENDMDL
MODEL 3
REMARK VINA RESULT:      -7.6      3.057      8.749
REMARK  Name = 
REMARK  7 active torsions:
REMARK  status: ('A' for Active; 'I' for Inactive)
REMARK    1  A    between atoms: C_1  and  O_2
REMARK    2  A    between atoms: O_2  and  C_3
REMARK    3  A    between atoms: C_11  and  O_12
REMARK    4  A    between atoms: C_15  and  C_16
REMARK    5  A    between atoms: C_15  and  C_17
REMARK    6  A    between atoms: C_20  and  C_21
REMARK    7  A    between atoms: C_26  and  O_27
REMARK                            x       y       z     vdW  Elec       q    Type
REMARK                         _______ _______ _______ _____ _____    ______ ____
ROOT
ATOM      1  C   UNL     1       0.354  11.191  19.342  0.00  0.00    +0.000 C 
ATOM      2  C   UNL     1       1.554  10.472  18.767  0.00  0.00    +0.000 C 
ATOM      3  O   UNL     1       2.398  10.978  18.033  0.00  0.00    +0.000 OA
ATOM      4  C   UNL     1       1.660   9.095  19.235  0.00  0.00    +0.000 A 
ATOM      5  C   UNL     1       1.188   8.831  20.524  0.00  0.00    +0.000 A 
ATOM      6  C   UNL     1       1.227   7.518  20.984  0.00  0.00    +0.000 A 
ATOM      7  C   UNL     1       1.724   6.491  20.159  0.00  0.00    +0.000 A 
ATOM      8  C   UNL     1       2.209   6.764  18.871  0.00  0.00    +0.000 A 
ATOM      9  C   UNL     1       2.152   8.082  18.403  0.00  0.00    +0.000 A 
ATOM     10  C   UNL     1       2.721   5.674  18.054  0.00  0.00    +0.000 C 
ATOM     11  C   UNL     1       2.699   4.440  18.561  0.00  0.00    +0.000 C 
ATOM     12  C   UNL     1       2.135   4.113  19.918  0.00  0.00    +0.000 C 
ATOM     13  C   UNL     1       0.934   3.180  19.724  0.00  0.00    +0.000 C 
ATOM     14  C   UNL     1       3.213   3.423  20.758  0.00  0.00    +0.000 C 
ATOM     15  O   UNL     1       1.677   5.236  20.701  0.00  0.00    +0.000 OA
ATOM     16  O   UNL     1       0.650   9.788  21.356  0.00  0.00    +0.000 OA
ATOM     17  C   UNL     1       0.692  11.153  20.847  0.00  0.00    +0.000 C 
ENDROOT
BRANCH  17  18
ATOM     18  C   UNL     1      -0.206  12.062  21.675  0.00  0.00    +0.000 A 
ATOM     19  C   UNL     1      -1.322  11.505  22.332  0.00  0.00    +0.000 A 
ATOM     20  C   UNL     1      -2.102  12.266  23.205  0.00  0.00    +0.000 A 
ATOM     21  C   UNL     1      -1.785  13.603  23.431  0.00  0.00    +0.000 A 
ATOM     22  C   UNL     1      -0.704  14.181  22.766  0.00  0.00    +0.000 A 
ATOM     23  C   UNL     1       0.073  13.414  21.894  0.00  0.00    +0.000 A 
BRANCH  23  24
ATOM     24  O   UNL     1       1.144  13.983  21.263  0.00  0.00    +0.000 OA
ATOM     25  H   UNL     1       0.846  14.803  20.838  0.00  0.00    +0.000 HD
ENDBRANCH  23  24
ENDBRANCH  17  18
BRANCH   1  27
ATOM     26  C   UNL     1      -1.033  12.665  18.147  0.00  0.00    +0.000 C 
ATOM     27  O   UNL     1       0.234  12.498  18.784  0.00  0.00    +0.000 OA
ENDBRANCH   1  27
BRANCH   9  28
ATOM     28  O   UNL     1       2.473   8.404  17.112  0.00  0.00    +0.000 OA
ATOM     29  H   UNL     1       1.813   9.009  16.743  0.00  0.00    +0.000 HD
ENDBRANCH   9  28
TORSDOF 4
ENDMDL
MODEL 4
REMARK VINA RESULT:      -7.4      1.530      7.559
REMARK  Name = 
REMARK  7 active torsions:
REMARK  status: ('A' for Active; 'I' for Inactive)
REMARK    1  A    between atoms: C_1  and  O_2
REMARK    2  A    between atoms: O_2  and  C_3
REMARK    3  A    between atoms: C_11  and  O_12
REMARK    4  A    between atoms: C_15  and  C_16
REMARK    5  A    between atoms: C_15  and  C_17
REMARK    6  A    between atoms: C_20  and  C_21
REMARK    7  A    between atoms: C_26  and  O_27
REMARK                            x       y       z     vdW  Elec       q    Type
REMARK                         _______ _______ _______ _____ _____    ______ ____
ROOT
ATOM      1  C   UNL     1       1.265   9.077  20.529  0.00  0.00    +0.000 C 
ATOM      2  C   UNL     1       1.278   7.566  20.455  0.00  0.00    +0.000 C 
ATOM      3  O   UNL     1       0.512   6.820  21.060  0.00  0.00    +0.000 OA
ATOM      4  C   UNL     1       2.271   7.059  19.514  0.00  0.00    +0.000 A 
ATOM      5  C   UNL     1       2.544   7.856  18.399  0.00  0.00    +0.000 A 
ATOM      6  C   UNL     1       3.523   7.428  17.507  0.00  0.00    +0.000 A 
ATOM      7  C   UNL     1       4.217   6.224  17.739  0.00  0.00    +0.000 A 
ATOM      8  C   UNL     1       3.928   5.422  18.853  0.00  0.00    +0.000 A 
ATOM      9  C   UNL     1       2.956   5.864  19.758  0.00  0.00    +0.000 A 
ATOM     10  C   UNL     1       4.664   4.182  19.050  0.00  0.00    +0.000 C 
ATOM     11  C   UNL     1       5.604   3.857  18.161  0.00  0.00    +0.000 C 
ATOM     12  C   UNL     1       5.971   4.726  16.988  0.00  0.00    +0.000 C 
ATOM     13  C   UNL     1       7.429   5.166  17.156  0.00  0.00    +0.000 C 
ATOM     14  C   UNL     1       5.804   3.923  15.695  0.00  0.00    +0.000 C 
ATOM     15  O   UNL     1       5.183   5.924  16.818  0.00  0.00    +0.000 OA
ATOM     16  O   UNL     1       1.930   9.063  18.147  0.00  0.00    +0.000 OA
ATOM     17  C   UNL     1       0.871   9.431  19.080  0.00  0.00    +0.000 C 
ENDROOT
BRANCH  17  18
ATOM     18  C   UNL     1       0.496  10.897  18.913  0.00  0.00    +0.000 A 
ATOM     19  C   UNL     1       1.513  11.871  18.956  0.00  0.00    +0.000 A 
ATOM     20  C   UNL     1       1.241  13.213  18.682  0.00  0.00    +0.000 A 
ATOM     21  C   UNL     1      -0.057  13.608  18.368  0.00  0.00    +0.000 A 
ATOM     22  C   UNL     1      -1.083  12.664  18.351  0.00  0.00    +0.000 A 
ATOM     23  C   UNL     1      -0.805  11.322  18.626  0.00  0.00    +0.000 A 
BRANCH  23  24
ATOM     24  O   UNL     1      -1.813  10.400  18.587  0.00  0.00    +0.000 OA
ATOM     25  H   UNL     1      -2.072  10.193  19.499  0.00  0.00    +0.000 HD
ENDBRANCH  23  24
ENDBRANCH  17  18
BRANCH   1  27
ATOM     26  C   UNL     1       0.983   9.578  22.809  0.00  0.00    +0.000 C 
ATOM     27  O   UNL     1       0.352   9.524  21.528  0.00  0.00    +0.000 OA
ENDBRANCH   1  27
BRANCH   9  28
ATOM     28  O   UNL     1       2.720   5.210  20.938  0.00  0.00    +0.000 OA
ATOM     29  H   UNL     1       2.640   5.846  21.663  0.00  0.00    +0.000 HD
ENDBRANCH   9  28
TORSDOF 4
ENDMDL
MODEL 5
REMARK VINA RESULT:      -7.2      1.476      7.524
REMARK  Name = 
REMARK  7 active torsions:
REMARK  status: ('A' for Active; 'I' for Inactive)
REMARK    1  A    between atoms: C_1  and  O_2
REMARK    2  A    between atoms: O_2  and  C_3
REMARK    3  A    between atoms: C_11  and  O_12
REMARK    4  A    between atoms: C_15  and  C_16
REMARK    5  A    between atoms: C_15  and  C_17
REMARK    6  A    between atoms: C_20  and  C_21
REMARK    7  A    between atoms: C_26  and  O_27
REMARK                            x       y       z     vdW  Elec       q    Type
REMARK                         _______ _______ _______ _____ _____    ______ ____
ROOT
ATOM      1  C   UNL     1       1.174   9.273  20.583  0.00  0.00    +0.000 C 
ATOM      2  C   UNL     1       1.263   7.767  20.476  0.00  0.00    +0.000 C 
ATOM      3  O   UNL     1       0.593   6.970  21.126  0.00  0.00    +0.000 OA
ATOM      4  C   UNL     1       2.199   7.333  19.445  0.00  0.00    +0.000 A 
ATOM      5  C   UNL     1       2.333   8.163  18.328  0.00  0.00    +0.000 A 
ATOM      6  C   UNL     1       3.254   7.806  17.348  0.00  0.00    +0.000 A 
ATOM      7  C   UNL     1       4.030   6.640  17.494  0.00  0.00    +0.000 A 
ATOM      8  C   UNL     1       3.881   5.804  18.611  0.00  0.00    +0.000 A 
ATOM      9  C   UNL     1       2.967   6.175  19.604  0.00  0.00    +0.000 A 
ATOM     10  C   UNL     1       4.698   4.604  18.719  0.00  0.00    +0.000 C 
ATOM     11  C   UNL     1       5.575   4.347  17.748  0.00  0.00    +0.000 C 
ATOM     12  C   UNL     1       5.793   5.256  16.567  0.00  0.00    +0.000 C 
ATOM     13  C   UNL     1       7.234   5.775  16.622  0.00  0.00    +0.000 C 
ATOM     14  C   UNL     1       5.562   4.467  15.276  0.00  0.00    +0.000 C 
ATOM     15  O   UNL     1       4.929   6.410  16.490  0.00  0.00    +0.000 OA
ATOM     16  O   UNL     1       1.634   9.338  18.155  0.00  0.00    +0.000 OA
ATOM     17  C   UNL     1       0.640   9.630  19.180  0.00  0.00    +0.000 C 
ENDROOT
BRANCH  17  18
ATOM     18  C   UNL     1       0.172  11.075  19.078  0.00  0.00    +0.000 A 
ATOM     19  C   UNL     1      -1.179  11.376  19.345  0.00  0.00    +0.000 A 
ATOM     20  C   UNL     1      -1.630  12.696  19.390  0.00  0.00    +0.000 A 
ATOM     21  C   UNL     1      -0.740  13.741  19.160  0.00  0.00    +0.000 A 
ATOM     22  C   UNL     1       0.594  13.464  18.863  0.00  0.00    +0.000 A 
ATOM     23  C   UNL     1       1.040  12.140  18.819  0.00  0.00    +0.000 A 
BRANCH  23  24
ATOM     24  O   UNL     1       2.353  11.877  18.548  0.00  0.00    +0.000 OA
ATOM     25  H   UNL     1       2.738  11.422  19.316  0.00  0.00    +0.000 HD
ENDBRANCH  23  24
ENDBRANCH  17  18
BRANCH   1  27
ATOM     26  C   UNL     1       1.012   9.542  22.914  0.00  0.00    +0.000 C 
ATOM     27  O   UNL     1       0.325   9.652  21.665  0.00  0.00    +0.000 OA
ENDBRANCH   1  27
BRANCH   9  28
ATOM     28  O   UNL     1       2.867   5.489  20.785  0.00  0.00    +0.000 OA
ATOM     29  H   UNL     1       3.736   5.419  21.207  0.00  0.00    +0.000 HD
ENDBRANCH   9  28
TORSDOF 4
ENDMDL
MODEL 6
REMARK VINA RESULT:      -7.2      2.729      8.618
REMARK  Name = 
REMARK  7 active torsions:
REMARK  status: ('A' for Active; 'I' for Inactive)
REMARK    1  A    between atoms: C_1  and  O_2
REMARK    2  A    between atoms: O_2  and  C_3
REMARK    3  A    between atoms: C_11  and  O_12
REMARK    4  A    between atoms: C_15  and  C_16
REMARK    5  A    between atoms: C_15  and  C_17
REMARK    6  A    between atoms: C_20  and  C_21
REMARK    7  A    between atoms: C_26  and  O_27
REMARK                            x       y       z     vdW  Elec       q    Type
REMARK                         _______ _______ _______ _____ _____    ______ ____
ROOT
ATOM      1  C   UNL     1       0.394  10.581  19.399  0.00  0.00    +0.000 C 
ATOM      2  C   UNL     1       1.607   9.986  18.718  0.00  0.00    +0.000 C 
ATOM      3  O   UNL     1       2.360  10.590  17.960  0.00  0.00    +0.000 OA
ATOM      4  C   UNL     1       1.850   8.603  19.112  0.00  0.00    +0.000 A 
ATOM      5  C   UNL     1       1.483   8.247  20.414  0.00  0.00    +0.000 A 
ATOM      6  C   UNL     1       1.653   6.923  20.806  0.00  0.00    +0.000 A 
ATOM      7  C   UNL     1       2.176   5.976  19.904  0.00  0.00    +0.000 A 
ATOM      8  C   UNL     1       2.554   6.343  18.604  0.00  0.00    +0.000 A 
ATOM      9  C   UNL     1       2.365   7.671  18.205  0.00  0.00    +0.000 A 
ATOM     10  C   UNL     1       3.097   5.334  17.707  0.00  0.00    +0.000 C 
ATOM     11  C   UNL     1       3.204   4.082  18.155  0.00  0.00    +0.000 C 
ATOM     12  C   UNL     1       2.754   3.651  19.525  0.00  0.00    +0.000 C 
ATOM     13  C   UNL     1       1.620   2.634  19.359  0.00  0.00    +0.000 C 
ATOM     14  C   UNL     1       3.934   3.015  20.265  0.00  0.00    +0.000 C 
ATOM     15  O   UNL     1       2.262   4.699  20.387  0.00  0.00    +0.000 OA
ATOM     16  O   UNL     1       0.926   9.120  21.322  0.00  0.00    +0.000 OA
ATOM     17  C   UNL     1       0.829  10.505  20.877  0.00  0.00    +0.000 C 
ENDROOT
BRANCH  17  18
ATOM     18  C   UNL     1      -0.083  11.302  21.801  0.00  0.00    +0.000 A 
ATOM     19  C   UNL     1      -0.105  12.707  21.692  0.00  0.00    +0.000 A 
ATOM     20  C   UNL     1      -1.013  13.474  22.424  0.00  0.00    +0.000 A 
ATOM     21  C   UNL     1      -1.911  12.851  23.285  0.00  0.00    +0.000 A 
ATOM     22  C   UNL     1      -1.884  11.464  23.431  0.00  0.00    +0.000 A 
ATOM     23  C   UNL     1      -0.973  10.701  22.695  0.00  0.00    +0.000 A 
BRANCH  23  24
ATOM     24  O   UNL     1      -0.967   9.341  22.828  0.00  0.00    +0.000 OA
ATOM     25  H   UNL     1      -0.512   9.118  23.657  0.00  0.00    +0.000 HD
ENDBRANCH  23  24
ENDBRANCH  17  18
BRANCH   1  27
ATOM     26  C   UNL     1      -1.121  11.954  18.237  0.00  0.00    +0.000 C 
ATOM     27  O   UNL     1       0.137  11.896  18.912  0.00  0.00    +0.000 OA
ENDBRANCH   1  27
BRANCH   9  28
ATOM     28  O   UNL     1       2.577   8.073  16.914  0.00  0.00    +0.000 OA
ATOM     29  H   UNL     1       3.494   8.361  16.799  0.00  0.00    +0.000 HD
ENDBRANCH   9  28
TORSDOF 4
ENDMDL
MODEL 7
REMARK VINA RESULT:      -7.0      3.911      7.215
REMARK  Name = 
REMARK  7 active torsions:
REMARK  status: ('A' for Active; 'I' for Inactive)
REMARK    1  A    between atoms: C_1  and  O_2
REMARK    2  A    between atoms: O_2  and  C_3
REMARK    3  A    between atoms: C_11  and  O_12
REMARK    4  A    between atoms: C_15  and  C_16
REMARK    5  A    between atoms: C_15  and  C_17
REMARK    6  A    between atoms: C_20  and  C_21
REMARK    7  A    between atoms: C_26  and  O_27
REMARK                            x       y       z     vdW  Elec       q    Type
REMARK                         _______ _______ _______ _____ _____    ______ ____
ROOT
ATOM      1  C   UNL     1       0.146  10.252  21.145  0.00  0.00    +0.000 C 
ATOM      2  C   UNL     1      -0.475  11.624  21.289  0.00  0.00    +0.000 C 
ATOM      3  O   UNL     1      -0.033  12.532  21.987  0.00  0.00    +0.000 OA
ATOM      4  C   UNL     1      -1.648  11.800  20.440  0.00  0.00    +0.000 A 
ATOM      5  C   UNL     1      -1.654  11.109  19.225  0.00  0.00    +0.000 A 
ATOM      6  C   UNL     1      -2.780  11.213  18.413  0.00  0.00    +0.000 A 
ATOM      7  C   UNL     1      -3.879  11.993  18.821  0.00  0.00    +0.000 A 
ATOM      8  C   UNL     1      -3.861  12.694  20.036  0.00  0.00    +0.000 A 
ATOM      9  C   UNL     1      -2.736  12.573  20.859  0.00  0.00    +0.000 A 
ATOM     10  C   UNL     1      -5.017  13.494  20.416  0.00  0.00    +0.000 C 
ATOM     11  C   UNL     1      -6.066  13.520  19.592  0.00  0.00    +0.000 C 
ATOM     12  C   UNL     1      -6.132  12.733  18.310  0.00  0.00    +0.000 C 
ATOM     13  C   UNL     1      -7.277  11.723  18.428  0.00  0.00    +0.000 C 
ATOM     14  C   UNL     1      -6.387  13.692  17.144  0.00  0.00    +0.000 C 
ATOM     15  O   UNL     1      -4.944  11.990  17.963  0.00  0.00    +0.000 OA
ATOM     16  O   UNL     1      -0.626  10.297  18.797  0.00  0.00    +0.000 OA
ATOM     17  C   UNL     1       0.551  10.274  19.657  0.00  0.00    +0.000 C 
ENDROOT
BRANCH  17  18
ATOM     18  C   UNL     1       1.469   9.121  19.278  0.00  0.00    +0.000 A 
ATOM     19  C   UNL     1       1.559   8.009  20.140  0.00  0.00    +0.000 A 
ATOM     20  C   UNL     1       2.285   6.872  19.779  0.00  0.00    +0.000 A 
ATOM     21  C   UNL     1       2.942   6.829  18.553  0.00  0.00    +0.000 A 
ATOM     22  C   UNL     1       2.892   7.931  17.700  0.00  0.00    +0.000 A 
ATOM     23  C   UNL     1       2.163   9.066  18.066  0.00  0.00    +0.000 A 
BRANCH  23  24
ATOM     24  O   UNL     1       2.102  10.134  17.215  0.00  0.00    +0.000 OA
ATOM     25  H   UNL     1       2.097  10.947  17.746  0.00  0.00    +0.000 HD
ENDBRANCH  23  24
ENDBRANCH  17  18
BRANCH   1  27
ATOM     26  C   UNL     1       0.801   9.393  23.234  0.00  0.00    +0.000 C 
ATOM     27  O   UNL     1       1.227  10.090  22.061  0.00  0.00    +0.000 OA
ENDBRANCH   1  27
BRANCH   9  28
ATOM     28  O   UNL     1      -2.702  13.111  22.118  0.00  0.00    +0.000 OA
ATOM     29  H   UNL     1      -2.235  13.959  22.107  0.00  0.00    +0.000 HD
ENDBRANCH   9  28
TORSDOF 4
ENDMDL
MODEL 8
REMARK VINA RESULT:      -6.9      3.029      8.286
REMARK  Name = 
REMARK  7 active torsions:
REMARK  status: ('A' for Active; 'I' for Inactive)
REMARK    1  A    between atoms: C_1  and  O_2
REMARK    2  A    between atoms: O_2  and  C_3
REMARK    3  A    between atoms: C_11  and  O_12
REMARK    4  A    between atoms: C_15  and  C_16
REMARK    5  A    between atoms: C_15  and  C_17
REMARK    6  A    between atoms: C_20  and  C_21
REMARK    7  A    between atoms: C_26  and  O_27
REMARK                            x       y       z     vdW  Elec       q    Type
REMARK                         _______ _______ _______ _____ _____    ______ ____
ROOT
ATOM      1  C   UNL     1       1.467  12.734  20.822  0.00  0.00    +0.000 C 
ATOM      2  C   UNL     1       0.752  11.478  21.269  0.00  0.00    +0.000 C 
ATOM      3  O   UNL     1      -0.093  11.422  22.157  0.00  0.00    +0.000 OA
ATOM      4  C   UNL     1       1.120  10.311  20.476  0.00  0.00    +0.000 A 
ATOM      5  C   UNL     1       1.445  10.539  19.135  0.00  0.00    +0.000 A 
ATOM      6  C   UNL     1       1.851   9.456  18.362  0.00  0.00    +0.000 A 
ATOM      7  C   UNL     1       1.933   8.169  18.929  0.00  0.00    +0.000 A 
ATOM      8  C   UNL     1       1.592   7.945  20.271  0.00  0.00    +0.000 A 
ATOM      9  C   UNL     1       1.203   9.039  21.052  0.00  0.00    +0.000 A 
ATOM     10  C   UNL     1       1.685   6.598  20.816  0.00  0.00    +0.000 C 
ATOM     11  C   UNL     1       2.106   5.619  20.013  0.00  0.00    +0.000 C 
ATOM     12  C   UNL     1       2.529   5.844  18.585  0.00  0.00    +0.000 C 
ATOM     13  C   UNL     1       4.013   5.480  18.464  0.00  0.00    +0.000 C 
ATOM     14  C   UNL     1       1.688   4.955  17.665  0.00  0.00    +0.000 C 
ATOM     15  O   UNL     1       2.380   7.190  18.086  0.00  0.00    +0.000 OA
ATOM     16  O   UNL     1       1.427  11.782  18.541  0.00  0.00    +0.000 OA
ATOM     17  C   UNL     1       0.936  12.868  19.380  0.00  0.00    +0.000 C 
ENDROOT
BRANCH  17  18
ATOM     18  C   UNL     1       1.262  14.218  18.755  0.00  0.00    +0.000 A 
ATOM     19  C   UNL     1       0.307  15.252  18.827  0.00  0.00    +0.000 A 
ATOM     20  C   UNL     1       0.605  16.542  18.385  0.00  0.00    +0.000 A 
ATOM     21  C   UNL     1       1.861  16.821  17.854  0.00  0.00    +0.000 A 
ATOM     22  C   UNL     1       2.809  15.804  17.745  0.00  0.00    +0.000 A 
ATOM     23  C   UNL     1       2.506  14.514  18.190  0.00  0.00    +0.000 A 
BRANCH  23  24
ATOM     24  O   UNL     1       3.448  13.528  18.099  0.00  0.00    +0.000 OA
ATOM     25  H   UNL     1       3.694  13.258  18.999  0.00  0.00    +0.000 HD
ENDBRANCH  23  24
ENDBRANCH  17  18
BRANCH   1  27
ATOM     26  C   UNL     1       2.293  14.666  21.878  0.00  0.00    +0.000 C 
ATOM     27  O   UNL     1       1.154  13.826  21.684  0.00  0.00    +0.000 OA
ENDBRANCH   1  27
BRANCH   9  28
ATOM     28  O   UNL     1       0.992   8.924  22.400  0.00  0.00    +0.000 OA
ATOM     29  H   UNL     1       0.152   9.339  22.645  0.00  0.00    +0.000 HD
ENDBRANCH   9  28
TORSDOF 4
ENDMDL
MODEL 9
REMARK VINA RESULT:      -6.8      3.158      8.826
REMARK  Name = 
REMARK  7 active torsions:
REMARK  status: ('A' for Active; 'I' for Inactive)
REMARK    1  A    between atoms: C_1  and  O_2
REMARK    2  A    between atoms: O_2  and  C_3
REMARK    3  A    between atoms: C_11  and  O_12
REMARK    4  A    between atoms: C_15  and  C_16
REMARK    5  A    between atoms: C_15  and  C_17
REMARK    6  A    between atoms: C_20  and  C_21
REMARK    7  A    between atoms: C_26  and  O_27
REMARK                            x       y       z     vdW  Elec       q    Type
REMARK                         _______ _______ _______ _____ _____    ______ ____
ROOT
ATOM      1  C   UNL     1       0.461  11.418  19.359  0.00  0.00    +0.000 C 
ATOM      2  C   UNL     1       1.586  10.644  18.707  0.00  0.00    +0.000 C 
ATOM      3  O   UNL     1       2.378  11.102  17.889  0.00  0.00    +0.000 OA
ATOM      4  C   UNL     1       1.689   9.278  19.206  0.00  0.00    +0.000 A 
ATOM      5  C   UNL     1       1.322   9.066  20.538  0.00  0.00    +0.000 A 
ATOM      6  C   UNL     1       1.360   7.767  21.033  0.00  0.00    +0.000 A 
ATOM      7  C   UNL     1       1.754   6.701  20.201  0.00  0.00    +0.000 A 
ATOM      8  C   UNL     1       2.135   6.922  18.869  0.00  0.00    +0.000 A 
ATOM      9  C   UNL     1       2.078   8.228  18.368  0.00  0.00    +0.000 A 
ATOM     10  C   UNL     1       2.543   5.793  18.046  0.00  0.00    +0.000 C 
ATOM     11  C   UNL     1       2.528   4.576  18.591  0.00  0.00    +0.000 C 
ATOM     12  C   UNL     1       2.071   4.305  20.000  0.00  0.00    +0.000 C 
ATOM     13  C   UNL     1       0.831   3.407  19.937  0.00  0.00    +0.000 C 
ATOM     14  C   UNL     1       3.196   3.604  20.767  0.00  0.00    +0.000 C 
ATOM     15  O   UNL     1       1.716   5.464  20.783  0.00  0.00    +0.000 OA
ATOM     16  O   UNL     1       0.885  10.063  21.383  0.00  0.00    +0.000 OA
ATOM     17  C   UNL     1       0.924  11.412  20.830  0.00  0.00    +0.000 C 
ENDROOT
BRANCH  17  18
ATOM     18  C   UNL     1       0.128  12.372  21.703  0.00  0.00    +0.000 A 
ATOM     19  C   UNL     1       0.458  13.742  21.687  0.00  0.00    +0.000 A 
ATOM     20  C   UNL     1      -0.320  14.681  22.368  0.00  0.00    +0.000 A 
ATOM     21  C   UNL     1      -1.438  14.266  23.085  0.00  0.00    +0.000 A 
ATOM     22  C   UNL     1      -1.764  12.911  23.139  0.00  0.00    +0.000 A 
ATOM     23  C   UNL     1      -0.981  11.976  22.455  0.00  0.00    +0.000 A 
BRANCH  23  24
ATOM     24  O   UNL     1      -1.319  10.652  22.496  0.00  0.00    +0.000 OA
ATOM     25  H   UNL     1      -2.153  10.565  22.987  0.00  0.00    +0.000 HD
ENDBRANCH  23  24
ENDBRANCH  17  18
BRANCH   1  27
ATOM     26  C   UNL     1      -0.982  12.907  18.250  0.00  0.00    +0.000 C 
ATOM     27  O   UNL     1       0.333  12.712  18.773  0.00  0.00    +0.000 OA
ENDBRANCH   1  27
BRANCH   9  28
ATOM     28  O   UNL     1       2.297   8.502  17.045  0.00  0.00    +0.000 OA
ATOM     29  H   UNL     1       1.855   9.327  16.795  0.00  0.00    +0.000 HD
ENDBRANCH   9  28
TORSDOF 4
ENDMDL
