MODEL 1
REMARK VINA RESULT:      -7.6      0.000      0.000
REMARK  Name = 
REMARK  6 active torsions:
REMARK  status: ('A' for Active; 'I' for Inactive)
REMARK    1  A    between atoms: C_1  and  C_2
REMARK    2  A    between atoms: C_7  and  C_9
REMARK    3  A    between atoms: C_9  and  S_10
REMARK    4  A    between atoms: S_10  and  C_11
REMARK    5  A    between atoms: C_14  and  C_15
REMARK    6  A    between atoms: N_23  and  N_24
REMARK                            x       y       z     vdW  Elec       q    Type
REMARK                         _______ _______ _______ _____ _____    ______ ____
ROOT
ATOM      1  C   UNL     1       1.445   8.482  19.866  0.00  0.00    +0.000 A 
ATOM      2  N   UNL     1       1.449   9.220  18.785  0.00  0.00    +0.000 NA
ATOM      3  N   UNL     1       2.210   8.560  17.843  0.00  0.00    +0.000 NA
ATOM      4  C   UNL     1       2.667   7.428  18.362  0.00  0.00    +0.000 A 
ATOM      5  N   UNL     1       2.196   7.348  19.665  0.00  0.00    +0.000 N 
ENDROOT
BRANCH   4   6
ATOM      6  C   UNL     1       3.530   6.443  17.686  0.00  0.00    +0.000 A 
ATOM      7  C   UNL     1       4.806   6.825  17.225  0.00  0.00    +0.000 A 
ATOM      8  C   UNL     1       5.631   5.931  16.534  0.00  0.00    +0.000 A 
ATOM      9  C   UNL     1       5.213   4.623  16.329  0.00  0.00    +0.000 A 
ATOM     10 CL   UNL     1       6.225   3.524  15.479  0.00  0.00    +0.000 Cl
ATOM     11  C   UNL     1       3.979   4.201  16.810  0.00  0.00    +0.000 A 
ATOM     12  C   UNL     1       3.139   5.104  17.480  0.00  0.00    +0.000 A 
ATOM     13 CL   UNL     1       1.604   4.481  17.983  0.00  0.00    +0.000 Cl
ENDBRANCH   4   6
BRANCH   5  14
ATOM     14  N   UNL     1       2.447   6.305  20.637  0.00  0.00    +0.000 N 
ATOM     15  H   UNL     1       2.222   6.608  21.583  0.00  0.00    +0.000 HD
ATOM     16  H   UNL     1       1.833   5.509  20.459  0.00  0.00    +0.000 HD
ENDBRANCH   5  14
BRANCH   1  17
ATOM     17  S   UNL     1       0.640   8.820  21.364  0.00  0.00    +0.000 S 
BRANCH  17  18
ATOM     18  C   UNL     1       0.353  10.607  21.221  0.00  0.00    +0.000 C 
BRANCH  18  25
ATOM     19  C   UNL     1      -5.844  14.416  23.346  0.00  0.00    +0.000 C 
ATOM     20  C   UNL     1      -4.689  13.500  23.213  0.00  0.00    +0.000 A 
ATOM     21  C   UNL     1      -4.175  12.601  24.126  0.00  0.00    +0.000 A 
ATOM     22  N   UNL     1      -3.043  11.924  23.728  0.00  0.00    +0.000 NA
ATOM     23  C   UNL     1      -2.714  12.290  22.519  0.00  0.00    +0.000 A 
ATOM     24  N   UNL     1      -1.655  11.878  21.754  0.00  0.00    +0.000 N 
ATOM     25  C   UNL     1      -0.672  11.048  22.258  0.00  0.00    +0.000 C 
ATOM     26  O   UNL     1      -0.549  10.695  23.429  0.00  0.00    +0.000 OA
ATOM     27  S   UNL     1      -3.745  13.432  21.773  0.00  0.00    +0.000 S 
ATOM     28  H   UNL     1      -1.629  12.195  20.795  0.00  0.00    +0.000 HD
ENDBRANCH  18  25
ENDBRANCH  17  18
ENDBRANCH   1  17
TORSDOF 5
ENDMDL
MODEL 2
REMARK VINA RESULT:      -7.5      5.138     10.464
REMARK  Name = 
REMARK  6 active torsions:
REMARK  status: ('A' for Active; 'I' for Inactive)
REMARK    1  A    between atoms: C_1  and  C_2
REMARK    2  A    between atoms: C_7  and  C_9
REMARK    3  A    between atoms: C_9  and  S_10
REMARK    4  A    between atoms: S_10  and  C_11
REMARK    5  A    between atoms: C_14  and  C_15
REMARK    6  A    between atoms: N_23  and  N_24
REMARK                            x       y       z     vdW  Elec       q    Type
REMARK                         _______ _______ _______ _____ _____    ______ ____
ROOT
ATOM      1  C   UNL     1       3.092   6.408  18.717  0.00  0.00    +0.000 A 
ATOM      2  N   UNL     1       3.213   7.413  17.888  0.00  0.00    +0.000 NA
ATOM      3  N   UNL     1       2.493   8.465  18.413  0.00  0.00    +0.000 NA
ATOM      4  C   UNL     1       1.934   8.089  19.555  0.00  0.00    +0.000 A 
ATOM      5  N   UNL     1       2.297   6.767  19.779  0.00  0.00    +0.000 N 
ENDROOT
BRANCH   4   6
ATOM      6  C   UNL     1       1.071   8.913  20.420  0.00  0.00    +0.000 A 
ATOM      7  C   UNL     1       1.192   8.827  21.821  0.00  0.00    +0.000 A 
ATOM      8  C   UNL     1       0.355   9.557  22.673  0.00  0.00    +0.000 A 
ATOM      9  C   UNL     1      -0.591  10.421  22.137  0.00  0.00    +0.000 A 
ATOM     10 CL   UNL     1      -1.621  11.317  23.183  0.00  0.00    +0.000 Cl
ATOM     11  C   UNL     1      -0.706  10.563  20.759  0.00  0.00    +0.000 A 
ATOM     12  C   UNL     1       0.115   9.812  19.904  0.00  0.00    +0.000 A 
ATOM     13 CL   UNL     1      -0.158  10.030  18.208  0.00  0.00    +0.000 Cl
ENDBRANCH   4   6
BRANCH   5  14
ATOM     14  N   UNL     1       1.912   5.917  20.886  0.00  0.00    +0.000 N 
ATOM     15  H   UNL     1       0.906   5.930  21.040  0.00  0.00    +0.000 HD
ATOM     16  H   UNL     1       2.137   4.944  20.670  0.00  0.00    +0.000 HD
ENDBRANCH   5  14
BRANCH   1  17
ATOM     17  S   UNL     1       3.795   4.831  18.564  0.00  0.00    +0.000 S 
BRANCH  17  18
ATOM     18  C   UNL     1       5.518   5.161  19.032  0.00  0.00    +0.000 C 
BRANCH  18  25
ATOM     19  C   UNL     1       6.888   3.736  11.716  0.00  0.00    +0.000 C 
ATOM     20  C   UNL     1       6.862   4.244  13.106  0.00  0.00    +0.000 A 
ATOM     21  C   UNL     1       7.731   5.109  13.738  0.00  0.00    +0.000 A 
ATOM     22  N   UNL     1       7.474   5.351  15.071  0.00  0.00    +0.000 NA
ATOM     23  C   UNL     1       6.410   4.691  15.438  0.00  0.00    +0.000 A 
ATOM     24  N   UNL     1       5.816   4.636  16.672  0.00  0.00    +0.000 N 
ATOM     25  C   UNL     1       6.388   5.228  17.782  0.00  0.00    +0.000 C 
ATOM     26  O   UNL     1       7.504   5.739  17.840  0.00  0.00    +0.000 OA
ATOM     27  S   UNL     1       5.634   3.775  14.221  0.00  0.00    +0.000 S 
ATOM     28  H   UNL     1       4.929   4.156  16.736  0.00  0.00    +0.000 HD
ENDBRANCH  18  25
ENDBRANCH  17  18
ENDBRANCH   1  17
TORSDOF 5
ENDMDL
MODEL 3
REMARK VINA RESULT:      -7.5      7.572      9.356
REMARK  Name = 
REMARK  6 active torsions:
REMARK  status: ('A' for Active; 'I' for Inactive)
REMARK    1  A    between atoms: C_1  and  C_2
REMARK    2  A    between atoms: C_7  and  C_9
REMARK    3  A    between atoms: C_9  and  S_10
REMARK    4  A    between atoms: S_10  and  C_11
REMARK    5  A    between atoms: C_14  and  C_15
REMARK    6  A    between atoms: N_23  and  N_24
REMARK                            x       y       z     vdW  Elec       q    Type
REMARK                         _______ _______ _______ _____ _____    ______ ____
ROOT
ATOM      1  C   UNL     1       6.737   6.905  17.499  0.00  0.00    +0.000 A 
ATOM      2  N   UNL     1       6.150   7.170  16.359  0.00  0.00    +0.000 NA
ATOM      3  N   UNL     1       4.993   6.422  16.311  0.00  0.00    +0.000 NA
ATOM      4  C   UNL     1       4.889   5.703  17.420  0.00  0.00    +0.000 A 
ATOM      5  N   UNL     1       5.997   5.987  18.206  0.00  0.00    +0.000 N 
ENDROOT
BRANCH   4   6
ATOM      6  C   UNL     1       3.805   4.761  17.753  0.00  0.00    +0.000 A 
ATOM      7  C   UNL     1       3.986   3.379  17.548  0.00  0.00    +0.000 A 
ATOM      8  C   UNL     1       2.961   2.461  17.803  0.00  0.00    +0.000 A 
ATOM      9  C   UNL     1       1.747   2.906  18.311  0.00  0.00    +0.000 A 
ATOM     10 CL   UNL     1       0.486   1.780  18.624  0.00  0.00    +0.000 Cl
ATOM     11  C   UNL     1       1.551   4.258  18.567  0.00  0.00    +0.000 A 
ATOM     12  C   UNL     1       2.569   5.182  18.286  0.00  0.00    +0.000 A 
ATOM     13 CL   UNL     1       2.189   6.844  18.591  0.00  0.00    +0.000 Cl
ENDBRANCH   4   6
BRANCH   5  14
ATOM     14  N   UNL     1       6.336   5.430  19.498  0.00  0.00    +0.000 N 
ATOM     15  H   UNL     1       6.274   4.414  19.499  0.00  0.00    +0.000 HD
ATOM     16  H   UNL     1       7.310   5.639  19.722  0.00  0.00    +0.000 HD
ENDBRANCH   5  14
BRANCH   1  17
ATOM     17  S   UNL     1       8.224   7.569  18.093  0.00  0.00    +0.000 S 
BRANCH  17  18
ATOM     18  C   UNL     1       8.038   9.319  17.646  0.00  0.00    +0.000 C 
BRANCH  18  25
ATOM     19  C   UNL     1      12.044  15.582  19.114  0.00  0.00    +0.000 C 
ATOM     20  C   UNL     1      11.273  14.320  19.160  0.00  0.00    +0.000 A 
ATOM     21  C   UNL     1      11.066  13.458  20.218  0.00  0.00    +0.000 A 
ATOM     22  N   UNL     1      10.345  12.319  19.933  0.00  0.00    +0.000 NA
ATOM     23  C   UNL     1       9.991  12.328  18.676  0.00  0.00    +0.000 A 
ATOM     24  N   UNL     1       9.280  11.388  17.977  0.00  0.00    +0.000 N 
ATOM     25  C   UNL     1       8.928  10.175  18.538  0.00  0.00    +0.000 C 
ATOM     26  O   UNL     1       9.296   9.745  19.630  0.00  0.00    +0.000 OA
ATOM     27  S   UNL     1      10.464  13.698  17.770  0.00  0.00    +0.000 S 
ATOM     28  H   UNL     1       9.008  11.624  17.033  0.00  0.00    +0.000 HD
ENDBRANCH  18  25
ENDBRANCH  17  18
ENDBRANCH   1  17
TORSDOF 5
ENDMDL
MODEL 4
REMARK VINA RESULT:      -7.4      5.700      9.281
REMARK  Name = 
REMARK  6 active torsions:
REMARK  status: ('A' for Active; 'I' for Inactive)
REMARK    1  A    between atoms: C_1  and  C_2
REMARK    2  A    between atoms: C_7  and  C_9
REMARK    3  A    between atoms: C_9  and  S_10
REMARK    4  A    between atoms: S_10  and  C_11
REMARK    5  A    between atoms: C_14  and  C_15
REMARK    6  A    between atoms: N_23  and  N_24
REMARK                            x       y       z     vdW  Elec       q    Type
REMARK                         _______ _______ _______ _____ _____    ______ ____
ROOT
ATOM      1  C   UNL     1       2.125   3.373  19.854  0.00  0.00    +0.000 A 
ATOM      2  N   UNL     1       2.516   3.566  21.089  0.00  0.00    +0.000 NA
ATOM      3  N   UNL     1       2.366   4.910  21.358  0.00  0.00    +0.000 NA
ATOM      4  C   UNL     1       1.891   5.525  20.283  0.00  0.00    +0.000 A 
ATOM      5  N   UNL     1       1.727   4.564  19.295  0.00  0.00    +0.000 N 
ENDROOT
BRANCH   4   6
ATOM      6  C   UNL     1       1.605   6.964  20.154  0.00  0.00    +0.000 A 
ATOM      7  C   UNL     1       0.748   7.597  21.077  0.00  0.00    +0.000 A 
ATOM      8  C   UNL     1       0.413   8.950  20.954  0.00  0.00    +0.000 A 
ATOM      9  C   UNL     1       0.966   9.708  19.930  0.00  0.00    +0.000 A 
ATOM     10 CL   UNL     1       0.554  11.371  19.778  0.00  0.00    +0.000 Cl
ATOM     11  C   UNL     1       1.849   9.126  19.029  0.00  0.00    +0.000 A 
ATOM     12  C   UNL     1       2.165   7.762  19.135  0.00  0.00    +0.000 A 
ATOM     13 CL   UNL     1       3.231   7.135  17.924  0.00  0.00    +0.000 Cl
ENDBRANCH   4   6
BRANCH   5  14
ATOM     14  N   UNL     1       1.255   4.756  17.940  0.00  0.00    +0.000 N 
ATOM     15  H   UNL     1       0.242   4.840  17.901  0.00  0.00    +0.000 HD
ATOM     16  H   UNL     1       1.610   5.640  17.571  0.00  0.00    +0.000 HD
ENDBRANCH   5  14
BRANCH   1  17
ATOM     17  S   UNL     1       2.089   1.872  18.988  0.00  0.00    +0.000 S 
BRANCH  17  18
ATOM     18  C   UNL     1       3.835   1.684  18.526  0.00  0.00    +0.000 C 
BRANCH  18  25
ATOM     19  C   UNL     1       8.227   7.849  18.182  0.00  0.00    +0.000 C 
ATOM     20  C   UNL     1       7.337   6.697  17.919  0.00  0.00    +0.000 A 
ATOM     21  C   UNL     1       6.638   6.373  16.774  0.00  0.00    +0.000 A 
ATOM     22  N   UNL     1       5.836   5.255  16.856  0.00  0.00    +0.000 NA
ATOM     23  C   UNL     1       5.942   4.726  18.044  0.00  0.00    +0.000 A 
ATOM     24  N   UNL     1       5.312   3.620  18.552  0.00  0.00    +0.000 N 
ATOM     25  C   UNL     1       4.327   2.955  17.846  0.00  0.00    +0.000 C 
ATOM     26  O   UNL     1       3.819   3.320  16.788  0.00  0.00    +0.000 OA
ATOM     27  S   UNL     1       7.021   5.501  19.120  0.00  0.00    +0.000 S 
ATOM     28  H   UNL     1       5.608   3.299  19.463  0.00  0.00    +0.000 HD
ENDBRANCH  18  25
ENDBRANCH  17  18
ENDBRANCH   1  17
TORSDOF 5
ENDMDL
MODEL 5
REMARK VINA RESULT:      -7.3      2.993      4.102
REMARK  Name = 
REMARK  6 active torsions:
REMARK  status: ('A' for Active; 'I' for Inactive)
REMARK    1  A    between atoms: C_1  and  C_2
REMARK    2  A    between atoms: C_7  and  C_9
REMARK    3  A    between atoms: C_9  and  S_10
REMARK    4  A    between atoms: S_10  and  C_11
REMARK    5  A    between atoms: C_14  and  C_15
REMARK    6  A    between atoms: N_23  and  N_24
REMARK                            x       y       z     vdW  Elec       q    Type
REMARK                         _______ _______ _______ _____ _____    ______ ____
ROOT
ATOM      1  C   UNL     1       1.429   8.676  19.614  0.00  0.00    +0.000 A 
ATOM      2  N   UNL     1       1.395   9.339  18.486  0.00  0.00    +0.000 NA
ATOM      3  N   UNL     1       2.175   8.649  17.583  0.00  0.00    +0.000 NA
ATOM      4  C   UNL     1       2.682   7.574  18.171  0.00  0.00    +0.000 A 
ATOM      5  N   UNL     1       2.224   7.563  19.482  0.00  0.00    +0.000 N 
ENDROOT
BRANCH   4   6
ATOM      6  C   UNL     1       3.580   6.581  17.555  0.00  0.00    +0.000 A 
ATOM      7  C   UNL     1       4.832   6.984  17.048  0.00  0.00    +0.000 A 
ATOM      8  C   UNL     1       5.687   6.079  16.410  0.00  0.00    +0.000 A 
ATOM      9  C   UNL     1       5.324   4.743  16.306  0.00  0.00    +0.000 A 
ATOM     10 CL   UNL     1       6.374   3.630  15.520  0.00  0.00    +0.000 Cl
ATOM     11  C   UNL     1       4.116   4.304  16.833  0.00  0.00    +0.000 A 
ATOM     12  C   UNL     1       3.245   5.215  17.450  0.00  0.00    +0.000 A 
ATOM     13 CL   UNL     1       1.745   4.565  18.018  0.00  0.00    +0.000 Cl
ENDBRANCH   4   6
BRANCH   5  14
ATOM     14  N   UNL     1       2.525   6.599  20.519  0.00  0.00    +0.000 N 
ATOM     15  H   UNL     1       1.788   6.557  21.221  0.00  0.00    +0.000 HD
ATOM     16  H   UNL     1       2.566   5.660  20.119  0.00  0.00    +0.000 HD
ENDBRANCH   5  14
BRANCH   1  17
ATOM     17  S   UNL     1       0.621   9.082  21.094  0.00  0.00    +0.000 S 
BRANCH  17  18
ATOM     18  C   UNL     1      -0.412  10.478  20.567  0.00  0.00    +0.000 C 
BRANCH  18  25
ATOM     19  C   UNL     1       4.045  16.130  18.195  0.00  0.00    +0.000 C 
ATOM     20  C   UNL     1       3.091  15.243  18.900  0.00  0.00    +0.000 A 
ATOM     21  C   UNL     1       2.474  15.416  20.122  0.00  0.00    +0.000 A 
ATOM     22  N   UNL     1       1.675  14.376  20.544  0.00  0.00    +0.000 NA
ATOM     23  C   UNL     1       1.671  13.433  19.641  0.00  0.00    +0.000 A 
ATOM     24  N   UNL     1       1.023  12.226  19.663  0.00  0.00    +0.000 N 
ATOM     25  C   UNL     1       0.340  11.785  20.780  0.00  0.00    +0.000 C 
ATOM     26  O   UNL     1       0.332  12.323  21.886  0.00  0.00    +0.000 OA
ATOM     27  S   UNL     1       2.584  13.738  18.229  0.00  0.00    +0.000 S 
ATOM     28  H   UNL     1       1.051  11.673  18.817  0.00  0.00    +0.000 HD
ENDBRANCH  18  25
ENDBRANCH  17  18
ENDBRANCH   1  17
TORSDOF 5
ENDMDL
MODEL 6
REMARK VINA RESULT:      -7.3      7.486      9.584
REMARK  Name = 
REMARK  6 active torsions:
REMARK  status: ('A' for Active; 'I' for Inactive)
REMARK    1  A    between atoms: C_1  and  C_2
REMARK    2  A    between atoms: C_7  and  C_9
REMARK    3  A    between atoms: C_9  and  S_10
REMARK    4  A    between atoms: S_10  and  C_11
REMARK    5  A    between atoms: C_14  and  C_15
REMARK    6  A    between atoms: N_23  and  N_24
REMARK                            x       y       z     vdW  Elec       q    Type
REMARK                         _______ _______ _______ _____ _____    ______ ____
ROOT
ATOM      1  C   UNL     1       6.962   6.663  18.146  0.00  0.00    +0.000 A 
ATOM      2  N   UNL     1       7.442   5.947  19.132  0.00  0.00    +0.000 NA
ATOM      3  N   UNL     1       6.477   5.023  19.473  0.00  0.00    +0.000 NA
ATOM      4  C   UNL     1       5.415   5.189  18.696  0.00  0.00    +0.000 A 
ATOM      5  N   UNL     1       5.693   6.240  17.832  0.00  0.00    +0.000 N 
ENDROOT
BRANCH   4   6
ATOM      6  C   UNL     1       4.163   4.414  18.749  0.00  0.00    +0.000 A 
ATOM      7  C   UNL     1       4.165   3.049  18.397  0.00  0.00    +0.000 A 
ATOM      8  C   UNL     1       2.986   2.296  18.387  0.00  0.00    +0.000 A 
ATOM      9  C   UNL     1       1.788   2.883  18.771  0.00  0.00    +0.000 A 
ATOM     10 CL   UNL     1       0.338   1.958  18.756  0.00  0.00    +0.000 Cl
ATOM     11  C   UNL     1       1.758   4.215  19.166  0.00  0.00    +0.000 A 
ATOM     12  C   UNL     1       2.935   4.979  19.151  0.00  0.00    +0.000 A 
ATOM     13 CL   UNL     1       2.766   6.640  19.608  0.00  0.00    +0.000 Cl
ENDBRANCH   4   6
BRANCH   5  14
ATOM     14  N   UNL     1       4.831   6.804  16.815  0.00  0.00    +0.000 N 
ATOM     15  H   UNL     1       4.893   6.289  15.939  0.00  0.00    +0.000 HD
ATOM     16  H   UNL     1       3.855   6.725  17.104  0.00  0.00    +0.000 HD
ENDBRANCH   5  14
BRANCH   1  17
ATOM     17  S   UNL     1       7.749   7.966  17.317  0.00  0.00    +0.000 S 
BRANCH  17  18
ATOM     18  C   UNL     1       8.702   8.724  18.663  0.00  0.00    +0.000 C 
BRANCH  18  25
ATOM     19  C   UNL     1      12.199  15.365  19.711  0.00  0.00    +0.000 C 
ATOM     20  C   UNL     1      11.406  14.214  19.226  0.00  0.00    +0.000 A 
ATOM     21  C   UNL     1      10.510  14.148  18.178  0.00  0.00    +0.000 A 
ATOM     22  N   UNL     1       9.875  12.937  18.006  0.00  0.00    +0.000 NA
ATOM     23  C   UNL     1      10.301  12.088  18.903  0.00  0.00    +0.000 A 
ATOM     24  N   UNL     1       9.925  10.785  19.100  0.00  0.00    +0.000 N 
ATOM     25  C   UNL     1       8.888  10.211  18.389  0.00  0.00    +0.000 C 
ATOM     26  O   UNL     1       8.121  10.793  17.624  0.00  0.00    +0.000 OA
ATOM     27  S   UNL     1      11.499  12.665  19.977  0.00  0.00    +0.000 S 
ATOM     28  H   UNL     1      10.449  10.252  19.778  0.00  0.00    +0.000 HD
ENDBRANCH  18  25
ENDBRANCH  17  18
ENDBRANCH   1  17
TORSDOF 5
ENDMDL
MODEL 7
REMARK VINA RESULT:      -7.3      4.020      5.675
REMARK  Name = 
REMARK  6 active torsions:
REMARK  status: ('A' for Active; 'I' for Inactive)
REMARK    1  A    between atoms: C_1  and  C_2
REMARK    2  A    between atoms: C_7  and  C_9
REMARK    3  A    between atoms: C_9  and  S_10
REMARK    4  A    between atoms: S_10  and  C_11
REMARK    5  A    between atoms: C_14  and  C_15
REMARK    6  A    between atoms: N_23  and  N_24
REMARK                            x       y       z     vdW  Elec       q    Type
REMARK                         _______ _______ _______ _____ _____    ______ ____
ROOT
ATOM      1  C   UNL     1       3.974   3.458  19.349  0.00  0.00    +0.000 A 
ATOM      2  N   UNL     1       5.150   3.629  19.898  0.00  0.00    +0.000 NA
ATOM      3  N   UNL     1       6.023   3.981  18.890  0.00  0.00    +0.000 NA
ATOM      4  C   UNL     1       5.372   4.014  17.735  0.00  0.00    +0.000 A 
ATOM      5  N   UNL     1       4.050   3.679  17.995  0.00  0.00    +0.000 N 
ENDROOT
BRANCH   4   6
ATOM      6  C   UNL     1       5.947   4.332  16.416  0.00  0.00    +0.000 A 
ATOM      7  C   UNL     1       5.637   3.529  15.301  0.00  0.00    +0.000 A 
ATOM      8  C   UNL     1       6.205   3.770  14.045  0.00  0.00    +0.000 A 
ATOM      9  C   UNL     1       7.062   4.849  13.872  0.00  0.00    +0.000 A 
ATOM     10 CL   UNL     1       7.762   5.145  12.329  0.00  0.00    +0.000 Cl
ATOM     11  C   UNL     1       7.355   5.687  14.941  0.00  0.00    +0.000 A 
ATOM     12  C   UNL     1       6.807   5.430  16.206  0.00  0.00    +0.000 A 
ATOM     13 CL   UNL     1       7.287   6.508  17.473  0.00  0.00    +0.000 Cl
ENDBRANCH   4   6
BRANCH   5  14
ATOM     14  N   UNL     1       2.962   3.561  17.047  0.00  0.00    +0.000 N 
ATOM     15  H   UNL     1       3.174   2.892  16.310  0.00  0.00    +0.000 HD
ATOM     16  H   UNL     1       2.133   3.190  17.514  0.00  0.00    +0.000 HD
ENDBRANCH   5  14
BRANCH   1  17
ATOM     17  S   UNL     1       2.499   3.015  20.146  0.00  0.00    +0.000 S 
BRANCH  17  18
ATOM     18  C   UNL     1       2.265   4.420  21.271  0.00  0.00    +0.000 C 
BRANCH  18  25
ATOM     19  C   UNL     1       0.429  11.752  20.713  0.00  0.00    +0.000 C 
ATOM     20  C   UNL     1       0.875  10.357  20.501  0.00  0.00    +0.000 A 
ATOM     21  C   UNL     1       1.215   9.716  19.327  0.00  0.00    +0.000 A 
ATOM     22  N   UNL     1       1.537   8.381  19.443  0.00  0.00    +0.000 NA
ATOM     23  C   UNL     1       1.461   8.019  20.695  0.00  0.00    +0.000 A 
ATOM     24  N   UNL     1       1.684   6.786  21.249  0.00  0.00    +0.000 N 
ATOM     25  C   UNL     1       1.921   5.670  20.469  0.00  0.00    +0.000 C 
ATOM     26  O   UNL     1       1.838   5.608  19.245  0.00  0.00    +0.000 OA
ATOM     27  S   UNL     1       1.037   9.245  21.809  0.00  0.00    +0.000 S 
ATOM     28  H   UNL     1       1.684   6.727  22.258  0.00  0.00    +0.000 HD
ENDBRANCH  18  25
ENDBRANCH  17  18
ENDBRANCH   1  17
TORSDOF 5
ENDMDL
MODEL 8
REMARK VINA RESULT:      -7.2      7.057      9.095
REMARK  Name = 
REMARK  6 active torsions:
REMARK  status: ('A' for Active; 'I' for Inactive)
REMARK    1  A    between atoms: C_1  and  C_2
REMARK    2  A    between atoms: C_7  and  C_9
REMARK    3  A    between atoms: C_9  and  S_10
REMARK    4  A    between atoms: S_10  and  C_11
REMARK    5  A    between atoms: C_14  and  C_15
REMARK    6  A    between atoms: N_23  and  N_24
REMARK                            x       y       z     vdW  Elec       q    Type
REMARK                         _______ _______ _______ _____ _____    ______ ____
ROOT
ATOM      1  C   UNL     1       5.747   6.201  17.383  0.00  0.00    +0.000 A 
ATOM      2  N   UNL     1       4.662   6.827  17.003  0.00  0.00    +0.000 NA
ATOM      3  N   UNL     1       3.609   6.283  17.709  0.00  0.00    +0.000 NA
ATOM      4  C   UNL     1       4.062   5.327  18.508  0.00  0.00    +0.000 A 
ATOM      5  N   UNL     1       5.436   5.246  18.321  0.00  0.00    +0.000 N 
ENDROOT
BRANCH   4   6
ATOM      6  C   UNL     1       3.256   4.492  19.416  0.00  0.00    +0.000 A 
ATOM      7  C   UNL     1       2.719   5.050  20.594  0.00  0.00    +0.000 A 
ATOM      8  C   UNL     1       1.993   4.274  21.504  0.00  0.00    +0.000 A 
ATOM      9  C   UNL     1       1.753   2.934  21.232  0.00  0.00    +0.000 A 
ATOM     10 CL   UNL     1       0.862   1.979  22.351  0.00  0.00    +0.000 Cl
ATOM     11  C   UNL     1       2.231   2.363  20.058  0.00  0.00    +0.000 A 
ATOM     12  C   UNL     1       2.982   3.134  19.157  0.00  0.00    +0.000 A 
ATOM     13 CL   UNL     1       3.573   2.302  17.758  0.00  0.00    +0.000 Cl
ENDBRANCH   4   6
BRANCH   5  14
ATOM     14  N   UNL     1       6.366   4.336  18.957  0.00  0.00    +0.000 N 
ATOM     15  H   UNL     1       7.029   4.829  19.551  0.00  0.00    +0.000 HD
ATOM     16  H   UNL     1       5.862   3.707  19.583  0.00  0.00    +0.000 HD
ENDBRANCH   5  14
BRANCH   1  17
ATOM     17  S   UNL     1       7.367   6.479  16.829  0.00  0.00    +0.000 S 
BRANCH  17  18
ATOM     18  C   UNL     1       8.124   7.229  18.299  0.00  0.00    +0.000 C 
BRANCH  18  25
ATOM     19  C   UNL     1      10.597  14.101  20.320  0.00  0.00    +0.000 C 
ATOM     20  C   UNL     1      10.058  12.908  19.630  0.00  0.00    +0.000 A 
ATOM     21  C   UNL     1       9.444  12.812  18.399  0.00  0.00    +0.000 A 
ATOM     22  N   UNL     1       8.991  11.558  18.050  0.00  0.00    +0.000 NA
ATOM     23  C   UNL     1       9.277  10.709  18.999  0.00  0.00    +0.000 A 
ATOM     24  N   UNL     1       8.998   9.369  19.067  0.00  0.00    +0.000 N 
ATOM     25  C   UNL     1       8.219   8.739  18.115  0.00  0.00    +0.000 C 
ATOM     26  O   UNL     1       7.597   9.285  17.206  0.00  0.00    +0.000 OA
ATOM     27  S   UNL     1      10.127  11.339  20.341  0.00  0.00    +0.000 S 
ATOM     28  H   UNL     1       9.400   8.853  19.837  0.00  0.00    +0.000 HD
ENDBRANCH  18  25
ENDBRANCH  17  18
ENDBRANCH   1  17
TORSDOF 5
ENDMDL
MODEL 9
REMARK VINA RESULT:      -7.2      3.167      4.665
REMARK  Name = 
REMARK  6 active torsions:
REMARK  status: ('A' for Active; 'I' for Inactive)
REMARK    1  A    between atoms: C_1  and  C_2
REMARK    2  A    between atoms: C_7  and  C_9
REMARK    3  A    between atoms: C_9  and  S_10
REMARK    4  A    between atoms: S_10  and  C_11
REMARK    5  A    between atoms: C_14  and  C_15
REMARK    6  A    between atoms: N_23  and  N_24
REMARK                            x       y       z     vdW  Elec       q    Type
REMARK                         _______ _______ _______ _____ _____    ______ ____
ROOT
ATOM      1  C   UNL     1       2.793   3.958  18.991  0.00  0.00    +0.000 A 
ATOM      2  N   UNL     1       3.377   2.792  19.102  0.00  0.00    +0.000 NA
ATOM      3  N   UNL     1       4.381   2.748  18.158  0.00  0.00    +0.000 NA
ATOM      4  C   UNL     1       4.396   3.885  17.477  0.00  0.00    +0.000 A 
ATOM      5  N   UNL     1       3.383   4.687  17.986  0.00  0.00    +0.000 N 
ENDROOT
BRANCH   4   6
ATOM      6  C   UNL     1       5.308   4.231  16.372  0.00  0.00    +0.000 A 
ATOM      7  C   UNL     1       4.876   4.101  15.037  0.00  0.00    +0.000 A 
ATOM      8  C   UNL     1       5.732   4.371  13.963  0.00  0.00    +0.000 A 
ATOM      9  C   UNL     1       7.024   4.819  14.206  0.00  0.00    +0.000 A 
ATOM     10 CL   UNL     1       8.076   5.149  12.886  0.00  0.00    +0.000 Cl
ATOM     11  C   UNL     1       7.467   5.000  15.510  0.00  0.00    +0.000 A 
ATOM     12  C   UNL     1       6.619   4.704  16.588  0.00  0.00    +0.000 A 
ATOM     13 CL   UNL     1       7.298   4.914  18.167  0.00  0.00    +0.000 Cl
ENDBRANCH   4   6
BRANCH   5  14
ATOM     14  N   UNL     1       2.997   6.012  17.551  0.00  0.00    +0.000 N 
ATOM     15  H   UNL     1       3.476   6.738  18.079  0.00  0.00    +0.000 HD
ATOM     16  H   UNL     1       3.281   6.156  16.581  0.00  0.00    +0.000 HD
ENDBRANCH   5  14
BRANCH   1  17
ATOM     17  S   UNL     1       1.467   4.561  19.933  0.00  0.00    +0.000 S 
BRANCH  17  18
ATOM     18  C   UNL     1       2.304   5.774  20.993  0.00  0.00    +0.000 C 
BRANCH  18  25
ATOM     19  C   UNL     1      -1.273  12.180  22.889  0.00  0.00    +0.000 C 
ATOM     20  C   UNL     1      -0.447  11.118  22.272  0.00  0.00    +0.000 A 
ATOM     21  C   UNL     1       0.241  11.127  21.076  0.00  0.00    +0.000 A 
ATOM     22  N   UNL     1       0.878   9.952  20.741  0.00  0.00    +0.000 NA
ATOM     23  C   UNL     1       0.691   9.068  21.683  0.00  0.00    +0.000 A 
ATOM     24  N   UNL     1       1.134   7.773  21.747  0.00  0.00    +0.000 N 
ATOM     25  C   UNL     1       1.784   7.173  20.685  0.00  0.00    +0.000 C 
ATOM     26  O   UNL     1       1.926   7.645  19.559  0.00  0.00    +0.000 OA
ATOM     27  S   UNL     1      -0.220   9.588  23.033  0.00  0.00    +0.000 S 
ATOM     28  H   UNL     1       0.981   7.276  22.613  0.00  0.00    +0.000 HD
ENDBRANCH  18  25
ENDBRANCH  17  18
ENDBRANCH   1  17
TORSDOF 5
ENDMDL
