MODEL 1
REMARK VINA RESULT:      -6.8      0.000      0.000
REMARK  Name = 
REMARK  19 active torsions:
REMARK  status: ('A' for Active; 'I' for Inactive)
REMARK    1  A    between atoms: C_1  and  O_2
REMARK    2  A    between atoms: O_2  and  C_3
REMARK    3  A    between atoms: C_6  and  O_7
REMARK    4  A    between atoms: C_8  and  C_9
REMARK    5  A    between atoms: N_10  and  C_11
REMARK    6  A    between atoms: C_11  and  C_12
REMARK    7  A    between atoms: C_12  and  C_13
REMARK    8  A    between atoms: C_13  and  N_14
REMARK    9  A    between atoms: N_14  and  C_15
REMARK   10  A    between atoms: C_15  and  C_16
REMARK   11  A    between atoms: C_16  and  N_17
REMARK   12  A    between atoms: N_17  and  C_18
REMARK   13  A    between atoms: C_18  and  C_19
REMARK   14  A    between atoms: C_19  and  C_20
REMARK   15  A    between atoms: C_20  and  N_21
REMARK   16  A    between atoms: C_22  and  C_23
REMARK   17  A    between atoms: C_25  and  O_26
REMARK   18  A    between atoms: O_26  and  C_27
REMARK   19  A    between atoms: C_30  and  O_31
REMARK                            x       y       z     vdW  Elec       q    Type
REMARK                         _______ _______ _______ _____ _____    ______ ____
ROOT
ATOM      1  C   UNL     1       1.251   3.836  18.452  0.00  0.00    +0.000 C 
ENDROOT
BRANCH   1   2
ATOM      2  N   UNL     1       1.629   5.074  17.766  0.00  0.00    +0.000 NA
ATOM      3  H   UNL     1       2.275   4.836  17.009  0.00  0.00    +0.000 HD
BRANCH   2   4
ATOM      4  C   UNL     1       2.210   6.036  18.690  0.00  0.00    +0.000 C 
BRANCH   4   5
ATOM      5  C   UNL     1       3.034   7.064  17.924  0.00  0.00    +0.000 C 
BRANCH   5   6
ATOM      6  C   UNL     1       2.345   8.424  17.959  0.00  0.00    +0.000 C 
BRANCH   6   8
ATOM      7  C   UNL     1       0.948   9.600  19.400  0.00  0.00    +0.000 C 
ATOM      8  N   UNL     1       1.840   8.672  19.305  0.00  0.00    +0.000 NA
BRANCH   7  13
ATOM      9  C   UNL     1      -1.215  11.285  21.966  0.00  0.00    +0.000 A 
ATOM     10  C   UNL     1      -0.861  10.586  23.122  0.00  0.00    +0.000 A 
ATOM     11  C   UNL     1       0.088   9.558  23.076  0.00  0.00    +0.000 A 
ATOM     12  C   UNL     1       0.689   9.225  21.862  0.00  0.00    +0.000 A 
ATOM     13  C   UNL     1       0.336   9.917  20.704  0.00  0.00    +0.000 A 
ATOM     14  C   UNL     1      -0.613  10.946  20.759  0.00  0.00    +0.000 A 
BRANCH   9  16
ATOM     15  C   UNL     1      -2.936  12.198  23.317  0.00  0.00    +0.000 C 
ATOM     16  O   UNL     1      -2.149  12.272  22.131  0.00  0.00    +0.000 OA
ENDBRANCH   9  16
BRANCH  12  17
ATOM     17  O   UNL     1       1.620   8.227  21.810  0.00  0.00    +0.000 OA
ATOM     18  H   UNL     1       1.244   7.469  21.330  0.00  0.00    +0.000 HD
ENDBRANCH  12  17
ENDBRANCH   7  13
ENDBRANCH   6   8
ENDBRANCH   5   6
ENDBRANCH   4   5
ENDBRANCH   2   4
ENDBRANCH   1   2
BRANCH   1  19
ATOM     19  C   UNL     1       1.097   4.085  19.963  0.00  0.00    +0.000 C 
BRANCH  19  20
ATOM     20  N   UNL     1       0.694   2.859  20.664  0.00  0.00    +0.000 NA
ATOM     21  H   UNL     1       0.536   2.113  19.989  0.00  0.00    +0.000 HD
BRANCH  20  22
ATOM     22  C   UNL     1       1.723   2.453  21.619  0.00  0.00    +0.000 C 
BRANCH  22  23
ATOM     23  C   UNL     1       3.043   3.120  21.257  0.00  0.00    +0.000 C 
BRANCH  23  24
ATOM     24  C   UNL     1       3.949   2.142  20.514  0.00  0.00    +0.000 C 
BRANCH  24  25
ATOM     25  N   UNL     1       4.967   2.902  19.792  0.00  0.00    +0.000 NA
ATOM     26  C   UNL     1       4.593   3.334  18.635  0.00  0.00    +0.000 C 
BRANCH  26  27
ATOM     27  C   UNL     1       5.482   4.182  17.822  0.00  0.00    +0.000 A 
ATOM     28  C   UNL     1       5.636   3.879  16.463  0.00  0.00    +0.000 A 
ATOM     29  C   UNL     1       6.500   4.632  15.671  0.00  0.00    +0.000 A 
ATOM     30  C   UNL     1       7.202   5.691  16.251  0.00  0.00    +0.000 A 
ATOM     31  C   UNL     1       7.050   6.001  17.607  0.00  0.00    +0.000 A 
ATOM     32  C   UNL     1       6.187   5.239  18.391  0.00  0.00    +0.000 A 
BRANCH  32  33
ATOM     33  O   UNL     1       6.039   5.524  19.722  0.00  0.00    +0.000 OA
ATOM     34  H   UNL     1       6.527   4.866  20.246  0.00  0.00    +0.000 HD
ENDBRANCH  32  33
BRANCH  29  35
ATOM     35  O   UNL     1       6.734   4.426  14.339  0.00  0.00    +0.000 OA
ATOM     36  C   UNL     1       5.641   3.912  13.578  0.00  0.00    +0.000 C 
ENDBRANCH  29  35
ENDBRANCH  26  27
ENDBRANCH  24  25
ENDBRANCH  23  24
ENDBRANCH  22  23
ENDBRANCH  20  22
ENDBRANCH  19  20
ENDBRANCH   1  19
TORSDOF 17
ENDMDL
MODEL 2
REMARK VINA RESULT:      -6.6      3.219      4.322
REMARK  Name = 
REMARK  19 active torsions:
REMARK  status: ('A' for Active; 'I' for Inactive)
REMARK    1  A    between atoms: C_1  and  O_2
REMARK    2  A    between atoms: O_2  and  C_3
REMARK    3  A    between atoms: C_6  and  O_7
REMARK    4  A    between atoms: C_8  and  C_9
REMARK    5  A    between atoms: N_10  and  C_11
REMARK    6  A    between atoms: C_11  and  C_12
REMARK    7  A    between atoms: C_12  and  C_13
REMARK    8  A    between atoms: C_13  and  N_14
REMARK    9  A    between atoms: N_14  and  C_15
REMARK   10  A    between atoms: C_15  and  C_16
REMARK   11  A    between atoms: C_16  and  N_17
REMARK   12  A    between atoms: N_17  and  C_18
REMARK   13  A    between atoms: C_18  and  C_19
REMARK   14  A    between atoms: C_19  and  C_20
REMARK   15  A    between atoms: C_20  and  N_21
REMARK   16  A    between atoms: C_22  and  C_23
REMARK   17  A    between atoms: C_25  and  O_26
REMARK   18  A    between atoms: O_26  and  C_27
REMARK   19  A    between atoms: C_30  and  O_31
REMARK                            x       y       z     vdW  Elec       q    Type
REMARK                         _______ _______ _______ _____ _____    ______ ____
ROOT
ATOM      1  C   UNL     1       1.186   6.264  20.804  0.00  0.00    +0.000 C 
ENDROOT
BRANCH   1   2
ATOM      2  N   UNL     1       1.831   7.540  21.121  0.00  0.00    +0.000 NA
ATOM      3  H   UNL     1       2.454   7.394  21.919  0.00  0.00    +0.000 HD
BRANCH   2   4
ATOM      4  C   UNL     1       0.847   8.579  21.387  0.00  0.00    +0.000 C 
BRANCH   4   5
ATOM      5  C   UNL     1       0.710   9.490  20.173  0.00  0.00    +0.000 C 
BRANCH   5   6
ATOM      6  C   UNL     1       0.129  10.838  20.588  0.00  0.00    +0.000 C 
BRANCH   6   8
ATOM      7  C   UNL     1      -1.237  10.348  18.770  0.00  0.00    +0.000 C 
ATOM      8  N   UNL     1      -0.854  11.262  19.597  0.00  0.00    +0.000 NA
BRANCH   7  13
ATOM      9  C   UNL     1      -2.967  10.437  15.439  0.00  0.00    +0.000 A 
ATOM     10  C   UNL     1      -4.115  11.170  15.748  0.00  0.00    +0.000 A 
ATOM     11  C   UNL     1      -4.335  11.644  17.046  0.00  0.00    +0.000 A 
ATOM     12  C   UNL     1      -3.399  11.382  18.046  0.00  0.00    +0.000 A 
ATOM     13  C   UNL     1      -2.253  10.646  17.744  0.00  0.00    +0.000 A 
ATOM     14  C   UNL     1      -2.039  10.177  16.442  0.00  0.00    +0.000 A 
BRANCH   9  16
ATOM     15  C   UNL     1      -4.080   9.842  13.431  0.00  0.00    +0.000 C 
ATOM     16  O   UNL     1      -2.856  10.029  14.137  0.00  0.00    +0.000 OA
ENDBRANCH   9  16
BRANCH  12  17
ATOM     17  O   UNL     1      -3.604  11.845  19.315  0.00  0.00    +0.000 OA
ATOM     18  H   UNL     1      -3.272  12.757  19.376  0.00  0.00    +0.000 HD
ENDBRANCH  12  17
ENDBRANCH   7  13
ENDBRANCH   6   8
ENDBRANCH   5   6
ENDBRANCH   4   5
ENDBRANCH   2   4
ENDBRANCH   1   2
BRANCH   1  19
ATOM     19  C   UNL     1       2.161   5.096  21.037  0.00  0.00    +0.000 C 
BRANCH  19  20
ATOM     20  N   UNL     1       1.582   3.823  20.587  0.00  0.00    +0.000 NA
ATOM     21  H   UNL     1       0.760   3.602  21.148  0.00  0.00    +0.000 HD
BRANCH  20  22
ATOM     22  C   UNL     1       1.211   3.900  19.175  0.00  0.00    +0.000 C 
BRANCH  22  23
ATOM     23  C   UNL     1       1.810   2.718  18.428  0.00  0.00    +0.000 C 
BRANCH  23  24
ATOM     24  C   UNL     1       3.001   2.149  19.193  0.00  0.00    +0.000 C 
BRANCH  24  25
ATOM     25  N   UNL     1       4.149   3.033  18.999  0.00  0.00    +0.000 NA
ATOM     26  C   UNL     1       4.324   3.423  17.782  0.00  0.00    +0.000 C 
BRANCH  26  27
ATOM     27  C   UNL     1       5.393   4.380  17.441  0.00  0.00    +0.000 A 
ATOM     28  C   UNL     1       5.915   4.364  16.142  0.00  0.00    +0.000 A 
ATOM     29  C   UNL     1       6.954   5.225  15.794  0.00  0.00    +0.000 A 
ATOM     30  C   UNL     1       7.460   6.100  16.757  0.00  0.00    +0.000 A 
ATOM     31  C   UNL     1       6.941   6.123  18.057  0.00  0.00    +0.000 A 
ATOM     32  C   UNL     1       5.904   5.255  18.395  0.00  0.00    +0.000 A 
BRANCH  32  33
ATOM     33  O   UNL     1       5.396   5.259  19.666  0.00  0.00    +0.000 OA
ATOM     34  H   UNL     1       5.863   5.929  20.194  0.00  0.00    +0.000 HD
ENDBRANCH  32  33
BRANCH  29  35
ATOM     35  O   UNL     1       7.545   5.294  14.563  0.00  0.00    +0.000 OA
ATOM     36  C   UNL     1       6.895   4.583  13.510  0.00  0.00    +0.000 C 
ENDBRANCH  29  35
ENDBRANCH  26  27
ENDBRANCH  24  25
ENDBRANCH  23  24
ENDBRANCH  22  23
ENDBRANCH  20  22
ENDBRANCH  19  20
ENDBRANCH   1  19
TORSDOF 17
ENDMDL
MODEL 3
REMARK VINA RESULT:      -6.5      2.932      3.817
REMARK  Name = 
REMARK  19 active torsions:
REMARK  status: ('A' for Active; 'I' for Inactive)
REMARK    1  A    between atoms: C_1  and  O_2
REMARK    2  A    between atoms: O_2  and  C_3
REMARK    3  A    between atoms: C_6  and  O_7
REMARK    4  A    between atoms: C_8  and  C_9
REMARK    5  A    between atoms: N_10  and  C_11
REMARK    6  A    between atoms: C_11  and  C_12
REMARK    7  A    between atoms: C_12  and  C_13
REMARK    8  A    between atoms: C_13  and  N_14
REMARK    9  A    between atoms: N_14  and  C_15
REMARK   10  A    between atoms: C_15  and  C_16
REMARK   11  A    between atoms: C_16  and  N_17
REMARK   12  A    between atoms: N_17  and  C_18
REMARK   13  A    between atoms: C_18  and  C_19
REMARK   14  A    between atoms: C_19  and  C_20
REMARK   15  A    between atoms: C_20  and  N_21
REMARK   16  A    between atoms: C_22  and  C_23
REMARK   17  A    between atoms: C_25  and  O_26
REMARK   18  A    between atoms: O_26  and  C_27
REMARK   19  A    between atoms: C_30  and  O_31
REMARK                            x       y       z     vdW  Elec       q    Type
REMARK                         _______ _______ _______ _____ _____    ______ ____
ROOT
ATOM      1  C   UNL     1       1.127   6.555  21.135  0.00  0.00    +0.000 C 
ENDROOT
BRANCH   1   2
ATOM      2  N   UNL     1       1.996   7.698  20.843  0.00  0.00    +0.000 NA
ATOM      3  H   UNL     1       2.573   7.879  21.668  0.00  0.00    +0.000 HD
BRANCH   2   4
ATOM      4  C   UNL     1       1.221   8.867  20.457  0.00  0.00    +0.000 C 
BRANCH   4   5
ATOM      5  C   UNL     1       0.975   9.754  21.672  0.00  0.00    +0.000 C 
BRANCH   5   6
ATOM      6  C   UNL     1       0.024  10.891  21.312  0.00  0.00    +0.000 C 
BRANCH   6   8
ATOM      7  C   UNL     1      -1.518  11.435  19.656  0.00  0.00    +0.000 C 
ATOM      8  N   UNL     1      -0.749  10.514  20.132  0.00  0.00    +0.000 NA
BRANCH   7  13
ATOM      9  C   UNL     1      -4.448  11.415  17.308  0.00  0.00    +0.000 A 
ATOM     10  C   UNL     1      -3.909  10.748  16.206  0.00  0.00    +0.000 A 
ATOM     11  C   UNL     1      -2.584  10.297  16.218  0.00  0.00    +0.000 A 
ATOM     12  C   UNL     1      -1.789  10.515  17.343  0.00  0.00    +0.000 A 
ATOM     13  C   UNL     1      -2.321  11.185  18.445  0.00  0.00    +0.000 A 
ATOM     14  C   UNL     1      -3.649  11.631  18.426  0.00  0.00    +0.000 A 
BRANCH   9  16
ATOM     15  C   UNL     1      -6.157  12.910  17.991  0.00  0.00    +0.000 C 
ATOM     16  O   UNL     1      -5.754  11.805  17.185  0.00  0.00    +0.000 OA
ENDBRANCH   9  16
BRANCH  12  17
ATOM     17  O   UNL     1      -0.497  10.074  17.365  0.00  0.00    +0.000 OA
ATOM     18  H   UNL     1      -0.027  10.432  16.592  0.00  0.00    +0.000 HD
ENDBRANCH  12  17
ENDBRANCH   7  13
ENDBRANCH   6   8
ENDBRANCH   5   6
ENDBRANCH   4   5
ENDBRANCH   2   4
ENDBRANCH   1   2
BRANCH   1  19
ATOM     19  C   UNL     1       1.840   5.235  20.790  0.00  0.00    +0.000 C 
BRANCH  19  20
ATOM     20  N   UNL     1       0.885   4.222  20.324  0.00  0.00    +0.000 NA
ATOM     21  H   UNL     1       0.736   4.325  19.321  0.00  0.00    +0.000 HD
BRANCH  20  22
ATOM     22  C   UNL     1       1.380   2.879  20.616  0.00  0.00    +0.000 C 
BRANCH  22  23
ATOM     23  C   UNL     1       1.664   2.147  19.311  0.00  0.00    +0.000 C 
BRANCH  23  24
ATOM     24  C   UNL     1       1.524   3.096  18.125  0.00  0.00    +0.000 C 
BRANCH  24  25
ATOM     25  N   UNL     1       2.769   3.847  17.976  0.00  0.00    +0.000 NA
ATOM     26  C   UNL     1       3.675   3.248  17.279  0.00  0.00    +0.000 C 
BRANCH  26  27
ATOM     27  C   UNL     1       4.955   3.912  16.974  0.00  0.00    +0.000 A 
ATOM     28  C   UNL     1       5.218   4.280  15.648  0.00  0.00    +0.000 A 
ATOM     29  C   UNL     1       6.434   4.872  15.314  0.00  0.00    +0.000 A 
ATOM     30  C   UNL     1       7.380   5.093  16.318  0.00  0.00    +0.000 A 
ATOM     31  C   UNL     1       7.121   4.730  17.645  0.00  0.00    +0.000 A 
ATOM     32  C   UNL     1       5.904   4.136  17.968  0.00  0.00    +0.000 A 
BRANCH  32  33
ATOM     33  O   UNL     1       5.644   3.765  19.260  0.00  0.00    +0.000 OA
ATOM     34  H   UNL     1       6.485   3.641  19.732  0.00  0.00    +0.000 HD
ENDBRANCH  32  33
BRANCH  29  35
ATOM     35  O   UNL     1       6.803   5.266  14.058  0.00  0.00    +0.000 OA
ATOM     36  C   UNL     1       6.965   4.228  13.092  0.00  0.00    +0.000 C 
ENDBRANCH  29  35
ENDBRANCH  26  27
ENDBRANCH  24  25
ENDBRANCH  23  24
ENDBRANCH  22  23
ENDBRANCH  20  22
ENDBRANCH  19  20
ENDBRANCH   1  19
TORSDOF 17
ENDMDL
MODEL 4
REMARK VINA RESULT:      -6.3      2.274     10.365
REMARK  Name = 
REMARK  19 active torsions:
REMARK  status: ('A' for Active; 'I' for Inactive)
REMARK    1  A    between atoms: C_1  and  O_2
REMARK    2  A    between atoms: O_2  and  C_3
REMARK    3  A    between atoms: C_6  and  O_7
REMARK    4  A    between atoms: C_8  and  C_9
REMARK    5  A    between atoms: N_10  and  C_11
REMARK    6  A    between atoms: C_11  and  C_12
REMARK    7  A    between atoms: C_12  and  C_13
REMARK    8  A    between atoms: C_13  and  N_14
REMARK    9  A    between atoms: N_14  and  C_15
REMARK   10  A    between atoms: C_15  and  C_16
REMARK   11  A    between atoms: C_16  and  N_17
REMARK   12  A    between atoms: N_17  and  C_18
REMARK   13  A    between atoms: C_18  and  C_19
REMARK   14  A    between atoms: C_19  and  C_20
REMARK   15  A    between atoms: C_20  and  N_21
REMARK   16  A    between atoms: C_22  and  C_23
REMARK   17  A    between atoms: C_25  and  O_26
REMARK   18  A    between atoms: O_26  and  C_27
REMARK   19  A    between atoms: C_30  and  O_31
REMARK                            x       y       z     vdW  Elec       q    Type
REMARK                         _______ _______ _______ _____ _____    ______ ____
ROOT
ATOM      1  C   UNL     1       2.064   5.977  19.719  0.00  0.00    +0.000 C 
ENDROOT
BRANCH   1   2
ATOM      2  N   UNL     1       2.536   5.225  20.884  0.00  0.00    +0.000 NA
ATOM      3  H   UNL     1       3.529   5.020  20.751  0.00  0.00    +0.000 HD
BRANCH   2   4
ATOM      4  C   UNL     1       1.756   4.012  21.082  0.00  0.00    +0.000 C 
BRANCH   4   5
ATOM      5  C   UNL     1       2.680   2.803  21.152  0.00  0.00    +0.000 C 
BRANCH   5   6
ATOM      6  C   UNL     1       3.042   2.332  19.747  0.00  0.00    +0.000 C 
BRANCH   6   8
ATOM      7  C   UNL     1       4.059   3.689  18.154  0.00  0.00    +0.000 C 
ATOM      8  N   UNL     1       4.209   3.074  19.279  0.00  0.00    +0.000 NA
BRANCH   7  13
ATOM      9  C   UNL     1       6.441   5.155  15.649  0.00  0.00    +0.000 A 
ATOM     10  C   UNL     1       7.210   5.991  16.461  0.00  0.00    +0.000 A 
ATOM     11  C   UNL     1       6.960   6.084  17.835  0.00  0.00    +0.000 A 
ATOM     12  C   UNL     1       5.930   5.334  18.403  0.00  0.00    +0.000 A 
ATOM     13  C   UNL     1       5.156   4.501  17.595  0.00  0.00    +0.000 A 
ATOM     14  C   UNL     1       5.414   4.412  16.222  0.00  0.00    +0.000 A 
BRANCH   9  16
ATOM     15  C   UNL     1       6.383   3.987  13.585  0.00  0.00    +0.000 C 
ATOM     16  O   UNL     1       6.778   5.142  14.322  0.00  0.00    +0.000 OA
ENDBRANCH   9  16
BRANCH  12  17
ATOM     17  O   UNL     1       5.683   5.415  19.744  0.00  0.00    +0.000 OA
ATOM     18  H   UNL     1       5.884   4.558  20.155  0.00  0.00    +0.000 HD
ENDBRANCH  12  17
ENDBRANCH   7  13
ENDBRANCH   6   8
ENDBRANCH   5   6
ENDBRANCH   4   5
ENDBRANCH   2   4
ENDBRANCH   1   2
BRANCH   1  19
ATOM     19  C   UNL     1       2.170   7.491  19.978  0.00  0.00    +0.000 C 
BRANCH  19  20
ATOM     20  N   UNL     1       1.681   7.835  21.320  0.00  0.00    +0.000 NA
ATOM     21  H   UNL     1       2.436   8.251  21.864  0.00  0.00    +0.000 HD
BRANCH  20  22
ATOM     22  C   UNL     1       0.561   8.769  21.232  0.00  0.00    +0.000 C 
BRANCH  22  23
ATOM     23  C   UNL     1       0.842   9.799  20.147  0.00  0.00    +0.000 C 
BRANCH  23  24
ATOM     24  C   UNL     1       0.550  11.207  20.658  0.00  0.00    +0.000 C 
BRANCH  24  25
ATOM     25  N   UNL     1      -0.855  11.280  21.053  0.00  0.00    +0.000 NA
ATOM     26  C   UNL     1      -1.475  12.332  20.635  0.00  0.00    +0.000 C 
BRANCH  26  27
ATOM     27  C   UNL     1      -2.916  12.510  20.886  0.00  0.00    +0.000 A 
ATOM     28  C   UNL     1      -3.791  12.502  19.792  0.00  0.00    +0.000 A 
ATOM     29  C   UNL     1      -5.155  12.709  19.985  0.00  0.00    +0.000 A 
ATOM     30  C   UNL     1      -5.633  12.919  21.281  0.00  0.00    +0.000 A 
ATOM     31  C   UNL     1      -4.764  12.924  22.378  0.00  0.00    +0.000 A 
ATOM     32  C   UNL     1      -3.401  12.721  22.174  0.00  0.00    +0.000 A 
BRANCH  32  33
ATOM     33  O   UNL     1      -2.540  12.736  23.237  0.00  0.00    +0.000 OA
ATOM     34  H   UNL     1      -2.204  11.836  23.389  0.00  0.00    +0.000 HD
ENDBRANCH  32  33
BRANCH  29  35
ATOM     35  O   UNL     1      -6.100  12.728  18.996  0.00  0.00    +0.000 OA
ATOM     36  C   UNL     1      -5.680  12.267  17.713  0.00  0.00    +0.000 C 
ENDBRANCH  29  35
ENDBRANCH  26  27
ENDBRANCH  24  25
ENDBRANCH  23  24
ENDBRANCH  22  23
ENDBRANCH  20  22
ENDBRANCH  19  20
ENDBRANCH   1  19
TORSDOF 17
ENDMDL
MODEL 5
REMARK VINA RESULT:      -6.3      2.384      3.050
REMARK  Name = 
REMARK  19 active torsions:
REMARK  status: ('A' for Active; 'I' for Inactive)
REMARK    1  A    between atoms: C_1  and  O_2
REMARK    2  A    between atoms: O_2  and  C_3
REMARK    3  A    between atoms: C_6  and  O_7
REMARK    4  A    between atoms: C_8  and  C_9
REMARK    5  A    between atoms: N_10  and  C_11
REMARK    6  A    between atoms: C_11  and  C_12
REMARK    7  A    between atoms: C_12  and  C_13
REMARK    8  A    between atoms: C_13  and  N_14
REMARK    9  A    between atoms: N_14  and  C_15
REMARK   10  A    between atoms: C_15  and  C_16
REMARK   11  A    between atoms: C_16  and  N_17
REMARK   12  A    between atoms: N_17  and  C_18
REMARK   13  A    between atoms: C_18  and  C_19
REMARK   14  A    between atoms: C_19  and  C_20
REMARK   15  A    between atoms: C_20  and  N_21
REMARK   16  A    between atoms: C_22  and  C_23
REMARK   17  A    between atoms: C_25  and  O_26
REMARK   18  A    between atoms: O_26  and  C_27
REMARK   19  A    between atoms: C_30  and  O_31
REMARK                            x       y       z     vdW  Elec       q    Type
REMARK                         _______ _______ _______ _____ _____    ______ ____
ROOT
ATOM      1  C   UNL     1       1.487   6.724  20.877  0.00  0.00    +0.000 C 
ENDROOT
BRANCH   1   2
ATOM      2  N   UNL     1       2.000   7.891  20.155  0.00  0.00    +0.000 NA
ATOM      3  H   UNL     1       1.260   8.596  20.120  0.00  0.00    +0.000 HD
BRANCH   2   4
ATOM      4  C   UNL     1       2.465   7.528  18.825  0.00  0.00    +0.000 C 
BRANCH   4   5
ATOM      5  C   UNL     1       1.979   8.551  17.805  0.00  0.00    +0.000 C 
BRANCH   5   6
ATOM      6  C   UNL     1       1.578   9.845  18.506  0.00  0.00    +0.000 C 
BRANCH   6   8
ATOM      7  C   UNL     1      -0.330  11.175  18.577  0.00  0.00    +0.000 C 
ATOM      8  N   UNL     1       0.124   9.969  18.487  0.00  0.00    +0.000 NA
BRANCH   7  13
ATOM      9  C   UNL     1      -3.758  12.244  19.674  0.00  0.00    +0.000 A 
ATOM     10  C   UNL     1      -4.514  11.940  18.539  0.00  0.00    +0.000 A 
ATOM     11  C   UNL     1      -3.912  11.381  17.405  0.00  0.00    +0.000 A 
ATOM     12  C   UNL     1      -2.542  11.125  17.405  0.00  0.00    +0.000 A 
ATOM     13  C   UNL     1      -1.781  11.431  18.533  0.00  0.00    +0.000 A 
ATOM     14  C   UNL     1      -2.391  11.988  19.665  0.00  0.00    +0.000 A 
BRANCH   9  16
ATOM     15  C   UNL     1      -3.775  12.809  21.977  0.00  0.00    +0.000 C 
ATOM     16  O   UNL     1      -4.453  12.782  20.723  0.00  0.00    +0.000 OA
ENDBRANCH   9  16
BRANCH  12  17
ATOM     17  O   UNL     1      -1.948  10.576  16.304  0.00  0.00    +0.000 OA
ATOM     18  H   UNL     1      -2.375  10.929  15.505  0.00  0.00    +0.000 HD
ENDBRANCH  12  17
ENDBRANCH   7  13
ENDBRANCH   6   8
ENDBRANCH   5   6
ENDBRANCH   4   5
ENDBRANCH   2   4
ENDBRANCH   1   2
BRANCH   1  19
ATOM     19  C   UNL     1       2.029   5.425  20.254  0.00  0.00    +0.000 C 
BRANCH  19  20
ATOM     20  N   UNL     1       1.081   4.317  20.430  0.00  0.00    +0.000 NA
ATOM     21  H   UNL     1       0.161   4.685  20.666  0.00  0.00    +0.000 HD
BRANCH  20  22
ATOM     22  C   UNL     1       0.996   3.517  19.210  0.00  0.00    +0.000 C 
BRANCH  22  23
ATOM     23  C   UNL     1       1.388   2.079  19.517  0.00  0.00    +0.000 C 
BRANCH  23  24
ATOM     24  C   UNL     1       2.596   1.665  18.683  0.00  0.00    +0.000 C 
BRANCH  24  25
ATOM     25  N   UNL     1       3.506   2.803  18.576  0.00  0.00    +0.000 NA
ATOM     26  C   UNL     1       4.275   2.778  17.541  0.00  0.00    +0.000 C 
BRANCH  26  27
ATOM     27  C   UNL     1       5.193   3.895  17.254  0.00  0.00    +0.000 A 
ATOM     28  C   UNL     1       5.382   4.279  15.920  0.00  0.00    +0.000 A 
ATOM     29  C   UNL     1       6.273   5.304  15.606  0.00  0.00    +0.000 A 
ATOM     30  C   UNL     1       6.966   5.939  16.638  0.00  0.00    +0.000 A 
ATOM     31  C   UNL     1       6.779   5.562  17.973  0.00  0.00    +0.000 A 
ATOM     32  C   UNL     1       5.889   4.534  18.276  0.00  0.00    +0.000 A 
BRANCH  32  33
ATOM     33  O   UNL     1       5.707   4.148  19.576  0.00  0.00    +0.000 OA
ATOM     34  H   UNL     1       4.872   4.522  19.906  0.00  0.00    +0.000 HD
ENDBRANCH  32  33
BRANCH  29  35
ATOM     35  O   UNL     1       6.542   5.758  14.345  0.00  0.00    +0.000 OA
ATOM     36  C   UNL     1       7.408   4.946  13.553  0.00  0.00    +0.000 C 
ENDBRANCH  29  35
ENDBRANCH  26  27
ENDBRANCH  24  25
ENDBRANCH  23  24
ENDBRANCH  22  23
ENDBRANCH  20  22
ENDBRANCH  19  20
ENDBRANCH   1  19
TORSDOF 17
ENDMDL
MODEL 6
REMARK VINA RESULT:      -6.2      5.841      7.791
REMARK  Name = 
REMARK  19 active torsions:
REMARK  status: ('A' for Active; 'I' for Inactive)
REMARK    1  A    between atoms: C_1  and  O_2
REMARK    2  A    between atoms: O_2  and  C_3
REMARK    3  A    between atoms: C_6  and  O_7
REMARK    4  A    between atoms: C_8  and  C_9
REMARK    5  A    between atoms: N_10  and  C_11
REMARK    6  A    between atoms: C_11  and  C_12
REMARK    7  A    between atoms: C_12  and  C_13
REMARK    8  A    between atoms: C_13  and  N_14
REMARK    9  A    between atoms: N_14  and  C_15
REMARK   10  A    between atoms: C_15  and  C_16
REMARK   11  A    between atoms: C_16  and  N_17
REMARK   12  A    between atoms: N_17  and  C_18
REMARK   13  A    between atoms: C_18  and  C_19
REMARK   14  A    between atoms: C_19  and  C_20
REMARK   15  A    between atoms: C_20  and  N_21
REMARK   16  A    between atoms: C_22  and  C_23
REMARK   17  A    between atoms: C_25  and  O_26
REMARK   18  A    between atoms: O_26  and  C_27
REMARK   19  A    between atoms: C_30  and  O_31
REMARK                            x       y       z     vdW  Elec       q    Type
REMARK                         _______ _______ _______ _____ _____    ______ ____
ROOT
ATOM      1  C   UNL     1       9.600  10.568  18.269  0.00  0.00    +0.000 C 
ENDROOT
BRANCH   1   2
ATOM      2  N   UNL     1       9.228  11.875  18.817  0.00  0.00    +0.000 NA
ATOM      3  H   UNL     1       8.221  11.870  18.997  0.00  0.00    +0.000 HD
BRANCH   2   4
ATOM      4  C   UNL     1       9.612  12.954  17.920  0.00  0.00    +0.000 C 
BRANCH   4   5
ATOM      5  C   UNL     1      10.302  14.064  18.704  0.00  0.00    +0.000 C 
BRANCH   5   6
ATOM      6  C   UNL     1       9.280  14.839  19.530  0.00  0.00    +0.000 C 
BRANCH   6   8
ATOM      7  C   UNL     1       7.835  13.973  21.134  0.00  0.00    +0.000 C 
ATOM      8  N   UNL     1       9.069  14.152  20.800  0.00  0.00    +0.000 NA
BRANCH   7  13
ATOM      9  C   UNL     1       6.112  13.138  24.364  0.00  0.00    +0.000 A 
ATOM     10  C   UNL     1       6.793  11.980  24.745  0.00  0.00    +0.000 A 
ATOM     11  C   UNL     1       7.823  11.461  23.952  0.00  0.00    +0.000 A 
ATOM     12  C   UNL     1       8.175  12.105  22.766  0.00  0.00    +0.000 A 
ATOM     13  C   UNL     1       7.495  13.259  22.378  0.00  0.00    +0.000 A 
ATOM     14  C   UNL     1       6.466  13.774  23.179  0.00  0.00    +0.000 A 
BRANCH   9  16
ATOM     15  C   UNL     1       5.532  14.449  26.253  0.00  0.00    +0.000 C 
ATOM     16  O   UNL     1       5.128  13.556  25.218  0.00  0.00    +0.000 OA
ENDBRANCH   9  16
BRANCH  12  17
ATOM     17  O   UNL     1       9.182  11.607  21.989  0.00  0.00    +0.000 OA
ATOM     18  H   UNL     1       9.970  12.167  22.095  0.00  0.00    +0.000 HD
ENDBRANCH  12  17
ENDBRANCH   7  13
ENDBRANCH   6   8
ENDBRANCH   5   6
ENDBRANCH   4   5
ENDBRANCH   2   4
ENDBRANCH   1   2
BRANCH   1  19
ATOM     19  C   UNL     1       8.347   9.705  18.037  0.00  0.00    +0.000 C 
BRANCH  19  20
ATOM     20  N   UNL     1       8.533   8.347  18.567  0.00  0.00    +0.000 NA
ATOM     21  H   UNL     1       8.313   8.333  19.561  0.00  0.00    +0.000 HD
BRANCH  20  22
ATOM     22  C   UNL     1       7.677   7.400  17.857  0.00  0.00    +0.000 C 
BRANCH  22  23
ATOM     23  C   UNL     1       7.719   6.051  18.560  0.00  0.00    +0.000 C 
BRANCH  23  24
ATOM     24  C   UNL     1       7.316   4.935  17.601  0.00  0.00    +0.000 C 
BRANCH  24  25
ATOM     25  N   UNL     1       5.933   4.552  17.880  0.00  0.00    +0.000 NA
ATOM     26  C   UNL     1       5.603   4.613  19.126  0.00  0.00    +0.000 C 
BRANCH  26  27
ATOM     27  C   UNL     1       4.221   4.333  19.555  0.00  0.00    +0.000 A 
ATOM     28  C   UNL     1       3.387   5.413  19.872  0.00  0.00    +0.000 A 
ATOM     29  C   UNL     1       2.088   5.187  20.321  0.00  0.00    +0.000 A 
ATOM     30  C   UNL     1       1.633   3.872  20.447  0.00  0.00    +0.000 A 
ATOM     31  C   UNL     1       2.460   2.789  20.128  0.00  0.00    +0.000 A 
ATOM     32  C   UNL     1       3.759   3.026  19.684  0.00  0.00    +0.000 A 
BRANCH  32  33
ATOM     33  O   UNL     1       4.582   1.975  19.381  0.00  0.00    +0.000 OA
ATOM     34  H   UNL     1       4.304   1.586  18.534  0.00  0.00    +0.000 HD
ENDBRANCH  32  33
BRANCH  29  35
ATOM     35  O   UNL     1       1.190   6.159  20.664  0.00  0.00    +0.000 OA
ATOM     36  C   UNL     1       1.682   7.498  20.674  0.00  0.00    +0.000 C 
ENDBRANCH  29  35
ENDBRANCH  26  27
ENDBRANCH  24  25
ENDBRANCH  23  24
ENDBRANCH  22  23
ENDBRANCH  20  22
ENDBRANCH  19  20
ENDBRANCH   1  19
TORSDOF 17
ENDMDL
MODEL 7
REMARK VINA RESULT:      -6.1      2.141     10.039
REMARK  Name = 
REMARK  19 active torsions:
REMARK  status: ('A' for Active; 'I' for Inactive)
REMARK    1  A    between atoms: C_1  and  O_2
REMARK    2  A    between atoms: O_2  and  C_3
REMARK    3  A    between atoms: C_6  and  O_7
REMARK    4  A    between atoms: C_8  and  C_9
REMARK    5  A    between atoms: N_10  and  C_11
REMARK    6  A    between atoms: C_11  and  C_12
REMARK    7  A    between atoms: C_12  and  C_13
REMARK    8  A    between atoms: C_13  and  N_14
REMARK    9  A    between atoms: N_14  and  C_15
REMARK   10  A    between atoms: C_15  and  C_16
REMARK   11  A    between atoms: C_16  and  N_17
REMARK   12  A    between atoms: N_17  and  C_18
REMARK   13  A    between atoms: C_18  and  C_19
REMARK   14  A    between atoms: C_19  and  C_20
REMARK   15  A    between atoms: C_20  and  N_21
REMARK   16  A    between atoms: C_22  and  C_23
REMARK   17  A    between atoms: C_25  and  O_26
REMARK   18  A    between atoms: O_26  and  C_27
REMARK   19  A    between atoms: C_30  and  O_31
REMARK                            x       y       z     vdW  Elec       q    Type
REMARK                         _______ _______ _______ _____ _____    ______ ____
ROOT
ATOM      1  C   UNL     1       3.454   3.265  18.209  0.00  0.00    +0.000 C 
ENDROOT
BRANCH   1   2
ATOM      2  N   UNL     1       4.856   3.461  17.834  0.00  0.00    +0.000 NA
ATOM      3  H   UNL     1       5.295   2.541  17.745  0.00  0.00    +0.000 HD
BRANCH   2   4
ATOM      4  C   UNL     1       5.550   4.299  18.800  0.00  0.00    +0.000 C 
BRANCH   4   5
ATOM      5  C   UNL     1       6.841   4.836  18.194  0.00  0.00    +0.000 C 
BRANCH   5   6
ATOM      6  C   UNL     1       6.566   6.124  17.424  0.00  0.00    +0.000 C 
BRANCH   6   8
ATOM      7  C   UNL     1       7.305   5.197  15.423  0.00  0.00    +0.000 C 
ATOM      8  N   UNL     1       6.334   5.803  16.019  0.00  0.00    +0.000 NA
BRANCH   7  13
ATOM      9  C   UNL     1       6.015   3.448  12.360  0.00  0.00    +0.000 A 
ATOM     10  C   UNL     1       6.865   3.959  11.377  0.00  0.00    +0.000 A 
ATOM     11  C   UNL     1       7.869   4.878  11.703  0.00  0.00    +0.000 A 
ATOM     12  C   UNL     1       8.025   5.292  13.026  0.00  0.00    +0.000 A 
ATOM     13  C   UNL     1       7.175   4.788  14.012  0.00  0.00    +0.000 A 
ATOM     14  C   UNL     1       6.174   3.867  13.677  0.00  0.00    +0.000 A 
BRANCH   9  16
ATOM     15  C   UNL     1       5.571   1.392  11.266  0.00  0.00    +0.000 C 
ATOM     16  O   UNL     1       5.075   2.554  11.926  0.00  0.00    +0.000 OA
ENDBRANCH   9  16
BRANCH  12  17
ATOM     17  O   UNL     1       9.005   6.185  13.354  0.00  0.00    +0.000 OA
ATOM     18  H   UNL     1       8.752   7.065  13.029  0.00  0.00    +0.000 HD
ENDBRANCH  12  17
ENDBRANCH   7  13
ENDBRANCH   6   8
ENDBRANCH   5   6
ENDBRANCH   4   5
ENDBRANCH   2   4
ENDBRANCH   1   2
BRANCH   1  19
ATOM     19  C   UNL     1       3.115   4.080  19.470  0.00  0.00    +0.000 C 
BRANCH  19  20
ATOM     20  N   UNL     1       1.949   4.945  19.245  0.00  0.00    +0.000 NA
ATOM     21  H   UNL     1       1.193   4.673  19.872  0.00  0.00    +0.000 HD
BRANCH  20  22
ATOM     22  C   UNL     1       2.300   6.345  19.470  0.00  0.00    +0.000 C 
BRANCH  22  23
ATOM     23  C   UNL     1       3.033   6.888  18.252  0.00  0.00    +0.000 C 
BRANCH  23  24
ATOM     24  C   UNL     1       2.277   8.073  17.658  0.00  0.00    +0.000 C 
BRANCH  24  25
ATOM     25  N   UNL     1       1.717   8.867  18.750  0.00  0.00    +0.000 NA
ATOM     26  C   UNL     1       0.881   9.776  18.375  0.00  0.00    +0.000 C 
BRANCH  26  27
ATOM     27  C   UNL     1       0.173  10.605  19.367  0.00  0.00    +0.000 A 
ATOM     28  C   UNL     1       0.304  10.283  20.724  0.00  0.00    +0.000 A 
ATOM     29  C   UNL     1      -0.383  11.018  21.688  0.00  0.00    +0.000 A 
ATOM     30  C   UNL     1      -1.197  12.077  21.280  0.00  0.00    +0.000 A 
ATOM     31  C   UNL     1      -1.329  12.406  19.926  0.00  0.00    +0.000 A 
ATOM     32  C   UNL     1      -0.641  11.663  18.970  0.00  0.00    +0.000 A 
BRANCH  32  33
ATOM     33  O   UNL     1      -0.772  11.966  17.642  0.00  0.00    +0.000 OA
ATOM     34  H   UNL     1      -1.681  11.767  17.357  0.00  0.00    +0.000 HD
ENDBRANCH  32  33
BRANCH  29  35
ATOM     35  O   UNL     1      -0.336  10.792  23.035  0.00  0.00    +0.000 OA
ATOM     36  C   UNL     1      -0.075   9.450  23.442  0.00  0.00    +0.000 C 
ENDBRANCH  29  35
ENDBRANCH  26  27
ENDBRANCH  24  25
ENDBRANCH  23  24
ENDBRANCH  22  23
ENDBRANCH  20  22
ENDBRANCH  19  20
ENDBRANCH   1  19
TORSDOF 17
ENDMDL
MODEL 8
REMARK VINA RESULT:      -6.1      6.228      9.111
REMARK  Name = 
REMARK  19 active torsions:
REMARK  status: ('A' for Active; 'I' for Inactive)
REMARK    1  A    between atoms: C_1  and  O_2
REMARK    2  A    between atoms: O_2  and  C_3
REMARK    3  A    between atoms: C_6  and  O_7
REMARK    4  A    between atoms: C_8  and  C_9
REMARK    5  A    between atoms: N_10  and  C_11
REMARK    6  A    between atoms: C_11  and  C_12
REMARK    7  A    between atoms: C_12  and  C_13
REMARK    8  A    between atoms: C_13  and  N_14
REMARK    9  A    between atoms: N_14  and  C_15
REMARK   10  A    between atoms: C_15  and  C_16
REMARK   11  A    between atoms: C_16  and  N_17
REMARK   12  A    between atoms: N_17  and  C_18
REMARK   13  A    between atoms: C_18  and  C_19
REMARK   14  A    between atoms: C_19  and  C_20
REMARK   15  A    between atoms: C_20  and  N_21
REMARK   16  A    between atoms: C_22  and  C_23
REMARK   17  A    between atoms: C_25  and  O_26
REMARK   18  A    between atoms: O_26  and  C_27
REMARK   19  A    between atoms: C_30  and  O_31
REMARK                            x       y       z     vdW  Elec       q    Type
REMARK                         _______ _______ _______ _____ _____    ______ ____
ROOT
ATOM      1  C   UNL     1       7.263   6.084  18.658  0.00  0.00    +0.000 C 
ENDROOT
BRANCH   1   2
ATOM      2  N   UNL     1       8.371   7.033  18.794  0.00  0.00    +0.000 NA
ATOM      3  H   UNL     1       8.516   7.215  19.790  0.00  0.00    +0.000 HD
BRANCH   2   4
ATOM      4  C   UNL     1       8.112   8.259  18.052  0.00  0.00    +0.000 C 
BRANCH   4   5
ATOM      5  C   UNL     1       8.830   9.430  18.712  0.00  0.00    +0.000 C 
BRANCH   5   6
ATOM      6  C   UNL     1       8.511  10.727  17.976  0.00  0.00    +0.000 C 
BRANCH   6   8
ATOM      7  C   UNL     1       9.642  12.734  17.651  0.00  0.00    +0.000 C 
ATOM      8  N   UNL     1       9.366  11.792  18.490  0.00  0.00    +0.000 NA
BRANCH   7  13
ATOM      9  C   UNL     1      11.254  15.307  19.860  0.00  0.00    +0.000 A 
ATOM     10  C   UNL     1      11.992  16.041  18.930  0.00  0.00    +0.000 A 
ATOM     11  C   UNL     1      11.970  15.705  17.571  0.00  0.00    +0.000 A 
ATOM     12  C   UNL     1      11.203  14.623  17.138  0.00  0.00    +0.000 A 
ATOM     13  C   UNL     1      10.468  13.883  18.065  0.00  0.00    +0.000 A 
ATOM     14  C   UNL     1      10.494  14.228  19.422  0.00  0.00    +0.000 A 
BRANCH   9  16
ATOM     15  C   UNL     1      10.315  15.291  22.038  0.00  0.00    +0.000 C 
ATOM     16  O   UNL     1      11.348  15.729  21.159  0.00  0.00    +0.000 OA
ENDBRANCH   9  16
BRANCH  12  17
ATOM     17  O   UNL     1      11.173  14.291  15.814  0.00  0.00    +0.000 OA
ATOM     18  H   UNL     1      10.257  14.353  15.493  0.00  0.00    +0.000 HD
ENDBRANCH  12  17
ENDBRANCH   7  13
ENDBRANCH   6   8
ENDBRANCH   5   6
ENDBRANCH   4   5
ENDBRANCH   2   4
ENDBRANCH   1   2
BRANCH   1  19
ATOM     19  C   UNL     1       7.760   4.761  18.049  0.00  0.00    +0.000 C 
BRANCH  19  20
ATOM     20  N   UNL     1       7.560   4.738  16.595  0.00  0.00    +0.000 NA
ATOM     21  H   UNL     1       8.225   4.097  16.166  0.00  0.00    +0.000 HD
BRANCH  20  22
ATOM     22  C   UNL     1       6.196   4.324  16.273  0.00  0.00    +0.000 C 
BRANCH  22  23
ATOM     23  C   UNL     1       5.637   5.224  15.179  0.00  0.00    +0.000 C 
BRANCH  23  24
ATOM     24  C   UNL     1       5.162   6.549  15.768  0.00  0.00    +0.000 C 
BRANCH  24  25
ATOM     25  N   UNL     1       4.611   6.301  17.099  0.00  0.00    +0.000 NA
ATOM     26  C   UNL     1       3.449   6.822  17.302  0.00  0.00    +0.000 C 
BRANCH  26  27
ATOM     27  C   UNL     1       2.729   6.594  18.568  0.00  0.00    +0.000 A 
ATOM     28  C   UNL     1       2.272   7.705  19.287  0.00  0.00    +0.000 A 
ATOM     29  C   UNL     1       1.624   7.531  20.508  0.00  0.00    +0.000 A 
ATOM     30  C   UNL     1       1.438   6.237  20.998  0.00  0.00    +0.000 A 
ATOM     31  C   UNL     1       1.890   5.122  20.283  0.00  0.00    +0.000 A 
ATOM     32  C   UNL     1       2.540   5.307  19.065  0.00  0.00    +0.000 A 
BRANCH  32  33
ATOM     33  O   UNL     1       2.998   4.226  18.362  0.00  0.00    +0.000 OA
ATOM     34  H   UNL     1       2.333   3.516  18.398  0.00  0.00    +0.000 HD
ENDBRANCH  32  33
BRANCH  29  35
ATOM     35  O   UNL     1       1.141   8.538  21.297  0.00  0.00    +0.000 OA
ATOM     36  C   UNL     1       0.535   9.637  20.619  0.00  0.00    +0.000 C 
ENDBRANCH  29  35
ENDBRANCH  26  27
ENDBRANCH  24  25
ENDBRANCH  23  24
ENDBRANCH  22  23
ENDBRANCH  20  22
ENDBRANCH  19  20
ENDBRANCH   1  19
TORSDOF 17
ENDMDL
MODEL 9
REMARK VINA RESULT:      -6.0      5.504      9.073
REMARK  Name = 
REMARK  19 active torsions:
REMARK  status: ('A' for Active; 'I' for Inactive)
REMARK    1  A    between atoms: C_1  and  O_2
REMARK    2  A    between atoms: O_2  and  C_3
REMARK    3  A    between atoms: C_6  and  O_7
REMARK    4  A    between atoms: C_8  and  C_9
REMARK    5  A    between atoms: N_10  and  C_11
REMARK    6  A    between atoms: C_11  and  C_12
REMARK    7  A    between atoms: C_12  and  C_13
REMARK    8  A    between atoms: C_13  and  N_14
REMARK    9  A    between atoms: N_14  and  C_15
REMARK   10  A    between atoms: C_15  and  C_16
REMARK   11  A    between atoms: C_16  and  N_17
REMARK   12  A    between atoms: N_17  and  C_18
REMARK   13  A    between atoms: C_18  and  C_19
REMARK   14  A    between atoms: C_19  and  C_20
REMARK   15  A    between atoms: C_20  and  N_21
REMARK   16  A    between atoms: C_22  and  C_23
REMARK   17  A    between atoms: C_25  and  O_26
REMARK   18  A    between atoms: O_26  and  C_27
REMARK   19  A    between atoms: C_30  and  O_31
REMARK                            x       y       z     vdW  Elec       q    Type
REMARK                         _______ _______ _______ _____ _____    ______ ____
ROOT
ATOM      1  C   UNL     1       7.741   6.558  18.464  0.00  0.00    +0.000 C 
ENDROOT
BRANCH   1   2
ATOM      2  N   UNL     1       6.842   5.667  17.727  0.00  0.00    +0.000 NA
ATOM      3  H   UNL     1       6.791   4.777  18.229  0.00  0.00    +0.000 HD
BRANCH   2   4
ATOM      4  C   UNL     1       7.285   5.486  16.352  0.00  0.00    +0.000 C 
BRANCH   4   5
ATOM      5  C   UNL     1       6.087   5.500  15.411  0.00  0.00    +0.000 C 
BRANCH   5   6
ATOM      6  C   UNL     1       5.232   4.255  15.627  0.00  0.00    +0.000 C 
BRANCH   6   8
ATOM      7  C   UNL     1       3.917   3.496  17.389  0.00  0.00    +0.000 C 
ATOM      8  N   UNL     1       4.258   4.520  16.681  0.00  0.00    +0.000 NA
BRANCH   7  13
ATOM      9  C   UNL     1       1.898   5.110  20.113  0.00  0.00    +0.000 A 
ATOM     10  C   UNL     1       1.199   4.013  20.621  0.00  0.00    +0.000 A 
ATOM     11  C   UNL     1       1.381   2.734  20.080  0.00  0.00    +0.000 A 
ATOM     12  C   UNL     1       2.269   2.551  19.021  0.00  0.00    +0.000 A 
ATOM     13  C   UNL     1       2.966   3.644  18.507  0.00  0.00    +0.000 A 
ATOM     14  C   UNL     1       2.781   4.920  19.055  0.00  0.00    +0.000 A 
BRANCH   9  16
ATOM     15  C   UNL     1       2.034   7.475  20.001  0.00  0.00    +0.000 C 
ATOM     16  O   UNL     1       1.644   6.309  20.722  0.00  0.00    +0.000 OA
ENDBRANCH   9  16
BRANCH  12  17
ATOM     17  O   UNL     1       2.455   1.306  18.490  0.00  0.00    +0.000 OA
ATOM     18  H   UNL     1       3.273   1.305  17.964  0.00  0.00    +0.000 HD
ENDBRANCH  12  17
ENDBRANCH   7  13
ENDBRANCH   6   8
ENDBRANCH   5   6
ENDBRANCH   4   5
ENDBRANCH   2   4
ENDBRANCH   1   2
BRANCH   1  19
ATOM     19  C   UNL     1       7.862   7.914  17.746  0.00  0.00    +0.000 C 
BRANCH  19  20
ATOM     20  N   UNL     1       8.622   8.876  18.554  0.00  0.00    +0.000 NA
ATOM     21  H   UNL     1       9.611   8.631  18.541  0.00  0.00    +0.000 HD
BRANCH  20  22
ATOM     22  C   UNL     1       8.441  10.232  18.040  0.00  0.00    +0.000 C 
BRANCH  22  23
ATOM     23  C   UNL     1       9.796  10.917  17.928  0.00  0.00    +0.000 C 
BRANCH  23  24
ATOM     24  C   UNL     1      10.353  11.229  19.313  0.00  0.00    +0.000 C 
BRANCH  24  25
ATOM     25  N   UNL     1       9.346  11.970  20.069  0.00  0.00    +0.000 NA
ATOM     26  C   UNL     1       9.559  12.016  21.341  0.00  0.00    +0.000 C 
BRANCH  26  27
ATOM     27  C   UNL     1       8.673  12.793  22.227  0.00  0.00    +0.000 A 
ATOM     28  C   UNL     1       8.234  12.202  23.419  0.00  0.00    +0.000 A 
ATOM     29  C   UNL     1       7.364  12.889  24.262  0.00  0.00    +0.000 A 
ATOM     30  C   UNL     1       6.942  14.171  23.902  0.00  0.00    +0.000 A 
ATOM     31  C   UNL     1       7.379  14.768  22.714  0.00  0.00    +0.000 A 
ATOM     32  C   UNL     1       8.247  14.071  21.876  0.00  0.00    +0.000 A 
BRANCH  32  33
ATOM     33  O   UNL     1       8.671  14.639  20.706  0.00  0.00    +0.000 OA
ATOM     34  H   UNL     1       8.577  15.605  20.767  0.00  0.00    +0.000 HD
ENDBRANCH  32  33
BRANCH  29  35
ATOM     35  O   UNL     1       6.867  12.412  25.443  0.00  0.00    +0.000 OA
ATOM     36  C   UNL     1       6.162  11.173  25.377  0.00  0.00    +0.000 C 
ENDBRANCH  29  35
ENDBRANCH  26  27
ENDBRANCH  24  25
ENDBRANCH  23  24
ENDBRANCH  22  23
ENDBRANCH  20  22
ENDBRANCH  19  20
ENDBRANCH   1  19
TORSDOF 17
ENDMDL
