MODEL 1
REMARK VINA RESULT:      -8.8      0.000      0.000
REMARK  Name = 
REMARK  9 active torsions:
REMARK  status: ('A' for Active; 'I' for Inactive)
REMARK    1  A    between atoms: C_1  and  N_2
REMARK    2  A    between atoms: C_3  and  C_5
REMARK    3  A    between atoms: C_8  and  C_9
REMARK    4  A    between atoms: C_12  and  N_13
REMARK    5  A    between atoms: N_13  and  C_14
REMARK    6  A    between atoms: C_17  and  O_19
REMARK    7  A    between atoms: O_19  and  C_20
REMARK    8  A    between atoms: C_22  and  C_23
REMARK    9  A    between atoms: C_24  and  C_25
REMARK                            x       y       z     vdW  Elec       q    Type
REMARK                         _______ _______ _______ _____ _____    ______ ____
ROOT
ATOM      1  C   UNL     1       2.201   6.781  19.916  0.00  0.00    +0.000 A 
ATOM      2  C   UNL     1       3.496   6.231  19.691  0.00  0.00    +0.000 A 
ATOM      3  C   UNL     1       3.442   4.863  19.905  0.00  0.00    +0.000 A 
ATOM      4  C   UNL     1       4.363   3.773  19.701  0.00  0.00    +0.000 A 
ATOM      5  C   UNL     1       3.983   2.558  20.179  0.00  0.00    +0.000 A 
ATOM      6  C   UNL     1       2.629   2.484  20.815  0.00  0.00    +0.000 A 
ATOM      7  N   UNL     1       1.748   3.427  20.916  0.00  0.00    +0.000 NA
ATOM      8  N   UNL     1       2.190   4.602  20.432  0.00  0.00    +0.000 N 
ATOM      9  C   UNL     1       1.423   5.739  20.375  0.00  0.00    +0.000 A 
ENDROOT
BRANCH   1  13
ATOM     10  C   UNL     1       0.852  10.713  19.275  0.00  0.00    +0.000 A 
ATOM     11  C   UNL     1       1.442  10.058  18.199  0.00  0.00    +0.000 A 
ATOM     12  C   UNL     1       1.877   8.741  18.379  0.00  0.00    +0.000 A 
ATOM     13  C   UNL     1       1.712   8.118  19.621  0.00  0.00    +0.000 A 
ATOM     14  C   UNL     1       1.089   8.864  20.624  0.00  0.00    +0.000 A 
ATOM     15  N   UNL     1       0.657  10.140  20.494  0.00  0.00    +0.000 NA
BRANCH  10  18
ATOM     16  C   UNL     1      -1.218  13.802  19.966  0.00  0.00    +0.000 C 
ATOM     17  N   UNL     1      -0.652  12.483  19.960  0.00  0.00    +0.000 N 
ATOM     18  C   UNL     1       0.401  12.137  19.138  0.00  0.00    +0.000 C 
ATOM     19  O   UNL     1       0.943  12.911  18.358  0.00  0.00    +0.000 OA
ATOM     20  H   UNL     1      -1.012  11.752  20.569  0.00  0.00    +0.000 HD
ENDBRANCH  10  18
ENDBRANCH   1  13
BRANCH   5  21
ATOM     21  C   UNL     1       4.720   1.263  20.067  0.00  0.00    +0.000 C 
ATOM     22  N   UNL     1       4.490   0.498  18.972  0.00  0.00    +0.000 N 
ATOM     23  O   UNL     1       5.474   0.867  20.948  0.00  0.00    +0.000 OA
ATOM     24  H   UNL     1       3.803   0.779  18.282  0.00  0.00    +0.000 HD
ATOM     25  H   UNL     1       4.929  -0.411  18.921  0.00  0.00    +0.000 HD
ENDBRANCH   5  21
BRANCH   4  26
ATOM     26  N   UNL     1       5.500   4.012  18.896  0.00  0.00    +0.000 N 
ATOM     27  H   UNL     1       5.865   3.105  18.591  0.00  0.00    +0.000 HD
BRANCH  26  28
ATOM     28  C   UNL     1       5.522   4.944  17.748  0.00  0.00    +0.000 C 
ATOM     29  C   UNL     1       5.722   4.251  16.395  0.00  0.00    +0.000 C 
ATOM     30  N   UNL     1       6.680   5.043  15.663  0.00  0.00    +0.000 N 
ATOM     31  C   UNL     1       7.018   4.727  14.369  0.00  0.00    +0.000 C 
ATOM     32  O   UNL     1       6.586   3.740  13.784  0.00  0.00    +0.000 OA
ATOM     33  C   UNL     1       7.078   6.236  16.383  0.00  0.00    +0.000 C 
ATOM     34  C   UNL     1       6.688   5.971  17.844  0.00  0.00    +0.000 C 
ATOM     35  C   UNL     1       7.923   5.565  18.655  0.00  0.00    +0.000 C 
BRANCH  31  36
ATOM     36  O   UNL     1       7.880   5.624  13.827  0.00  0.00    +0.000 OA
ATOM     37  C   UNL     1       7.942   5.572  12.401  0.00  0.00    +0.000 C 
ENDBRANCH  31  36
ENDBRANCH  26  28
ENDBRANCH   4  26
TORSDOF 6
ENDMDL
MODEL 2
REMARK VINA RESULT:      -8.7      1.175      1.218
REMARK  Name = 
REMARK  9 active torsions:
REMARK  status: ('A' for Active; 'I' for Inactive)
REMARK    1  A    between atoms: C_1  and  N_2
REMARK    2  A    between atoms: C_3  and  C_5
REMARK    3  A    between atoms: C_8  and  C_9
REMARK    4  A    between atoms: C_12  and  N_13
REMARK    5  A    between atoms: N_13  and  C_14
REMARK    6  A    between atoms: C_17  and  O_19
REMARK    7  A    between atoms: O_19  and  C_20
REMARK    8  A    between atoms: C_22  and  C_23
REMARK    9  A    between atoms: C_24  and  C_25
REMARK                            x       y       z     vdW  Elec       q    Type
REMARK                         _______ _______ _______ _____ _____    ______ ____
ROOT
ATOM      1  C   UNL     1       1.715   7.132  20.458  0.00  0.00    +0.000 A 
ATOM      2  C   UNL     1       3.018   6.588  20.271  0.00  0.00    +0.000 A 
ATOM      3  C   UNL     1       2.904   5.222  20.066  0.00  0.00    +0.000 A 
ATOM      4  C   UNL     1       3.824   4.179  19.688  0.00  0.00    +0.000 A 
ATOM      5  C   UNL     1       3.350   2.905  19.730  0.00  0.00    +0.000 A 
ATOM      6  C   UNL     1       1.912   2.739  20.115  0.00  0.00    +0.000 A 
ATOM      7  N   UNL     1       1.045   3.669  20.360  0.00  0.00    +0.000 NA
ATOM      8  N   UNL     1       1.581   4.903  20.308  0.00  0.00    +0.000 N 
ATOM      9  C   UNL     1       0.855   6.055  20.476  0.00  0.00    +0.000 A 
ENDROOT
BRANCH   1  13
ATOM     10  C   UNL     1       0.668  11.195  20.759  0.00  0.00    +0.000 A 
ATOM     11  C   UNL     1       0.786  10.660  19.481  0.00  0.00    +0.000 A 
ATOM     12  C   UNL     1       1.110   9.306  19.353  0.00  0.00    +0.000 A 
ATOM     13  C   UNL     1       1.305   8.527  20.499  0.00  0.00    +0.000 A 
ATOM     14  C   UNL     1       1.141   9.164  21.731  0.00  0.00    +0.000 A 
ATOM     15  N   UNL     1       0.833  10.471  21.899  0.00  0.00    +0.000 NA
BRANCH  10  18
ATOM     16  C   UNL     1      -1.024  14.513  20.103  0.00  0.00    +0.000 C 
ATOM     17  N   UNL     1      -0.599  13.143  20.076  0.00  0.00    +0.000 N 
ATOM     18  C   UNL     1       0.356  12.651  20.943  0.00  0.00    +0.000 C 
ATOM     19  O   UNL     1       0.910  13.324  21.804  0.00  0.00    +0.000 OA
ATOM     20  H   UNL     1      -0.991  12.482  19.410  0.00  0.00    +0.000 HD
ENDBRANCH  10  18
ENDBRANCH   1  13
BRANCH   5  21
ATOM     21  C   UNL     1       4.070   1.651  19.353  0.00  0.00    +0.000 C 
ATOM     22  N   UNL     1       5.141   1.289  20.102  0.00  0.00    +0.000 N 
ATOM     23  O   UNL     1       3.749   0.986  18.376  0.00  0.00    +0.000 OA
ATOM     24  H   UNL     1       5.464   1.880  20.859  0.00  0.00    +0.000 HD
ATOM     25  H   UNL     1       5.677   0.483  19.813  0.00  0.00    +0.000 HD
ENDBRANCH   5  21
BRANCH   4  26
ATOM     26  N   UNL     1       5.077   4.564  19.160  0.00  0.00    +0.000 N 
ATOM     27  H   UNL     1       5.653   3.721  19.071  0.00  0.00    +0.000 HD
BRANCH  26  28
ATOM     28  C   UNL     1       5.247   5.388  17.944  0.00  0.00    +0.000 C 
ATOM     29  C   UNL     1       5.427   4.565  16.662  0.00  0.00    +0.000 C 
ATOM     30  N   UNL     1       6.494   5.188  15.919  0.00  0.00    +0.000 N 
ATOM     31  C   UNL     1       6.849   4.730  14.672  0.00  0.00    +0.000 C 
ATOM     32  O   UNL     1       6.338   3.747  14.147  0.00  0.00    +0.000 OA
ATOM     33  C   UNL     1       6.989   6.389  16.560  0.00  0.00    +0.000 C 
ATOM     34  C   UNL     1       6.513   6.292  18.015  0.00  0.00    +0.000 C 
ATOM     35  C   UNL     1       7.662   5.829  18.917  0.00  0.00    +0.000 C 
BRANCH  31  36
ATOM     36  O   UNL     1       7.826   5.483  14.104  0.00  0.00    +0.000 OA
ATOM     37  C   UNL     1       7.951   5.291  12.694  0.00  0.00    +0.000 C 
ENDBRANCH  31  36
ENDBRANCH  26  28
ENDBRANCH   4  26
TORSDOF 6
ENDMDL
MODEL 3
REMARK VINA RESULT:      -8.7      0.845      1.103
REMARK  Name = 
REMARK  9 active torsions:
REMARK  status: ('A' for Active; 'I' for Inactive)
REMARK    1  A    between atoms: C_1  and  N_2
REMARK    2  A    between atoms: C_3  and  C_5
REMARK    3  A    between atoms: C_8  and  C_9
REMARK    4  A    between atoms: C_12  and  N_13
REMARK    5  A    between atoms: N_13  and  C_14
REMARK    6  A    between atoms: C_17  and  O_19
REMARK    7  A    between atoms: O_19  and  C_20
REMARK    8  A    between atoms: C_22  and  C_23
REMARK    9  A    between atoms: C_24  and  C_25
REMARK                            x       y       z     vdW  Elec       q    Type
REMARK                         _______ _______ _______ _____ _____    ______ ____
ROOT
ATOM      1  C   UNL     1       1.925   6.871  20.160  0.00  0.00    +0.000 A 
ATOM      2  C   UNL     1       3.251   6.376  19.994  0.00  0.00    +0.000 A 
ATOM      3  C   UNL     1       3.216   4.991  20.023  0.00  0.00    +0.000 A 
ATOM      4  C   UNL     1       4.183   3.953  19.771  0.00  0.00    +0.000 A 
ATOM      5  C   UNL     1       3.794   2.679  20.049  0.00  0.00    +0.000 A 
ATOM      6  C   UNL     1       2.389   2.501  20.535  0.00  0.00    +0.000 A 
ATOM      7  N   UNL     1       1.476   3.408  20.671  0.00  0.00    +0.000 NA
ATOM      8  N   UNL     1       1.928   4.644  20.387  0.00  0.00    +0.000 N 
ATOM      9  C   UNL     1       1.138   5.765  20.403  0.00  0.00    +0.000 A 
ENDROOT
BRANCH   1  13
ATOM     10  C   UNL     1       0.440  10.743  19.459  0.00  0.00    +0.000 A 
ATOM     11  C   UNL     1       0.173  10.173  20.699  0.00  0.00    +0.000 A 
ATOM     12  C   UNL     1       0.676   8.896  20.966  0.00  0.00    +0.000 A 
ATOM     13  C   UNL     1       1.428   8.228  19.994  0.00  0.00    +0.000 A 
ATOM     14  C   UNL     1       1.650   8.903  18.792  0.00  0.00    +0.000 A 
ATOM     15  N   UNL     1       1.178  10.135  18.491  0.00  0.00    +0.000 NA
BRANCH  10  18
ATOM     16  C   UNL     1       0.481  14.476  18.853  0.00  0.00    +0.000 C 
ATOM     17  N   UNL     1       0.823  13.114  19.150  0.00  0.00    +0.000 N 
ATOM     18  C   UNL     1      -0.109  12.097  19.116  0.00  0.00    +0.000 C 
ATOM     19  O   UNL     1      -1.288  12.259  18.825  0.00  0.00    +0.000 OA
ATOM     20  H   UNL     1       1.773  12.852  19.400  0.00  0.00    +0.000 HD
ENDBRANCH  10  18
ENDBRANCH   1  13
BRANCH   5  21
ATOM     21  C   UNL     1       4.576   1.422  19.844  0.00  0.00    +0.000 C 
ATOM     22  N   UNL     1       4.335   0.706  18.718  0.00  0.00    +0.000 N 
ATOM     23  O   UNL     1       5.377   1.012  20.675  0.00  0.00    +0.000 OA
ATOM     24  H   UNL     1       3.614   0.994  18.068  0.00  0.00    +0.000 HD
ATOM     25  H   UNL     1       4.806  -0.181  18.604  0.00  0.00    +0.000 HD
ENDBRANCH   5  21
BRANCH   4  26
ATOM     26  N   UNL     1       5.384   4.314  19.118  0.00  0.00    +0.000 N 
ATOM     27  H   UNL     1       5.907   3.454  18.925  0.00  0.00    +0.000 HD
BRANCH  26  28
ATOM     28  C   UNL     1       5.450   5.189  17.928  0.00  0.00    +0.000 C 
ATOM     29  C   UNL     1       5.640   4.426  16.612  0.00  0.00    +0.000 C 
ATOM     30  N   UNL     1       6.633   5.150  15.855  0.00  0.00    +0.000 N 
ATOM     31  C   UNL     1       6.973   4.762  14.582  0.00  0.00    +0.000 C 
ATOM     32  O   UNL     1       6.514   3.763  14.038  0.00  0.00    +0.000 OA
ATOM     33  C   UNL     1       7.064   6.361  16.523  0.00  0.00    +0.000 C 
ATOM     34  C   UNL     1       6.650   6.180  17.990  0.00  0.00    +0.000 C 
ATOM     35  C   UNL     1       7.861   5.770  18.834  0.00  0.00    +0.000 C 
BRANCH  31  36
ATOM     36  O   UNL     1       7.872   5.602  14.009  0.00  0.00    +0.000 OA
ATOM     37  C   UNL     1       7.996   5.434  12.596  0.00  0.00    +0.000 C 
ENDBRANCH  31  36
ENDBRANCH  26  28
ENDBRANCH   4  26
TORSDOF 6
ENDMDL
MODEL 4
REMARK VINA RESULT:      -8.5      1.253      1.517
REMARK  Name = 
REMARK  9 active torsions:
REMARK  status: ('A' for Active; 'I' for Inactive)
REMARK    1  A    between atoms: C_1  and  N_2
REMARK    2  A    between atoms: C_3  and  C_5
REMARK    3  A    between atoms: C_8  and  C_9
REMARK    4  A    between atoms: C_12  and  N_13
REMARK    5  A    between atoms: N_13  and  C_14
REMARK    6  A    between atoms: C_17  and  O_19
REMARK    7  A    between atoms: O_19  and  C_20
REMARK    8  A    between atoms: C_22  and  C_23
REMARK    9  A    between atoms: C_24  and  C_25
REMARK                            x       y       z     vdW  Elec       q    Type
REMARK                         _______ _______ _______ _____ _____    ______ ____
ROOT
ATOM      1  C   UNL     1       1.601   7.022  20.566  0.00  0.00    +0.000 A 
ATOM      2  C   UNL     1       2.914   6.502  20.376  0.00  0.00    +0.000 A 
ATOM      3  C   UNL     1       2.819   5.152  20.080  0.00  0.00    +0.000 A 
ATOM      4  C   UNL     1       3.758   4.143  19.657  0.00  0.00    +0.000 A 
ATOM      5  C   UNL     1       3.296   2.865  19.604  0.00  0.00    +0.000 A 
ATOM      6  C   UNL     1       1.852   2.663  19.942  0.00  0.00    +0.000 A 
ATOM      7  N   UNL     1       0.970   3.567  20.225  0.00  0.00    +0.000 NA
ATOM      8  N   UNL     1       1.494   4.806  20.267  0.00  0.00    +0.000 N 
ATOM      9  C   UNL     1       0.752   5.938  20.492  0.00  0.00    +0.000 A 
ENDROOT
BRANCH   1  13
ATOM     10  C   UNL     1       0.285  11.015  20.704  0.00  0.00    +0.000 A 
ATOM     11  C   UNL     1       0.182  10.268  21.873  0.00  0.00    +0.000 A 
ATOM     12  C   UNL     1       0.634   8.945  21.860  0.00  0.00    +0.000 A 
ATOM     13  C   UNL     1       1.176   8.408  20.688  0.00  0.00    +0.000 A 
ATOM     14  C   UNL     1       1.249   9.254  19.580  0.00  0.00    +0.000 A 
ATOM     15  N   UNL     1       0.819  10.537  19.547  0.00  0.00    +0.000 NA
BRANCH  10  18
ATOM     16  C   UNL     1      -0.418  14.510  21.966  0.00  0.00    +0.000 C 
ATOM     17  N   UNL     1      -0.003  13.144  21.822  0.00  0.00    +0.000 N 
ATOM     18  C   UNL     1      -0.219  12.427  20.662  0.00  0.00    +0.000 C 
ATOM     19  O   UNL     1      -0.767  12.885  19.667  0.00  0.00    +0.000 OA
ATOM     20  H   UNL     1       0.469  12.654  22.577  0.00  0.00    +0.000 HD
ENDBRANCH  10  18
ENDBRANCH   1  13
BRANCH   5  21
ATOM     21  C   UNL     1       4.038   1.645  19.163  0.00  0.00    +0.000 C 
ATOM     22  N   UNL     1       5.101   1.250  19.908  0.00  0.00    +0.000 N 
ATOM     23  O   UNL     1       3.743   1.038  18.141  0.00  0.00    +0.000 OA
ATOM     24  H   UNL     1       5.403   1.797  20.705  0.00  0.00    +0.000 HD
ATOM     25  H   UNL     1       5.652   0.469  19.580  0.00  0.00    +0.000 HD
ENDBRANCH   5  21
BRANCH   4  26
ATOM     26  N   UNL     1       5.020   4.574  19.186  0.00  0.00    +0.000 N 
ATOM     27  H   UNL     1       5.634   3.755  19.141  0.00  0.00    +0.000 HD
BRANCH  26  28
ATOM     28  C   UNL     1       5.218   5.384  17.965  0.00  0.00    +0.000 C 
ATOM     29  C   UNL     1       5.381   4.548  16.690  0.00  0.00    +0.000 C 
ATOM     30  N   UNL     1       6.468   5.138  15.947  0.00  0.00    +0.000 N 
ATOM     31  C   UNL     1       6.816   4.662  14.705  0.00  0.00    +0.000 C 
ATOM     32  O   UNL     1       6.280   3.690  14.184  0.00  0.00    +0.000 OA
ATOM     33  C   UNL     1       6.992   6.329  16.583  0.00  0.00    +0.000 C 
ATOM     34  C   UNL     1       6.507   6.254  18.037  0.00  0.00    +0.000 C 
ATOM     35  C   UNL     1       7.639   5.766  18.947  0.00  0.00    +0.000 C 
BRANCH  31  36
ATOM     36  O   UNL     1       7.814   5.384  14.137  0.00  0.00    +0.000 OA
ATOM     37  C   UNL     1       7.885   5.248  12.717  0.00  0.00    +0.000 C 
ENDBRANCH  31  36
ENDBRANCH  26  28
ENDBRANCH   4  26
TORSDOF 6
ENDMDL
MODEL 5
REMARK VINA RESULT:      -8.3      2.914      9.775
REMARK  Name = 
REMARK  9 active torsions:
REMARK  status: ('A' for Active; 'I' for Inactive)
REMARK    1  A    between atoms: C_1  and  N_2
REMARK    2  A    between atoms: C_3  and  C_5
REMARK    3  A    between atoms: C_8  and  C_9
REMARK    4  A    between atoms: C_12  and  N_13
REMARK    5  A    between atoms: N_13  and  C_14
REMARK    6  A    between atoms: C_17  and  O_19
REMARK    7  A    between atoms: O_19  and  C_20
REMARK    8  A    between atoms: C_22  and  C_23
REMARK    9  A    between atoms: C_24  and  C_25
REMARK                            x       y       z     vdW  Elec       q    Type
REMARK                         _______ _______ _______ _____ _____    ______ ____
ROOT
ATOM      1  C   UNL     1       1.457   8.275  20.066  0.00  0.00    +0.000 A 
ATOM      2  C   UNL     1       0.919   9.538  19.687  0.00  0.00    +0.000 A 
ATOM      3  C   UNL     1       0.367  10.141  20.807  0.00  0.00    +0.000 A 
ATOM      4  C   UNL     1      -0.179  11.445  21.085  0.00  0.00    +0.000 A 
ATOM      5  C   UNL     1      -0.767  11.613  22.300  0.00  0.00    +0.000 A 
ATOM      6  C   UNL     1      -0.732  10.437  23.226  0.00  0.00    +0.000 A 
ATOM      7  N   UNL     1      -0.159   9.293  23.033  0.00  0.00    +0.000 NA
ATOM      8  N   UNL     1       0.396   9.191  21.812  0.00  0.00    +0.000 N 
ATOM      9  C   UNL     1       1.110   8.098  21.389  0.00  0.00    +0.000 A 
ENDROOT
BRANCH   1  13
ATOM     10  C   UNL     1       3.767   5.509  17.897  0.00  0.00    +0.000 A 
ATOM     11  C   UNL     1       3.695   6.807  17.402  0.00  0.00    +0.000 A 
ATOM     12  C   UNL     1       2.953   7.752  18.117  0.00  0.00    +0.000 A 
ATOM     13  C   UNL     1       2.308   7.377  19.300  0.00  0.00    +0.000 A 
ATOM     14  C   UNL     1       2.464   6.053  19.714  0.00  0.00    +0.000 A 
ATOM     15  N   UNL     1       3.168   5.106  19.050  0.00  0.00    +0.000 NA
BRANCH  10  18
ATOM     16  C   UNL     1       6.132   4.081  15.314  0.00  0.00    +0.000 C 
ATOM     17  N   UNL     1       5.334   4.942  16.140  0.00  0.00    +0.000 N 
ATOM     18  C   UNL     1       4.524   4.454  17.144  0.00  0.00    +0.000 C 
ATOM     19  O   UNL     1       4.419   3.265  17.423  0.00  0.00    +0.000 OA
ATOM     20  H   UNL     1       5.341   5.951  16.011  0.00  0.00    +0.000 HD
ENDBRANCH  10  18
ENDBRANCH   1  13
BRANCH   5  21
ATOM     21  C   UNL     1      -1.369  12.862  22.856  0.00  0.00    +0.000 C 
ATOM     22  N   UNL     1      -2.633  13.176  22.477  0.00  0.00    +0.000 N 
ATOM     23  O   UNL     1      -0.743  13.615  23.592  0.00  0.00    +0.000 OA
ATOM     24  H   UNL     1      -3.126  12.603  21.802  0.00  0.00    +0.000 HD
ATOM     25  H   UNL     1      -3.023  14.053  22.791  0.00  0.00    +0.000 HD
ENDBRANCH   5  21
BRANCH   4  26
ATOM     26  N   UNL     1       0.073  12.477  20.153  0.00  0.00    +0.000 N 
ATOM     27  H   UNL     1      -0.826  12.899  19.900  0.00  0.00    +0.000 HD
BRANCH  26  28
ATOM     28  C   UNL     1       1.063  13.557  20.358  0.00  0.00    +0.000 C 
ATOM     29  C   UNL     1       0.571  14.938  19.909  0.00  0.00    +0.000 C 
ATOM     30  N   UNL     1       1.664  15.554  19.196  0.00  0.00    +0.000 N 
ATOM     31  C   UNL     1       1.566  16.842  18.728  0.00  0.00    +0.000 C 
ATOM     32  O   UNL     1       0.548  17.518  18.828  0.00  0.00    +0.000 OA
ATOM     33  C   UNL     1       2.856  14.732  19.193  0.00  0.00    +0.000 C 
ATOM     34  C   UNL     1       2.371  13.319  19.548  0.00  0.00    +0.000 C 
ATOM     35  C   UNL     1       2.273  12.461  18.282  0.00  0.00    +0.000 C 
BRANCH  31  36
ATOM     36  O   UNL     1       2.715  17.268  18.144  0.00  0.00    +0.000 OA
ATOM     37  C   UNL     1       2.629  17.380  16.723  0.00  0.00    +0.000 C 
ENDBRANCH  31  36
ENDBRANCH  26  28
ENDBRANCH   4  26
TORSDOF 6
ENDMDL
MODEL 6
REMARK VINA RESULT:      -8.2      2.883     10.193
REMARK  Name = 
REMARK  9 active torsions:
REMARK  status: ('A' for Active; 'I' for Inactive)
REMARK    1  A    between atoms: C_1  and  N_2
REMARK    2  A    between atoms: C_3  and  C_5
REMARK    3  A    between atoms: C_8  and  C_9
REMARK    4  A    between atoms: C_12  and  N_13
REMARK    5  A    between atoms: N_13  and  C_14
REMARK    6  A    between atoms: C_17  and  O_19
REMARK    7  A    between atoms: O_19  and  C_20
REMARK    8  A    between atoms: C_22  and  C_23
REMARK    9  A    between atoms: C_24  and  C_25
REMARK                            x       y       z     vdW  Elec       q    Type
REMARK                         _______ _______ _______ _____ _____    ______ ____
ROOT
ATOM      1  C   UNL     1       1.306   8.544  20.043  0.00  0.00    +0.000 A 
ATOM      2  C   UNL     1       0.685   9.736  19.572  0.00  0.00    +0.000 A 
ATOM      3  C   UNL     1       0.113  10.396  20.648  0.00  0.00    +0.000 A 
ATOM      4  C   UNL     1      -0.510  11.683  20.827  0.00  0.00    +0.000 A 
ATOM      5  C   UNL     1      -1.090  11.916  22.035  0.00  0.00    +0.000 A 
ATOM      6  C   UNL     1      -0.969  10.826  23.055  0.00  0.00    +0.000 A 
ATOM      7  N   UNL     1      -0.328   9.707  22.946  0.00  0.00    +0.000 NA
ATOM      8  N   UNL     1       0.215   9.537  21.727  0.00  0.00    +0.000 N 
ATOM      9  C   UNL     1       0.989   8.458  21.382  0.00  0.00    +0.000 A 
ENDROOT
BRANCH   1  13
ATOM     10  C   UNL     1       3.755   5.753  18.067  0.00  0.00    +0.000 A 
ATOM     11  C   UNL     1       3.594   6.997  17.467  0.00  0.00    +0.000 A 
ATOM     12  C   UNL     1       2.804   7.952  18.115  0.00  0.00    +0.000 A 
ATOM     13  C   UNL     1       2.201   7.639  19.338  0.00  0.00    +0.000 A 
ATOM     14  C   UNL     1       2.447   6.367  19.858  0.00  0.00    +0.000 A 
ATOM     15  N   UNL     1       3.200   5.413  19.262  0.00  0.00    +0.000 NA
BRANCH  10  18
ATOM     16  C   UNL     1       6.169   4.261  15.567  0.00  0.00    +0.000 C 
ATOM     17  N   UNL     1       5.331   5.138  16.334  0.00  0.00    +0.000 N 
ATOM     18  C   UNL     1       4.566   4.687  17.390  0.00  0.00    +0.000 C 
ATOM     19  O   UNL     1       4.539   3.522  17.768  0.00  0.00    +0.000 OA
ATOM     20  H   UNL     1       5.272   6.131  16.122  0.00  0.00    +0.000 HD
ENDBRANCH  10  18
ENDBRANCH   1  13
BRANCH   5  21
ATOM     21  C   UNL     1      -1.762  13.168  22.497  0.00  0.00    +0.000 C 
ATOM     22  N   UNL     1      -1.285  13.762  23.619  0.00  0.00    +0.000 N 
ATOM     23  O   UNL     1      -2.741  13.630  21.925  0.00  0.00    +0.000 OA
ATOM     24  H   UNL     1      -0.530  13.339  24.146  0.00  0.00    +0.000 HD
ATOM     25  H   UNL     1      -1.776  14.568  23.980  0.00  0.00    +0.000 HD
ENDBRANCH   5  21
BRANCH   4  26
ATOM     26  N   UNL     1      -0.336  12.647  19.808  0.00  0.00    +0.000 N 
ATOM     27  H   UNL     1      -1.238  12.777  19.341  0.00  0.00    +0.000 HD
BRANCH  26  28
ATOM     28  C   UNL     1       0.286  13.973  20.018  0.00  0.00    +0.000 C 
ATOM     29  C   UNL     1      -0.514  15.132  19.411  0.00  0.00    +0.000 C 
ATOM     30  N   UNL     1       0.440  15.994  18.758  0.00  0.00    +0.000 N 
ATOM     31  C   UNL     1       0.045  17.176  18.179  0.00  0.00    +0.000 C 
ATOM     32  O   UNL     1      -1.125  17.539  18.124  0.00  0.00    +0.000 OA
ATOM     33  C   UNL     1       1.806  15.546  18.938  0.00  0.00    +0.000 C 
ATOM     34  C   UNL     1       1.694  14.075  19.359  0.00  0.00    +0.000 C 
ATOM     35  C   UNL     1       1.983  13.160  18.165  0.00  0.00    +0.000 C 
BRANCH  31  36
ATOM     36  O   UNL     1       1.090  17.879  17.674  0.00  0.00    +0.000 OA
ATOM     37  C   UNL     1       0.818  18.486  16.410  0.00  0.00    +0.000 C 
ENDBRANCH  31  36
ENDBRANCH  26  28
ENDBRANCH   4  26
TORSDOF 6
ENDMDL
MODEL 7
REMARK VINA RESULT:      -8.1      3.259      9.895
REMARK  Name = 
REMARK  9 active torsions:
REMARK  status: ('A' for Active; 'I' for Inactive)
REMARK    1  A    between atoms: C_1  and  N_2
REMARK    2  A    between atoms: C_3  and  C_5
REMARK    3  A    between atoms: C_8  and  C_9
REMARK    4  A    between atoms: C_12  and  N_13
REMARK    5  A    between atoms: N_13  and  C_14
REMARK    6  A    between atoms: C_17  and  O_19
REMARK    7  A    between atoms: O_19  and  C_20
REMARK    8  A    between atoms: C_22  and  C_23
REMARK    9  A    between atoms: C_24  and  C_25
REMARK                            x       y       z     vdW  Elec       q    Type
REMARK                         _______ _______ _______ _____ _____    ______ ____
ROOT
ATOM      1  C   UNL     1       1.393   8.582  19.984  0.00  0.00    +0.000 A 
ATOM      2  C   UNL     1       1.024   9.937  19.745  0.00  0.00    +0.000 A 
ATOM      3  C   UNL     1       0.388  10.430  20.874  0.00  0.00    +0.000 A 
ATOM      4  C   UNL     1      -0.071  11.733  21.285  0.00  0.00    +0.000 A 
ATOM      5  C   UNL     1      -0.793  11.789  22.436  0.00  0.00    +0.000 A 
ATOM      6  C   UNL     1      -0.984  10.496  23.168  0.00  0.00    +0.000 A 
ATOM      7  N   UNL     1      -0.495   9.336  22.868  0.00  0.00    +0.000 NA
ATOM      8  N   UNL     1       0.202   9.350  21.717  0.00  0.00    +0.000 N 
ATOM      9  C   UNL     1       0.864   8.257  21.215  0.00  0.00    +0.000 A 
ENDROOT
BRANCH   1  13
ATOM     10  C   UNL     1       3.737   5.902  17.744  0.00  0.00    +0.000 A 
ATOM     11  C   UNL     1       3.593   7.192  17.246  0.00  0.00    +0.000 A 
ATOM     12  C   UNL     1       2.838   8.110  17.983  0.00  0.00    +0.000 A 
ATOM     13  C   UNL     1       2.253   7.716  19.192  0.00  0.00    +0.000 A 
ATOM     14  C   UNL     1       2.480   6.402  19.605  0.00  0.00    +0.000 A 
ATOM     15  N   UNL     1       3.198   5.481  18.921  0.00  0.00    +0.000 NA
BRANCH  10  18
ATOM     16  C   UNL     1       5.960   4.538  15.005  0.00  0.00    +0.000 C 
ATOM     17  N   UNL     1       5.172   5.373  15.866  0.00  0.00    +0.000 N 
ATOM     18  C   UNL     1       4.509   4.875  16.969  0.00  0.00    +0.000 C 
ATOM     19  O   UNL     1       4.540   3.699  17.313  0.00  0.00    +0.000 OA
ATOM     20  H   UNL     1       5.074   6.370  15.689  0.00  0.00    +0.000 HD
ENDBRANCH  10  18
ENDBRANCH   1  13
BRANCH   5  21
ATOM     21  C   UNL     1      -1.349  13.003  23.105  0.00  0.00    +0.000 C 
ATOM     22  N   UNL     1      -2.677  13.022  23.378  0.00  0.00    +0.000 N 
ATOM     23  O   UNL     1      -0.655  13.979  23.363  0.00  0.00    +0.000 OA
ATOM     24  H   UNL     1      -3.273  12.254  23.090  0.00  0.00    +0.000 HD
ATOM     25  H   UNL     1      -3.076  13.865  23.765  0.00  0.00    +0.000 HD
ENDBRANCH   5  21
BRANCH   4  26
ATOM     26  N   UNL     1       0.391  12.854  20.558  0.00  0.00    +0.000 N 
ATOM     27  H   UNL     1      -0.339  13.572  20.592  0.00  0.00    +0.000 HD
BRANCH  26  28
ATOM     28  C   UNL     1       1.704  13.499  20.774  0.00  0.00    +0.000 C 
ATOM     29  C   UNL     1       1.613  15.004  21.053  0.00  0.00    +0.000 C 
ATOM     30  N   UNL     1       2.651  15.632  20.272  0.00  0.00    +0.000 N 
ATOM     31  C   UNL     1       2.884  16.983  20.364  0.00  0.00    +0.000 C 
ATOM     32  O   UNL     1       2.204  17.738  21.050  0.00  0.00    +0.000 OA
ATOM     33  C   UNL     1       3.464  14.671  19.557  0.00  0.00    +0.000 C 
ATOM     34  C   UNL     1       2.631  13.383  19.528  0.00  0.00    +0.000 C 
ATOM     35  C   UNL     1       1.959  13.218  18.160  0.00  0.00    +0.000 C 
BRANCH  31  36
ATOM     36  O   UNL     1       3.940  17.377  19.607  0.00  0.00    +0.000 OA
ATOM     37  C   UNL     1       5.034  17.890  20.369  0.00  0.00    +0.000 C 
ENDBRANCH  31  36
ENDBRANCH  26  28
ENDBRANCH   4  26
TORSDOF 6
ENDMDL
MODEL 8
REMARK VINA RESULT:      -8.1      2.983      9.433
REMARK  Name = 
REMARK  9 active torsions:
REMARK  status: ('A' for Active; 'I' for Inactive)
REMARK    1  A    between atoms: C_1  and  N_2
REMARK    2  A    between atoms: C_3  and  C_5
REMARK    3  A    between atoms: C_8  and  C_9
REMARK    4  A    between atoms: C_12  and  N_13
REMARK    5  A    between atoms: N_13  and  C_14
REMARK    6  A    between atoms: C_17  and  O_19
REMARK    7  A    between atoms: O_19  and  C_20
REMARK    8  A    between atoms: C_22  and  C_23
REMARK    9  A    between atoms: C_24  and  C_25
REMARK                            x       y       z     vdW  Elec       q    Type
REMARK                         _______ _______ _______ _____ _____    ______ ____
ROOT
ATOM      1  C   UNL     1       2.582   7.284  18.438  0.00  0.00    +0.000 A 
ATOM      2  C   UNL     1       1.833   8.471  18.195  0.00  0.00    +0.000 A 
ATOM      3  C   UNL     1       1.296   8.912  19.394  0.00  0.00    +0.000 A 
ATOM      4  C   UNL     1       0.589  10.098  19.807  0.00  0.00    +0.000 A 
ATOM      5  C   UNL     1       0.088  10.099  21.071  0.00  0.00    +0.000 A 
ATOM      6  C   UNL     1       0.374   8.887  21.904  0.00  0.00    +0.000 A 
ATOM      7  N   UNL     1       1.092   7.858  21.585  0.00  0.00    +0.000 NA
ATOM      8  N   UNL     1       1.550   7.918  20.321  0.00  0.00    +0.000 N 
ATOM      9  C   UNL     1       2.378   6.975  19.767  0.00  0.00    +0.000 A 
ENDROOT
BRANCH   1  13
ATOM     10  C   UNL     1       5.359   5.403  15.899  0.00  0.00    +0.000 A 
ATOM     11  C   UNL     1       4.562   4.584  16.692  0.00  0.00    +0.000 A 
ATOM     12  C   UNL     1       3.614   5.183  17.527  0.00  0.00    +0.000 A 
ATOM     13  C   UNL     1       3.488   6.576  17.548  0.00  0.00    +0.000 A 
ATOM     14  C   UNL     1       4.326   7.299  16.696  0.00  0.00    +0.000 A 
ATOM     15  N   UNL     1       5.259   6.760  15.877  0.00  0.00    +0.000 NA
BRANCH  10  18
ATOM     16  C   UNL     1       6.792   3.673  12.857  0.00  0.00    +0.000 C 
ATOM     17  N   UNL     1       5.931   4.287  13.829  0.00  0.00    +0.000 N 
ATOM     18  C   UNL     1       6.412   4.806  15.013  0.00  0.00    +0.000 C 
ATOM     19  O   UNL     1       7.594   4.799  15.335  0.00  0.00    +0.000 OA
ATOM     20  H   UNL     1       4.929   4.359  13.674  0.00  0.00    +0.000 HD
ENDBRANCH  10  18
ENDBRANCH   1  13
BRANCH   5  21
ATOM     21  C   UNL     1      -0.644  11.204  21.761  0.00  0.00    +0.000 C 
ATOM     22  N   UNL     1      -0.851  11.087  23.096  0.00  0.00    +0.000 N 
ATOM     23  O   UNL     1      -1.090  12.169  21.152  0.00  0.00    +0.000 OA
ATOM     24  H   UNL     1      -0.560  10.252  23.591  0.00  0.00    +0.000 HD
ATOM     25  H   UNL     1      -1.405  11.793  23.559  0.00  0.00    +0.000 HD
ENDBRANCH   5  21
BRANCH   4  26
ATOM     26  N   UNL     1       0.605  11.212  18.937  0.00  0.00    +0.000 N 
ATOM     27  H   UNL     1      -0.280  11.715  19.053  0.00  0.00    +0.000 HD
BRANCH  26  28
ATOM     28  C   UNL     1       1.707  12.197  18.872  0.00  0.00    +0.000 C 
ATOM     29  C   UNL     1       2.253  12.603  20.246  0.00  0.00    +0.000 C 
ATOM     30  N   UNL     1       2.423  14.036  20.215  0.00  0.00    +0.000 N 
ATOM     31  C   UNL     1       2.976  14.705  21.280  0.00  0.00    +0.000 C 
ATOM     32  O   UNL     1       3.297  14.153  22.327  0.00  0.00    +0.000 OA
ATOM     33  C   UNL     1       2.104  14.604  18.921  0.00  0.00    +0.000 C 
ATOM     34  C   UNL     1       1.263  13.535  18.210  0.00  0.00    +0.000 C 
ATOM     35  C   UNL     1      -0.223  13.899  18.279  0.00  0.00    +0.000 C 
BRANCH  31  36
ATOM     36  O   UNL     1       3.114  16.033  21.040  0.00  0.00    +0.000 OA
ATOM     37  C   UNL     1       4.453  16.509  21.193  0.00  0.00    +0.000 C 
ENDBRANCH  31  36
ENDBRANCH  26  28
ENDBRANCH   4  26
TORSDOF 6
ENDMDL
MODEL 9
REMARK VINA RESULT:      -8.0      3.033      9.826
REMARK  Name = 
REMARK  9 active torsions:
REMARK  status: ('A' for Active; 'I' for Inactive)
REMARK    1  A    between atoms: C_1  and  N_2
REMARK    2  A    between atoms: C_3  and  C_5
REMARK    3  A    between atoms: C_8  and  C_9
REMARK    4  A    between atoms: C_12  and  N_13
REMARK    5  A    between atoms: N_13  and  C_14
REMARK    6  A    between atoms: C_17  and  O_19
REMARK    7  A    between atoms: O_19  and  C_20
REMARK    8  A    between atoms: C_22  and  C_23
REMARK    9  A    between atoms: C_24  and  C_25
REMARK                            x       y       z     vdW  Elec       q    Type
REMARK                         _______ _______ _______ _____ _____    ______ ____
ROOT
ATOM      1  C   UNL     1       1.511   8.294  19.892  0.00  0.00    +0.000 A 
ATOM      2  C   UNL     1       0.859   9.508  19.531  0.00  0.00    +0.000 A 
ATOM      3  C   UNL     1       0.320  10.080  20.672  0.00  0.00    +0.000 A 
ATOM      4  C   UNL     1      -0.311  11.343  20.966  0.00  0.00    +0.000 A 
ATOM      5  C   UNL     1      -0.849  11.480  22.207  0.00  0.00    +0.000 A 
ATOM      6  C   UNL     1      -0.678  10.321  23.141  0.00  0.00    +0.000 A 
ATOM      7  N   UNL     1      -0.028   9.222  22.929  0.00  0.00    +0.000 NA
ATOM      8  N   UNL     1       0.471   9.148  21.681  0.00  0.00    +0.000 N 
ATOM      9  C   UNL     1       1.245   8.107  21.232  0.00  0.00    +0.000 A 
ENDROOT
BRANCH   1  13
ATOM     10  C   UNL     1       3.903   5.694  17.608  0.00  0.00    +0.000 A 
ATOM     11  C   UNL     1       3.831   7.021  17.197  0.00  0.00    +0.000 A 
ATOM     12  C   UNL     1       3.061   7.911  17.953  0.00  0.00    +0.000 A 
ATOM     13  C   UNL     1       2.390   7.455  19.092  0.00  0.00    +0.000 A 
ATOM     14  C   UNL     1       2.549   6.108  19.423  0.00  0.00    +0.000 A 
ATOM     15  N   UNL     1       3.279   5.212  18.717  0.00  0.00    +0.000 NA
BRANCH  10  18
ATOM     16  C   UNL     1       6.270   4.450  14.935  0.00  0.00    +0.000 C 
ATOM     17  N   UNL     1       5.454   5.250  15.803  0.00  0.00    +0.000 N 
ATOM     18  C   UNL     1       4.688   4.697  16.809  0.00  0.00    +0.000 C 
ATOM     19  O   UNL     1       4.642   3.497  17.053  0.00  0.00    +0.000 OA
ATOM     20  H   UNL     1       5.413   6.261  15.705  0.00  0.00    +0.000 HD
ENDBRANCH  10  18
ENDBRANCH   1  13
BRANCH   5  21
ATOM     21  C   UNL     1      -1.518  12.685  22.783  0.00  0.00    +0.000 C 
ATOM     22  N   UNL     1      -2.721  12.513  23.385  0.00  0.00    +0.000 N 
ATOM     23  O   UNL     1      -1.036  13.807  22.682  0.00  0.00    +0.000 OA
ATOM     24  H   UNL     1      -3.165  11.602  23.397  0.00  0.00    +0.000 HD
ATOM     25  H   UNL     1      -3.214  13.331  23.714  0.00  0.00    +0.000 HD
ENDBRANCH   5  21
BRANCH   4  26
ATOM     26  N   UNL     1      -0.186  12.380  20.013  0.00  0.00    +0.000 N 
ATOM     27  H   UNL     1      -0.907  13.079  20.214  0.00  0.00    +0.000 HD
BRANCH  26  28
ATOM     28  C   UNL     1       1.082  13.078  19.709  0.00  0.00    +0.000 C 
ATOM     29  C   UNL     1       1.954  13.337  20.943  0.00  0.00    +0.000 C 
ATOM     30  N   UNL     1       2.443  14.689  20.826  0.00  0.00    +0.000 N 
ATOM     31  C   UNL     1       3.326  15.204  21.745  0.00  0.00    +0.000 C 
ATOM     32  O   UNL     1       3.700  14.587  22.736  0.00  0.00    +0.000 OA
ATOM     33  C   UNL     1       2.029  15.323  19.591  0.00  0.00    +0.000 C 
ATOM     34  C   UNL     1       0.845  14.486  19.087  0.00  0.00    +0.000 C 
ATOM     35  C   UNL     1      -0.476  15.190  19.413  0.00  0.00    +0.000 C 
BRANCH  31  36
ATOM     36  O   UNL     1       3.721  16.464  21.431  0.00  0.00    +0.000 OA
ATOM     37  C   UNL     1       5.135  16.602  21.281  0.00  0.00    +0.000 C 
ENDBRANCH  31  36
ENDBRANCH  26  28
ENDBRANCH   4  26
TORSDOF 6
ENDMDL
