MODEL 1
REMARK VINA RESULT:      -8.4      0.000      0.000
REMARK  Name = 
REMARK  12 active torsions:
REMARK  status: ('A' for Active; 'I' for Inactive)
REMARK    1  A    between atoms: C_1  and  C_2
REMARK    2  A    between atoms: C_2  and  C_3
REMARK    3  A    between atoms: C_3  and  C_4
REMARK    4  A    between atoms: C_3  and  C_5
REMARK    5  A    between atoms: C_5  and  O_7
REMARK    6  A    between atoms: O_7  and  C_8
REMARK    7  A    between atoms: C_10  and  C_11
REMARK    8  A    between atoms: C_16  and  C_17
REMARK    9  A    between atoms: C_18  and  C_19
REMARK   10  A    between atoms: C_19  and  C_20
REMARK   11  A    between atoms: C_20  and  C_21
REMARK   12  A    between atoms: C_23  and  O_24
REMARK                            x       y       z     vdW  Elec       q    Type
REMARK                         _______ _______ _______ _____ _____    ______ ____
ROOT
ATOM      1  C   UNL     1       5.327   4.958  18.878  0.00  0.00    +0.000 C 
ATOM      2  C   UNL     1       5.216   5.786  17.566  0.00  0.00    +0.000 C 
ATOM      3  C   UNL     1       4.428   5.175  16.392  0.00  0.00    +0.000 C 
ATOM      4  C   UNL     1       5.233   5.145  15.088  0.00  0.00    +0.000 C 
ATOM      5  C   UNL     1       3.945   3.781  16.608  0.00  0.00    +0.000 C 
ATOM      6  C   UNL     1       3.981   3.155  17.784  0.00  0.00    +0.000 C 
ATOM      7  C   UNL     1       3.433   1.814  17.940  0.00  0.00    +0.000 C 
ATOM      8  C   UNL     1       2.172   1.937  18.378  0.00  0.00    +0.000 C 
ATOM      9  C   UNL     1       1.984   2.610  19.745  0.00  0.00    +0.000 C 
ATOM     10  C   UNL     1       0.485   2.919  19.825  0.00  0.00    +0.000 C 
ATOM     11  C   UNL     1       3.091   3.753  20.101  0.00  0.00    +0.000 C 
ATOM     12  C   UNL     1       4.359   3.771  19.095  0.00  0.00    +0.000 C 
ENDROOT
BRANCH   1  13
ATOM     13  O   UNL     1       6.659   4.333  18.818  0.00  0.00    +0.000 OA
BRANCH  13  14
ATOM     14  C   UNL     1       7.610   4.828  17.984  0.00  0.00    +0.000 C 
ATOM     15  O   UNL     1       7.918   4.334  16.901  0.00  0.00    +0.000 OA
BRANCH  14  16
ATOM     16  C   UNL     1       8.268   6.073  18.565  0.00  0.00    +0.000 C 
ATOM     17  C   UNL     1       8.119   6.077  20.087  0.00  0.00    +0.000 C 
BRANCH  16  19
ATOM     18  C   UNL     1       8.504   8.608  18.417  0.00  0.00    +0.000 C 
ATOM     19  C   UNL     1       7.711   7.384  17.977  0.00  0.00    +0.000 C 
ENDBRANCH  16  19
ENDBRANCH  14  16
ENDBRANCH  13  14
ENDBRANCH   1  13
BRANCH  11  20
ATOM     20  C   UNL     1       2.606   5.108  20.714  0.00  0.00    +0.000 C 
BRANCH  20  21
ATOM     21  C   UNL     1       2.256   6.175  19.626  0.00  0.00    +0.000 C 
BRANCH  21  22
ATOM     22  C   UNL     1       2.009   7.620  20.135  0.00  0.00    +0.000 C 
ATOM     23  C   UNL     1       0.904   7.642  21.192  0.00  0.00    +0.000 C 
ATOM     24  C   UNL     1       0.615   9.071  21.620  0.00  0.00    +0.000 C 
ATOM     25  C   UNL     1       0.304   9.954  20.431  0.00  0.00    +0.000 C 
ATOM     26  C   UNL     1       1.169   9.713  19.220  0.00  0.00    +0.000 C 
ATOM     27  O   UNL     1       1.307  10.584  18.365  0.00  0.00    +0.000 OA
ATOM     28  O   UNL     1       1.667   8.469  19.025  0.00  0.00    +0.000 OA
BRANCH  24  29
ATOM     29  O   UNL     1       1.694   9.585  22.400  0.00  0.00    +0.000 OA
ATOM     30  H   UNL     1       2.529   9.158  22.144  0.00  0.00    +0.000 HD
ENDBRANCH  24  29
ENDBRANCH  21  22
ENDBRANCH  20  21
ENDBRANCH  11  20
TORSDOF 8
ENDMDL
MODEL 2
REMARK VINA RESULT:      -8.2      0.804      1.617
REMARK  Name = 
REMARK  12 active torsions:
REMARK  status: ('A' for Active; 'I' for Inactive)
REMARK    1  A    between atoms: C_1  and  C_2
REMARK    2  A    between atoms: C_2  and  C_3
REMARK    3  A    between atoms: C_3  and  C_4
REMARK    4  A    between atoms: C_3  and  C_5
REMARK    5  A    between atoms: C_5  and  O_7
REMARK    6  A    between atoms: O_7  and  C_8
REMARK    7  A    between atoms: C_10  and  C_11
REMARK    8  A    between atoms: C_16  and  C_17
REMARK    9  A    between atoms: C_18  and  C_19
REMARK   10  A    between atoms: C_19  and  C_20
REMARK   11  A    between atoms: C_20  and  C_21
REMARK   12  A    between atoms: C_23  and  O_24
REMARK                            x       y       z     vdW  Elec       q    Type
REMARK                         _______ _______ _______ _____ _____    ______ ____
ROOT
ATOM      1  C   UNL     1       5.299   5.005  18.565  0.00  0.00    +0.000 C 
ATOM      2  C   UNL     1       5.200   5.465  17.082  0.00  0.00    +0.000 C 
ATOM      3  C   UNL     1       4.412   4.575  16.102  0.00  0.00    +0.000 C 
ATOM      4  C   UNL     1       5.223   4.204  14.854  0.00  0.00    +0.000 C 
ATOM      5  C   UNL     1       3.920   3.287  16.668  0.00  0.00    +0.000 C 
ATOM      6  C   UNL     1       3.947   2.986  17.967  0.00  0.00    +0.000 C 
ATOM      7  C   UNL     1       3.390   1.734  18.461  0.00  0.00    +0.000 C 
ATOM      8  C   UNL     1       2.127   1.973  18.844  0.00  0.00    +0.000 C 
ATOM      9  C   UNL     1       1.938   2.977  19.990  0.00  0.00    +0.000 C 
ATOM     10  C   UNL     1       0.440   3.304  19.979  0.00  0.00    +0.000 C 
ATOM     11  C   UNL     1       3.051   4.168  20.045  0.00  0.00    +0.000 C 
ATOM     12  C   UNL     1       4.323   3.919  19.076  0.00  0.00    +0.000 C 
ENDROOT
BRANCH   1  13
ATOM     13  O   UNL     1       6.628   4.379  18.676  0.00  0.00    +0.000 OA
BRANCH  13  14
ATOM     14  C   UNL     1       7.658   4.818  17.908  0.00  0.00    +0.000 C 
ATOM     15  O   UNL     1       8.058   4.262  16.887  0.00  0.00    +0.000 OA
BRANCH  14  16
ATOM     16  C   UNL     1       8.275   6.089  18.479  0.00  0.00    +0.000 C 
ATOM     17  C   UNL     1       8.114   6.108  19.999  0.00  0.00    +0.000 C 
BRANCH  16  19
ATOM     18  C   UNL     1       8.444   8.627  18.296  0.00  0.00    +0.000 C 
ATOM     19  C   UNL     1       7.686   7.376  17.869  0.00  0.00    +0.000 C 
ENDBRANCH  16  19
ENDBRANCH  14  16
ENDBRANCH  13  14
ENDBRANCH   1  13
BRANCH  11  20
ATOM     20  C   UNL     1       2.571   5.638  20.283  0.00  0.00    +0.000 C 
BRANCH  20  21
ATOM     21  C   UNL     1       2.419   6.449  18.955  0.00  0.00    +0.000 C 
BRANCH  21  22
ATOM     22  C   UNL     1       1.517   7.710  19.020  0.00  0.00    +0.000 C 
ATOM     23  C   UNL     1       2.052   8.809  18.101  0.00  0.00    +0.000 C 
ATOM     24  C   UNL     1       1.209  10.065  18.237  0.00  0.00    +0.000 C 
ATOM     25  C   UNL     1       1.103  10.509  19.680  0.00  0.00    +0.000 C 
ATOM     26  C   UNL     1       0.919   9.391  20.675  0.00  0.00    +0.000 C 
ATOM     27  O   UNL     1       0.428   9.610  21.779  0.00  0.00    +0.000 OA
ATOM     28  O   UNL     1       1.439   8.176  20.379  0.00  0.00    +0.000 OA
BRANCH  24  29
ATOM     29  O   UNL     1      -0.074   9.869  17.643  0.00  0.00    +0.000 OA
ATOM     30  H   UNL     1      -0.669   9.415  18.265  0.00  0.00    +0.000 HD
ENDBRANCH  24  29
ENDBRANCH  21  22
ENDBRANCH  20  21
ENDBRANCH  11  20
TORSDOF 8
ENDMDL
MODEL 3
REMARK VINA RESULT:      -8.0      1.015      1.308
REMARK  Name = 
REMARK  12 active torsions:
REMARK  status: ('A' for Active; 'I' for Inactive)
REMARK    1  A    between atoms: C_1  and  C_2
REMARK    2  A    between atoms: C_2  and  C_3
REMARK    3  A    between atoms: C_3  and  C_4
REMARK    4  A    between atoms: C_3  and  C_5
REMARK    5  A    between atoms: C_5  and  O_7
REMARK    6  A    between atoms: O_7  and  C_8
REMARK    7  A    between atoms: C_10  and  C_11
REMARK    8  A    between atoms: C_16  and  C_17
REMARK    9  A    between atoms: C_18  and  C_19
REMARK   10  A    between atoms: C_19  and  C_20
REMARK   11  A    between atoms: C_20  and  C_21
REMARK   12  A    between atoms: C_23  and  O_24
REMARK                            x       y       z     vdW  Elec       q    Type
REMARK                         _______ _______ _______ _____ _____    ______ ____
ROOT
ATOM      1  C   UNL     1       4.748   5.584  18.813  0.00  0.00    +0.000 C 
ATOM      2  C   UNL     1       4.860   5.676  17.264  0.00  0.00    +0.000 C 
ATOM      3  C   UNL     1       4.564   4.406  16.443  0.00  0.00    +0.000 C 
ATOM      4  C   UNL     1       5.695   4.049  15.472  0.00  0.00    +0.000 C 
ATOM      5  C   UNL     1       4.309   3.176  17.246  0.00  0.00    +0.000 C 
ATOM      6  C   UNL     1       4.127   3.173  18.566  0.00  0.00    +0.000 C 
ATOM      7  C   UNL     1       3.818   1.941  19.281  0.00  0.00    +0.000 C 
ATOM      8  C   UNL     1       2.484   1.860  19.394  0.00  0.00    +0.000 C 
ATOM      9  C   UNL     1       1.796   2.974  20.195  0.00  0.00    +0.000 C 
ATOM     10  C   UNL     1       0.304   2.822  19.874  0.00  0.00    +0.000 C 
ATOM     11  C   UNL     1       2.524   4.431  20.104  0.00  0.00    +0.000 C 
ATOM     12  C   UNL     1       3.998   4.384  19.437  0.00  0.00    +0.000 C 
ENDROOT
BRANCH   1  13
ATOM     13  O   UNL     1       6.135   5.428  19.282  0.00  0.00    +0.000 OA
BRANCH  13  14
ATOM     14  C   UNL     1       7.170   5.540  18.410  0.00  0.00    +0.000 C 
ATOM     15  O   UNL     1       7.909   4.616  18.077  0.00  0.00    +0.000 OA
BRANCH  14  16
ATOM     16  C   UNL     1       7.314   6.968  17.898  0.00  0.00    +0.000 C 
ATOM     17  C   UNL     1       7.641   6.954  16.404  0.00  0.00    +0.000 C 
BRANCH  16  19
ATOM     18  C   UNL     1       8.432   9.238  18.217  0.00  0.00    +0.000 C 
ATOM     19  C   UNL     1       8.376   7.782  18.663  0.00  0.00    +0.000 C 
ENDBRANCH  16  19
ENDBRANCH  14  16
ENDBRANCH  13  14
ENDBRANCH   1  13
BRANCH  11  20
ATOM     20  C   UNL     1       1.641   5.701  19.876  0.00  0.00    +0.000 C 
BRANCH  20  21
ATOM     21  C   UNL     1       1.765   6.743  21.035  0.00  0.00    +0.000 C 
BRANCH  21  22
ATOM     22  C   UNL     1       1.640   8.236  20.634  0.00  0.00    +0.000 C 
ATOM     23  C   UNL     1       0.304   8.815  21.101  0.00  0.00    +0.000 C 
ATOM     24  C   UNL     1       0.159  10.252  20.629  0.00  0.00    +0.000 C 
ATOM     25  C   UNL     1       0.355  10.367  19.133  0.00  0.00    +0.000 C 
ATOM     26  C   UNL     1       1.470   9.520  18.573  0.00  0.00    +0.000 C 
ATOM     27  O   UNL     1       1.992   9.804  17.499  0.00  0.00    +0.000 OA
ATOM     28  O   UNL     1       1.778   8.364  19.208  0.00  0.00    +0.000 OA
BRANCH  24  29
ATOM     29  O   UNL     1       1.047  11.104  21.351  0.00  0.00    +0.000 OA
ATOM     30  H   UNL     1       1.522  10.599  22.033  0.00  0.00    +0.000 HD
ENDBRANCH  24  29
ENDBRANCH  21  22
ENDBRANCH  20  21
ENDBRANCH  11  20
TORSDOF 8
ENDMDL
MODEL 4
REMARK VINA RESULT:      -8.0      1.809      3.725
REMARK  Name = 
REMARK  12 active torsions:
REMARK  status: ('A' for Active; 'I' for Inactive)
REMARK    1  A    between atoms: C_1  and  C_2
REMARK    2  A    between atoms: C_2  and  C_3
REMARK    3  A    between atoms: C_3  and  C_4
REMARK    4  A    between atoms: C_3  and  C_5
REMARK    5  A    between atoms: C_5  and  O_7
REMARK    6  A    between atoms: O_7  and  C_8
REMARK    7  A    between atoms: C_10  and  C_11
REMARK    8  A    between atoms: C_16  and  C_17
REMARK    9  A    between atoms: C_18  and  C_19
REMARK   10  A    between atoms: C_19  and  C_20
REMARK   11  A    between atoms: C_20  and  C_21
REMARK   12  A    between atoms: C_23  and  O_24
REMARK                            x       y       z     vdW  Elec       q    Type
REMARK                         _______ _______ _______ _____ _____    ______ ____
ROOT
ATOM      1  C   UNL     1       3.679   5.216  17.733  0.00  0.00    +0.000 C 
ATOM      2  C   UNL     1       2.825   4.079  17.101  0.00  0.00    +0.000 C 
ATOM      3  C   UNL     1       1.769   3.393  17.987  0.00  0.00    +0.000 C 
ATOM      4  C   UNL     1       1.913   1.867  18.009  0.00  0.00    +0.000 C 
ATOM      5  C   UNL     1       1.759   3.825  19.414  0.00  0.00    +0.000 C 
ATOM      6  C   UNL     1       2.443   4.870  19.880  0.00  0.00    +0.000 C 
ATOM      7  C   UNL     1       2.338   5.276  21.276  0.00  0.00    +0.000 C 
ATOM      8  C   UNL     1       1.399   6.231  21.353  0.00  0.00    +0.000 C 
ATOM      9  C   UNL     1       1.674   7.526  20.576  0.00  0.00    +0.000 C 
ATOM     10  C   UNL     1       0.331   8.265  20.561  0.00  0.00    +0.000 C 
ATOM     11  C   UNL     1       2.534   7.330  19.204  0.00  0.00    +0.000 C 
ATOM     12  C   UNL     1       3.200   5.863  19.054  0.00  0.00    +0.000 C 
ENDROOT
BRANCH   1  13
ATOM     13  O   UNL     1       4.957   4.575  18.086  0.00  0.00    +0.000 OA
BRANCH  13  14
ATOM     14  C   UNL     1       5.975   5.314  18.599  0.00  0.00    +0.000 C 
ATOM     15  O   UNL     1       6.376   5.243  19.759  0.00  0.00    +0.000 OA
BRANCH  14  16
ATOM     16  C   UNL     1       6.555   6.262  17.557  0.00  0.00    +0.000 C 
ATOM     17  C   UNL     1       6.902   5.488  16.285  0.00  0.00    +0.000 C 
BRANCH  16  19
ATOM     18  C   UNL     1       7.771   8.502  17.654  0.00  0.00    +0.000 C 
ATOM     19  C   UNL     1       7.791   7.033  18.060  0.00  0.00    +0.000 C 
ENDBRANCH  16  19
ENDBRANCH  14  16
ENDBRANCH  13  14
ENDBRANCH   1  13
BRANCH  11  20
ATOM     20  C   UNL     1       2.067   8.073  17.910  0.00  0.00    +0.000 C 
BRANCH  20  21
ATOM     21  C   UNL     1       2.301   9.618  17.978  0.00  0.00    +0.000 C 
BRANCH  21  22
ATOM     22  C   UNL     1       1.037  10.510  17.860  0.00  0.00    +0.000 C 
ATOM     23  C   UNL     1       0.918  11.448  19.062  0.00  0.00    +0.000 C 
ATOM     24  C   UNL     1      -0.365  12.255  18.976  0.00  0.00    +0.000 C 
ATOM     25  C   UNL     1      -1.574  11.360  18.811  0.00  0.00    +0.000 C 
ATOM     26  C   UNL     1      -1.377  10.194  17.874  0.00  0.00    +0.000 C 
ATOM     27  O   UNL     1      -2.339   9.645  17.346  0.00  0.00    +0.000 OA
ATOM     28  O   UNL     1      -0.131   9.677  17.748  0.00  0.00    +0.000 OA
BRANCH  24  29
ATOM     29  O   UNL     1      -0.273  13.225  17.933  0.00  0.00    +0.000 OA
ATOM     30  H   UNL     1       0.337  12.919  17.240  0.00  0.00    +0.000 HD
ENDBRANCH  24  29
ENDBRANCH  21  22
ENDBRANCH  20  21
ENDBRANCH  11  20
TORSDOF 8
ENDMDL
MODEL 5
REMARK VINA RESULT:      -7.8      5.880      8.667
REMARK  Name = 
REMARK  12 active torsions:
REMARK  status: ('A' for Active; 'I' for Inactive)
REMARK    1  A    between atoms: C_1  and  C_2
REMARK    2  A    between atoms: C_2  and  C_3
REMARK    3  A    between atoms: C_3  and  C_4
REMARK    4  A    between atoms: C_3  and  C_5
REMARK    5  A    between atoms: C_5  and  O_7
REMARK    6  A    between atoms: O_7  and  C_8
REMARK    7  A    between atoms: C_10  and  C_11
REMARK    8  A    between atoms: C_16  and  C_17
REMARK    9  A    between atoms: C_18  and  C_19
REMARK   10  A    between atoms: C_19  and  C_20
REMARK   11  A    between atoms: C_20  and  C_21
REMARK   12  A    between atoms: C_23  and  O_24
REMARK                            x       y       z     vdW  Elec       q    Type
REMARK                         _______ _______ _______ _____ _____    ______ ____
ROOT
ATOM      1  C   UNL     1      -1.453  11.838  19.263  0.00  0.00    +0.000 C 
ATOM      2  C   UNL     1      -2.621  11.295  18.390  0.00  0.00    +0.000 C 
ATOM      3  C   UNL     1      -2.320  10.132  17.426  0.00  0.00    +0.000 C 
ATOM      4  C   UNL     1      -2.750  10.430  15.985  0.00  0.00    +0.000 C 
ATOM      5  C   UNL     1      -0.889   9.723  17.351  0.00  0.00    +0.000 C 
ATOM      6  C   UNL     1       0.053  10.152  18.190  0.00  0.00    +0.000 C 
ATOM      7  C   UNL     1       1.423   9.662  18.100  0.00  0.00    +0.000 C 
ATOM      8  C   UNL     1       1.545   8.636  18.955  0.00  0.00    +0.000 C 
ATOM      9  C   UNL     1       1.328   8.954  20.441  0.00  0.00    +0.000 C 
ATOM     10  C   UNL     1       1.189   7.585  21.117  0.00  0.00    +0.000 C 
ATOM     11  C   UNL     1       0.251  10.143  20.736  0.00  0.00    +0.000 C 
ATOM     12  C   UNL     1      -0.176  10.979  19.417  0.00  0.00    +0.000 C 
ENDROOT
BRANCH   1  13
ATOM     13  O   UNL     1      -0.993  13.050  18.564  0.00  0.00    +0.000 OA
BRANCH  13  14
ATOM     14  C   UNL     1      -0.451  14.080  19.265  0.00  0.00    +0.000 C 
ATOM     15  O   UNL     1      -1.042  14.728  20.127  0.00  0.00    +0.000 OA
BRANCH  14  16
ATOM     16  C   UNL     1       0.986  14.348  18.839  0.00  0.00    +0.000 C 
ATOM     17  C   UNL     1       1.952  13.698  19.830  0.00  0.00    +0.000 C 
BRANCH  16  19
ATOM     18  C   UNL     1       2.694  16.099  18.118  0.00  0.00    +0.000 C 
ATOM     19  C   UNL     1       1.307  15.849  18.697  0.00  0.00    +0.000 C 
ENDBRANCH  16  19
ENDBRANCH  14  16
ENDBRANCH  13  14
ENDBRANCH   1  13
BRANCH  11  20
ATOM     20  C   UNL     1      -0.813   9.934  21.863  0.00  0.00    +0.000 C 
BRANCH  20  21
ATOM     21  C   UNL     1      -0.770  11.055  22.952  0.00  0.00    +0.000 C 
BRANCH  21  22
ATOM     22  C   UNL     1      -1.939  12.075  22.934  0.00  0.00    +0.000 C 
ATOM     23  C   UNL     1      -1.450  13.468  23.335  0.00  0.00    +0.000 C 
ATOM     24  C   UNL     1      -2.618  14.438  23.394  0.00  0.00    +0.000 C 
ATOM     25  C   UNL     1      -3.721  13.924  24.293  0.00  0.00    +0.000 C 
ATOM     26  C   UNL     1      -4.001  12.448  24.172  0.00  0.00    +0.000 C 
ATOM     27  O   UNL     1      -5.086  11.986  24.514  0.00  0.00    +0.000 OA
ATOM     28  O   UNL     1      -2.982  11.629  23.818  0.00  0.00    +0.000 OA
BRANCH  24  29
ATOM     29  O   UNL     1      -3.091  14.727  22.079  0.00  0.00    +0.000 OA
ATOM     30  H   UNL     1      -3.046  15.683  21.906  0.00  0.00    +0.000 HD
ENDBRANCH  24  29
ENDBRANCH  21  22
ENDBRANCH  20  21
ENDBRANCH  11  20
TORSDOF 8
ENDMDL
MODEL 6
REMARK VINA RESULT:      -7.7      1.412      2.168
REMARK  Name = 
REMARK  12 active torsions:
REMARK  status: ('A' for Active; 'I' for Inactive)
REMARK    1  A    between atoms: C_1  and  C_2
REMARK    2  A    between atoms: C_2  and  C_3
REMARK    3  A    between atoms: C_3  and  C_4
REMARK    4  A    between atoms: C_3  and  C_5
REMARK    5  A    between atoms: C_5  and  O_7
REMARK    6  A    between atoms: O_7  and  C_8
REMARK    7  A    between atoms: C_10  and  C_11
REMARK    8  A    between atoms: C_16  and  C_17
REMARK    9  A    between atoms: C_18  and  C_19
REMARK   10  A    between atoms: C_19  and  C_20
REMARK   11  A    between atoms: C_20  and  C_21
REMARK   12  A    between atoms: C_23  and  O_24
REMARK                            x       y       z     vdW  Elec       q    Type
REMARK                         _______ _______ _______ _____ _____    ______ ____
ROOT
ATOM      1  C   UNL     1       5.069   6.169  17.942  0.00  0.00    +0.000 C 
ATOM      2  C   UNL     1       4.849   5.900  16.425  0.00  0.00    +0.000 C 
ATOM      3  C   UNL     1       4.402   4.488  16.001  0.00  0.00    +0.000 C 
ATOM      4  C   UNL     1       5.307   3.877  14.924  0.00  0.00    +0.000 C 
ATOM      5  C   UNL     1       4.340   3.483  17.101  0.00  0.00    +0.000 C 
ATOM      6  C   UNL     1       4.443   3.790  18.395  0.00  0.00    +0.000 C 
ATOM      7  C   UNL     1       4.309   2.766  19.423  0.00  0.00    +0.000 C 
ATOM      8  C   UNL     1       3.031   2.761  19.829  0.00  0.00    +0.000 C 
ATOM      9  C   UNL     1       2.513   4.053  20.477  0.00  0.00    +0.000 C 
ATOM     10  C   UNL     1       0.990   3.885  20.520  0.00  0.00    +0.000 C 
ATOM     11  C   UNL     1       3.185   5.423  19.901  0.00  0.00    +0.000 C 
ATOM     12  C   UNL     1       4.485   5.171  18.969  0.00  0.00    +0.000 C 
ENDROOT
BRANCH   1  13
ATOM     13  O   UNL     1       6.526   6.074  18.133  0.00  0.00    +0.000 OA
BRANCH  13  14
ATOM     14  C   UNL     1       7.373   6.634  17.231  0.00  0.00    +0.000 C 
ATOM     15  O   UNL     1       7.414   6.346  16.036  0.00  0.00    +0.000 OA
BRANCH  14  16
ATOM     16  C   UNL     1       8.286   7.662  17.887  0.00  0.00    +0.000 C 
ATOM     17  C   UNL     1       8.502   7.302  19.357  0.00  0.00    +0.000 C 
BRANCH  16  19
ATOM     18  C   UNL     1       8.736  10.133  18.326  0.00  0.00    +0.000 C 
ATOM     19  C   UNL     1       7.759   9.105  17.768  0.00  0.00    +0.000 C 
ENDBRANCH  16  19
ENDBRANCH  14  16
ENDBRANCH  13  14
ENDBRANCH   1  13
BRANCH  11  20
ATOM     20  C   UNL     1       2.257   6.638  19.575  0.00  0.00    +0.000 C 
BRANCH  20  21
ATOM     21  C   UNL     1       1.981   7.543  20.821  0.00  0.00    +0.000 C 
BRANCH  21  22
ATOM     22  C   UNL     1       0.869   8.612  20.660  0.00  0.00    +0.000 C 
ATOM     23  C   UNL     1       1.124   9.482  19.429  0.00  0.00    +0.000 C 
ATOM     24  C   UNL     1       0.075  10.577  19.331  0.00  0.00    +0.000 C 
ATOM     25  C   UNL     1      -0.007  11.382  20.610  0.00  0.00    +0.000 C 
ATOM     26  C   UNL     1       0.090  10.571  21.877  0.00  0.00    +0.000 C 
ATOM     27  O   UNL     1      -0.351  11.009  22.936  0.00  0.00    +0.000 OA
ATOM     28  O   UNL     1       0.804   9.420  21.849  0.00  0.00    +0.000 OA
BRANCH  24  29
ATOM     29  O   UNL     1      -1.189  10.023  18.967  0.00  0.00    +0.000 OA
ATOM     30  H   UNL     1      -1.527   9.454  19.679  0.00  0.00    +0.000 HD
ENDBRANCH  24  29
ENDBRANCH  21  22
ENDBRANCH  20  21
ENDBRANCH  11  20
TORSDOF 8
ENDMDL
MODEL 7
REMARK VINA RESULT:      -7.7      1.745      2.873
REMARK  Name = 
REMARK  12 active torsions:
REMARK  status: ('A' for Active; 'I' for Inactive)
REMARK    1  A    between atoms: C_1  and  C_2
REMARK    2  A    between atoms: C_2  and  C_3
REMARK    3  A    between atoms: C_3  and  C_4
REMARK    4  A    between atoms: C_3  and  C_5
REMARK    5  A    between atoms: C_5  and  O_7
REMARK    6  A    between atoms: O_7  and  C_8
REMARK    7  A    between atoms: C_10  and  C_11
REMARK    8  A    between atoms: C_16  and  C_17
REMARK    9  A    between atoms: C_18  and  C_19
REMARK   10  A    between atoms: C_19  and  C_20
REMARK   11  A    between atoms: C_20  and  C_21
REMARK   12  A    between atoms: C_23  and  O_24
REMARK                            x       y       z     vdW  Elec       q    Type
REMARK                         _______ _______ _______ _____ _____    ______ ____
ROOT
ATOM      1  C   UNL     1       5.332   6.719  16.509  0.00  0.00    +0.000 C 
ATOM      2  C   UNL     1       5.280   5.947  15.159  0.00  0.00    +0.000 C 
ATOM      3  C   UNL     1       5.173   4.411  15.210  0.00  0.00    +0.000 C 
ATOM      4  C   UNL     1       6.258   3.713  14.383  0.00  0.00    +0.000 C 
ATOM      5  C   UNL     1       5.248   3.814  16.574  0.00  0.00    +0.000 C 
ATOM      6  C   UNL     1       5.193   4.523  17.701  0.00  0.00    +0.000 C 
ATOM      7  C   UNL     1       5.208   3.869  19.004  0.00  0.00    +0.000 C 
ATOM      8  C   UNL     1       3.934   3.707  19.392  0.00  0.00    +0.000 C 
ATOM      9  C   UNL     1       3.112   4.987  19.593  0.00  0.00    +0.000 C 
ATOM     10  C   UNL     1       1.659   4.507  19.690  0.00  0.00    +0.000 C 
ATOM     11  C   UNL     1       3.517   6.222  18.608  0.00  0.00    +0.000 C 
ATOM     12  C   UNL     1       4.902   5.988  17.803  0.00  0.00    +0.000 C 
ENDROOT
BRANCH   1  13
ATOM     13  O   UNL     1       6.760   7.015  16.718  0.00  0.00    +0.000 OA
BRANCH  13  14
ATOM     14  C   UNL     1       7.136   8.138  17.384  0.00  0.00    +0.000 C 
ATOM     15  O   UNL     1       6.548   9.216  17.325  0.00  0.00    +0.000 OA
BRANCH  14  16
ATOM     16  C   UNL     1       8.395   7.901  18.208  0.00  0.00    +0.000 C 
ATOM     17  C   UNL     1       8.231   6.640  19.057  0.00  0.00    +0.000 C 
BRANCH  16  19
ATOM     18  C   UNL     1       9.310  10.279  18.312  0.00  0.00    +0.000 C 
ATOM     19  C   UNL     1       8.765   9.098  19.106  0.00  0.00    +0.000 C 
ENDBRANCH  16  19
ENDBRANCH  14  16
ENDBRANCH  13  14
ENDBRANCH   1  13
BRANCH  11  20
ATOM     20  C   UNL     1       2.378   7.037  17.912  0.00  0.00    +0.000 C 
BRANCH  20  21
ATOM     21  C   UNL     1       2.593   8.582  18.006  0.00  0.00    +0.000 C 
BRANCH  21  22
ATOM     22  C   UNL     1       1.379   9.416  18.493  0.00  0.00    +0.000 C 
ATOM     23  C   UNL     1       1.661  10.914  18.365  0.00  0.00    +0.000 C 
ATOM     24  C   UNL     1       0.499  11.718  18.923  0.00  0.00    +0.000 C 
ATOM     25  C   UNL     1       0.168  11.304  20.340  0.00  0.00    +0.000 C 
ATOM     26  C   UNL     1       0.220   9.819  20.595  0.00  0.00    +0.000 C 
ATOM     27  O   UNL     1      -0.393   9.323  21.536  0.00  0.00    +0.000 OA
ATOM     28  O   UNL     1       1.074   9.071  19.856  0.00  0.00    +0.000 OA
BRANCH  24  29
ATOM     29  O   UNL     1      -0.632  11.621  18.059  0.00  0.00    +0.000 OA
ATOM     30  H   UNL     1      -0.902  12.503  17.753  0.00  0.00    +0.000 HD
ENDBRANCH  24  29
ENDBRANCH  21  22
ENDBRANCH  20  21
ENDBRANCH  11  20
TORSDOF 8
ENDMDL
MODEL 8
REMARK VINA RESULT:      -7.7      1.259      2.078
REMARK  Name = 
REMARK  12 active torsions:
REMARK  status: ('A' for Active; 'I' for Inactive)
REMARK    1  A    between atoms: C_1  and  C_2
REMARK    2  A    between atoms: C_2  and  C_3
REMARK    3  A    between atoms: C_3  and  C_4
REMARK    4  A    between atoms: C_3  and  C_5
REMARK    5  A    between atoms: C_5  and  O_7
REMARK    6  A    between atoms: O_7  and  C_8
REMARK    7  A    between atoms: C_10  and  C_11
REMARK    8  A    between atoms: C_16  and  C_17
REMARK    9  A    between atoms: C_18  and  C_19
REMARK   10  A    between atoms: C_19  and  C_20
REMARK   11  A    between atoms: C_20  and  C_21
REMARK   12  A    between atoms: C_23  and  O_24
REMARK                            x       y       z     vdW  Elec       q    Type
REMARK                         _______ _______ _______ _____ _____    ______ ____
ROOT
ATOM      1  C   UNL     1       4.787   5.716  18.807  0.00  0.00    +0.000 C 
ATOM      2  C   UNL     1       4.931   5.655  17.259  0.00  0.00    +0.000 C 
ATOM      3  C   UNL     1       4.633   4.316  16.559  0.00  0.00    +0.000 C 
ATOM      4  C   UNL     1       5.778   3.852  15.651  0.00  0.00    +0.000 C 
ATOM      5  C   UNL     1       4.345   3.172  17.471  0.00  0.00    +0.000 C 
ATOM      6  C   UNL     1       4.137   3.300  18.781  0.00  0.00    +0.000 C 
ATOM      7  C   UNL     1       3.796   2.147  19.605  0.00  0.00    +0.000 C 
ATOM      8  C   UNL     1       2.459   2.093  19.698  0.00  0.00    +0.000 C 
ATOM      9  C   UNL     1       1.771   3.288  20.373  0.00  0.00    +0.000 C 
ATOM     10  C   UNL     1       0.284   3.124  20.037  0.00  0.00    +0.000 C 
ATOM     11  C   UNL     1       2.521   4.720  20.157  0.00  0.00    +0.000 C 
ATOM     12  C   UNL     1       4.008   4.591  19.528  0.00  0.00    +0.000 C 
ENDROOT
BRANCH   1  13
ATOM     13  O   UNL     1       6.163   5.588  19.318  0.00  0.00    +0.000 OA
BRANCH  13  14
ATOM     14  C   UNL     1       7.219   5.678  18.470  0.00  0.00    +0.000 C 
ATOM     15  O   UNL     1       7.970   4.747  18.186  0.00  0.00    +0.000 OA
BRANCH  14  16
ATOM     16  C   UNL     1       7.372   7.089  17.917  0.00  0.00    +0.000 C 
ATOM     17  C   UNL     1       7.654   7.032  16.415  0.00  0.00    +0.000 C 
BRANCH  16  19
ATOM     18  C   UNL     1       8.467   9.372  18.221  0.00  0.00    +0.000 C 
ATOM     19  C   UNL     1       8.469   7.904  18.630  0.00  0.00    +0.000 C 
ENDBRANCH  16  19
ENDBRANCH  14  16
ENDBRANCH  13  14
ENDBRANCH   1  13
BRANCH  11  20
ATOM     20  C   UNL     1       1.662   5.973  19.788  0.00  0.00    +0.000 C 
BRANCH  20  21
ATOM     21  C   UNL     1       2.045   7.239  20.622  0.00  0.00    +0.000 C 
BRANCH  21  22
ATOM     22  C   UNL     1       0.948   8.328  20.761  0.00  0.00    +0.000 C 
ATOM     23  C   UNL     1       1.173   9.457  19.754  0.00  0.00    +0.000 C 
ATOM     24  C   UNL     1       0.143  10.555  19.958  0.00  0.00    +0.000 C 
ATOM     25  C   UNL     1       0.127  11.044  21.390  0.00  0.00    +0.000 C 
ATOM     26  C   UNL     1       0.258   9.960  22.430  0.00  0.00    +0.000 C 
ATOM     27  O   UNL     1      -0.133  10.144  23.579  0.00  0.00    +0.000 OA
ATOM     28  O   UNL     1       0.946   8.839  22.106  0.00  0.00    +0.000 OA
BRANCH  24  29
ATOM     29  O   UNL     1      -1.145  10.115  19.529  0.00  0.00    +0.000 OA
ATOM     30  H   UNL     1      -1.249  10.254  18.573  0.00  0.00    +0.000 HD
ENDBRANCH  24  29
ENDBRANCH  21  22
ENDBRANCH  20  21
ENDBRANCH  11  20
TORSDOF 8
ENDMDL
MODEL 9
REMARK VINA RESULT:      -7.7      2.041      4.003
REMARK  Name = 
REMARK  12 active torsions:
REMARK  status: ('A' for Active; 'I' for Inactive)
REMARK    1  A    between atoms: C_1  and  C_2
REMARK    2  A    between atoms: C_2  and  C_3
REMARK    3  A    between atoms: C_3  and  C_4
REMARK    4  A    between atoms: C_3  and  C_5
REMARK    5  A    between atoms: C_5  and  O_7
REMARK    6  A    between atoms: O_7  and  C_8
REMARK    7  A    between atoms: C_10  and  C_11
REMARK    8  A    between atoms: C_16  and  C_17
REMARK    9  A    between atoms: C_18  and  C_19
REMARK   10  A    between atoms: C_19  and  C_20
REMARK   11  A    between atoms: C_20  and  C_21
REMARK   12  A    between atoms: C_23  and  O_24
REMARK                            x       y       z     vdW  Elec       q    Type
REMARK                         _______ _______ _______ _____ _____    ______ ____
ROOT
ATOM      1  C   UNL     1       3.111   5.214  17.697  0.00  0.00    +0.000 C 
ATOM      2  C   UNL     1       2.100   4.110  17.275  0.00  0.00    +0.000 C 
ATOM      3  C   UNL     1       1.133   3.571  18.346  0.00  0.00    +0.000 C 
ATOM      4  C   UNL     1       1.171   2.043  18.466  0.00  0.00    +0.000 C 
ATOM      5  C   UNL     1       1.354   4.096  19.724  0.00  0.00    +0.000 C 
ATOM      6  C   UNL     1       2.167   5.112  20.011  0.00  0.00    +0.000 C 
ATOM      7  C   UNL     1       2.288   5.618  21.373  0.00  0.00    +0.000 C 
ATOM      8  C   UNL     1       1.438   6.647  21.502  0.00  0.00    +0.000 C 
ATOM      9  C   UNL     1       1.691   7.861  20.597  0.00  0.00    +0.000 C 
ATOM     10  C   UNL     1       0.414   8.703  20.706  0.00  0.00    +0.000 C 
ATOM     11  C   UNL     1       2.334   7.507  19.141  0.00  0.00    +0.000 C 
ATOM     12  C   UNL     1       2.868   5.984  19.016  0.00  0.00    +0.000 C 
ENDROOT
BRANCH   1  13
ATOM     13  O   UNL     1       4.378   4.498  17.923  0.00  0.00    +0.000 OA
BRANCH  13  14
ATOM     14  C   UNL     1       5.400   4.617  17.035  0.00  0.00    +0.000 C 
ATOM     15  O   UNL     1       5.322   4.346  15.839  0.00  0.00    +0.000 OA
BRANCH  14  16
ATOM     16  C   UNL     1       6.669   5.118  17.711  0.00  0.00    +0.000 C 
ATOM     17  C   UNL     1       6.408   5.353  19.200  0.00  0.00    +0.000 C 
BRANCH  16  19
ATOM     18  C   UNL     1       7.870   7.336  18.085  0.00  0.00    +0.000 C 
ATOM     19  C   UNL     1       7.236   6.398  17.066  0.00  0.00    +0.000 C 
ENDBRANCH  16  19
ENDBRANCH  14  16
ENDBRANCH  13  14
ENDBRANCH   1  13
BRANCH  11  20
ATOM     20  C   UNL     1       1.744   8.197  17.868  0.00  0.00    +0.000 C 
BRANCH  20  21
ATOM     21  C   UNL     1       1.910   9.751  17.888  0.00  0.00    +0.000 C 
BRANCH  21  22
ATOM     22  C   UNL     1       0.611  10.584  17.726  0.00  0.00    +0.000 C 
ATOM     23  C   UNL     1       0.492  11.628  18.837  0.00  0.00    +0.000 C 
ATOM     24  C   UNL     1      -0.824  12.378  18.715  0.00  0.00    +0.000 C 
ATOM     25  C   UNL     1      -2.002  11.429  18.675  0.00  0.00    +0.000 C 
ATOM     26  C   UNL     1      -1.788  10.187  17.848  0.00  0.00    +0.000 C 
ATOM     27  O   UNL     1      -2.744   9.556  17.405  0.00  0.00    +0.000 OA
ATOM     28  O   UNL     1      -0.527   9.704  17.731  0.00  0.00    +0.000 OA
BRANCH  24  29
ATOM     29  O   UNL     1      -0.798  13.245  17.582  0.00  0.00    +0.000 OA
ATOM     30  H   UNL     1      -0.847  12.729  16.760  0.00  0.00    +0.000 HD
ENDBRANCH  24  29
ENDBRANCH  21  22
ENDBRANCH  20  21
ENDBRANCH  11  20
TORSDOF 8
ENDMDL
