MODEL 1
REMARK VINA RESULT:      -6.8      0.000      0.000
REMARK  Name = 
REMARK  0 active torsions:
REMARK  status: ('A' for Active; 'I' for Inactive)
REMARK                            x       y       z     vdW  Elec       q    Type
REMARK                         _______ _______ _______ _____ _____    ______ ____
ROOT
ATOM      1  O   UNL     1       3.057   4.061  20.410  0.00  0.00    +0.000 OA
ATOM      2  N   UNL     1       3.502   4.036  19.239  0.00  0.00    +0.000 N 
ATOM      3  O   UNL     1       2.733   3.317  18.270  0.00  0.00    +0.000 OA
ATOM      4  N   UNL     1       3.386   3.407  17.047  0.00  0.00    +0.000 NA
ATOM      5  C   UNL     1       4.497   4.137  17.242  0.00  0.00    +0.000 A 
ATOM      6  C   UNL     1       5.510   4.522  16.317  0.00  0.00    +0.000 A 
ATOM      7  C   UNL     1       5.505   4.174  14.958  0.00  0.00    +0.000 A 
ATOM      8  C   UNL     1       6.553   4.620  14.188  0.00  0.00    +0.000 A 
ATOM      9  N   UNL     1       7.550   5.361  14.706  0.00  0.00    +0.000 NA
ATOM     10  N   UNL     1       7.545   5.698  16.048  0.00  0.00    +0.000 NA
ATOM     11  C   UNL     1       6.559   5.303  16.862  0.00  0.00    +0.000 A 
ATOM     12  C   UNL     1       6.576   5.663  18.235  0.00  0.00    +0.000 A 
ATOM     13  C   UNL     1       5.596   5.306  19.188  0.00  0.00    +0.000 A 
ATOM     14  C   UNL     1       4.578   4.539  18.626  0.00  0.00    +0.000 A 
ENDROOT
TORSDOF 0
ENDMDL
MODEL 2
REMARK VINA RESULT:      -6.7      2.656      5.061
REMARK  Name = 
REMARK  0 active torsions:
REMARK  status: ('A' for Active; 'I' for Inactive)
REMARK                            x       y       z     vdW  Elec       q    Type
REMARK                         _______ _______ _______ _____ _____    ______ ____
ROOT
ATOM      1  O   UNL     1       7.949   4.475  16.805  0.00  0.00    +0.000 OA
ATOM      2  N   UNL     1       7.007   4.559  17.626  0.00  0.00    +0.000 N 
ATOM      3  O   UNL     1       7.335   5.012  18.944  0.00  0.00    +0.000 OA
ATOM      4  N   UNL     1       6.167   5.036  19.696  0.00  0.00    +0.000 NA
ATOM      5  C   UNL     1       5.170   4.622  18.896  0.00  0.00    +0.000 A 
ATOM      6  C   UNL     1       3.782   4.464  19.175  0.00  0.00    +0.000 A 
ATOM      7  C   UNL     1       3.196   4.738  20.420  0.00  0.00    +0.000 A 
ATOM      8  C   UNL     1       1.841   4.539  20.537  0.00  0.00    +0.000 A 
ATOM      9  N   UNL     1       1.095   4.098  19.507  0.00  0.00    +0.000 NA
ATOM     10  N   UNL     1       1.685   3.831  18.283  0.00  0.00    +0.000 NA
ATOM     11  C   UNL     1       2.997   4.002  18.091  0.00  0.00    +0.000 A 
ATOM     12  C   UNL     1       3.577   3.721  16.825  0.00  0.00    +0.000 A 
ATOM     13  C   UNL     1       4.946   3.862  16.501  0.00  0.00    +0.000 A 
ATOM     14  C   UNL     1       5.693   4.318  17.585  0.00  0.00    +0.000 A 
ENDROOT
TORSDOF 0
ENDMDL
MODEL 3
REMARK VINA RESULT:      -6.6      1.223      1.403
REMARK  Name = 
REMARK  0 active torsions:
REMARK  status: ('A' for Active; 'I' for Inactive)
REMARK                            x       y       z     vdW  Elec       q    Type
REMARK                         _______ _______ _______ _____ _____    ______ ____
ROOT
ATOM      1  O   UNL     1       1.126   3.830  19.820  0.00  0.00    +0.000 OA
ATOM      2  N   UNL     1       1.951   3.816  18.878  0.00  0.00    +0.000 N 
ATOM      3  O   UNL     1       1.502   3.277  17.631  0.00  0.00    +0.000 OA
ATOM      4  N   UNL     1       2.552   3.350  16.724  0.00  0.00    +0.000 NA
ATOM      5  C   UNL     1       3.594   3.903  17.367  0.00  0.00    +0.000 A 
ATOM      6  C   UNL     1       4.905   4.198  16.895  0.00  0.00    +0.000 A 
ATOM      7  C   UNL     1       5.345   3.942  15.587  0.00  0.00    +0.000 A 
ATOM      8  C   UNL     1       6.639   4.284  15.278  0.00  0.00    +0.000 A 
ATOM      9  N   UNL     1       7.464   4.842  16.184  0.00  0.00    +0.000 NA
ATOM     10  N   UNL     1       7.019   5.091  17.471  0.00  0.00    +0.000 NA
ATOM     11  C   UNL     1       5.772   4.787  17.848  0.00  0.00    +0.000 A 
ATOM     12  C   UNL     1       5.341   5.053  19.174  0.00  0.00    +0.000 A 
ATOM     13  C   UNL     1       4.053   4.778  19.688  0.00  0.00    +0.000 A 
ATOM     14  C   UNL     1       3.223   4.200  18.731  0.00  0.00    +0.000 A 
ENDROOT
TORSDOF 0
ENDMDL
MODEL 4
REMARK VINA RESULT:      -6.5      1.533      1.680
REMARK  Name = 
REMARK  0 active torsions:
REMARK  status: ('A' for Active; 'I' for Inactive)
REMARK                            x       y       z     vdW  Elec       q    Type
REMARK                         _______ _______ _______ _____ _____    ______ ____
ROOT
ATOM      1  O   UNL     1       1.081   4.008  19.551  0.00  0.00    +0.000 OA
ATOM      2  N   UNL     1       2.050   3.852  18.773  0.00  0.00    +0.000 N 
ATOM      3  O   UNL     1       2.390   2.506  18.424  0.00  0.00    +0.000 OA
ATOM      4  N   UNL     1       3.480   2.545  17.562  0.00  0.00    +0.000 NA
ATOM      5  C   UNL     1       3.800   3.838  17.385  0.00  0.00    +0.000 A 
ATOM      6  C   UNL     1       4.835   4.421  16.599  0.00  0.00    +0.000 A 
ATOM      7  C   UNL     1       5.748   3.683  15.830  0.00  0.00    +0.000 A 
ATOM      8  C   UNL     1       6.693   4.388  15.123  0.00  0.00    +0.000 A 
ATOM      9  N   UNL     1       6.751   5.732  15.158  0.00  0.00    +0.000 NA
ATOM     10  N   UNL     1       5.845   6.450  15.920  0.00  0.00    +0.000 NA
ATOM     11  C   UNL     1       4.896   5.836  16.635  0.00  0.00    +0.000 A 
ATOM     12  C   UNL     1       3.978   6.596  17.408  0.00  0.00    +0.000 A 
ATOM     13  C   UNL     1       2.937   6.063  18.201  0.00  0.00    +0.000 A 
ATOM     14  C   UNL     1       2.901   4.672  18.147  0.00  0.00    +0.000 A 
ENDROOT
TORSDOF 0
ENDMDL
MODEL 5
REMARK VINA RESULT:      -6.5      3.003      4.676
REMARK  Name = 
REMARK  0 active torsions:
REMARK  status: ('A' for Active; 'I' for Inactive)
REMARK                            x       y       z     vdW  Elec       q    Type
REMARK                         _______ _______ _______ _____ _____    ______ ____
ROOT
ATOM      1  O   UNL     1       5.408   3.803  12.922  0.00  0.00    +0.000 OA
ATOM      2  N   UNL     1       5.986   4.267  13.931  0.00  0.00    +0.000 N 
ATOM      3  O   UNL     1       7.177   5.028  13.702  0.00  0.00    +0.000 OA
ATOM      4  N   UNL     1       7.663   5.450  14.933  0.00  0.00    +0.000 NA
ATOM      5  C   UNL     1       6.826   4.981  15.874  0.00  0.00    +0.000 A 
ATOM      6  C   UNL     1       6.871   5.128  17.290  0.00  0.00    +0.000 A 
ATOM      7  C   UNL     1       7.868   5.840  17.975  0.00  0.00    +0.000 A 
ATOM      8  C   UNL     1       7.777   5.895  19.345  0.00  0.00    +0.000 A 
ATOM      9  N   UNL     1       6.776   5.294  20.016  0.00  0.00    +0.000 NA
ATOM     10  N   UNL     1       5.799   4.594  19.330  0.00  0.00    +0.000 NA
ATOM     11  C   UNL     1       5.818   4.496  17.996  0.00  0.00    +0.000 A 
ATOM     12  C   UNL     1       4.802   3.773  17.316  0.00  0.00    +0.000 A 
ATOM     13  C   UNL     1       4.716   3.600  15.917  0.00  0.00    +0.000 A 
ATOM     14  C   UNL     1       5.763   4.231  15.249  0.00  0.00    +0.000 A 
ENDROOT
TORSDOF 0
ENDMDL
MODEL 6
REMARK VINA RESULT:      -6.5      1.464      2.881
REMARK  Name = 
REMARK  0 active torsions:
REMARK  status: ('A' for Active; 'I' for Inactive)
REMARK                            x       y       z     vdW  Elec       q    Type
REMARK                         _______ _______ _______ _____ _____    ______ ____
ROOT
ATOM      1  O   UNL     1       2.845   1.840  17.894  0.00  0.00    +0.000 OA
ATOM      2  N   UNL     1       3.763   2.636  18.199  0.00  0.00    +0.000 N 
ATOM      3  O   UNL     1       4.286   2.542  19.528  0.00  0.00    +0.000 OA
ATOM      4  N   UNL     1       5.284   3.499  19.668  0.00  0.00    +0.000 NA
ATOM      5  C   UNL     1       5.377   4.151  18.497  0.00  0.00    +0.000 A 
ATOM      6  C   UNL     1       6.239   5.218  18.113  0.00  0.00    +0.000 A 
ATOM      7  C   UNL     1       7.197   5.797  18.959  0.00  0.00    +0.000 A 
ATOM      8  C   UNL     1       7.956   6.821  18.446  0.00  0.00    +0.000 A 
ATOM      9  N   UNL     1       7.798   7.260  17.183  0.00  0.00    +0.000 NA
ATOM     10  N   UNL     1       6.850   6.682  16.357  0.00  0.00    +0.000 NA
ATOM     11  C   UNL     1       6.073   5.680  16.784  0.00  0.00    +0.000 A 
ATOM     12  C   UNL     1       5.108   5.103  15.916  0.00  0.00    +0.000 A 
ATOM     13  C   UNL     1       4.233   4.045  16.251  0.00  0.00    +0.000 A 
ATOM     14  C   UNL     1       4.418   3.611  17.562  0.00  0.00    +0.000 A 
ENDROOT
TORSDOF 0
ENDMDL
MODEL 7
REMARK VINA RESULT:      -6.5      2.885      4.484
REMARK  Name = 
REMARK  0 active torsions:
REMARK  status: ('A' for Active; 'I' for Inactive)
REMARK                            x       y       z     vdW  Elec       q    Type
REMARK                         _______ _______ _______ _____ _____    ______ ____
ROOT
ATOM      1  O   UNL     1       7.241   7.747  17.045  0.00  0.00    +0.000 OA
ATOM      2  N   UNL     1       6.610   6.668  17.117  0.00  0.00    +0.000 N 
ATOM      3  O   UNL     1       7.356   5.465  16.903  0.00  0.00    +0.000 OA
ATOM      4  N   UNL     1       6.485   4.389  17.024  0.00  0.00    +0.000 NA
ATOM      5  C   UNL     1       5.269   4.890  17.296  0.00  0.00    +0.000 A 
ATOM      6  C   UNL     1       4.031   4.217  17.510  0.00  0.00    +0.000 A 
ATOM      7  C   UNL     1       3.879   2.823  17.470  0.00  0.00    +0.000 A 
ATOM      8  C   UNL     1       2.621   2.319  17.698  0.00  0.00    +0.000 A 
ATOM      9  N   UNL     1       1.569   3.119  17.951  0.00  0.00    +0.000 NA
ATOM     10  N   UNL     1       1.731   4.493  17.988  0.00  0.00    +0.000 NA
ATOM     11  C   UNL     1       2.925   5.060  17.777  0.00  0.00    +0.000 A 
ATOM     12  C   UNL     1       3.064   6.472  17.822  0.00  0.00    +0.000 A 
ATOM     13  C   UNL     1       4.268   7.183  17.616  0.00  0.00    +0.000 A 
ATOM     14  C   UNL     1       5.338   6.331  17.356  0.00  0.00    +0.000 A 
ENDROOT
TORSDOF 0
ENDMDL
MODEL 8
REMARK VINA RESULT:      -6.4      2.731      4.739
REMARK  Name = 
REMARK  0 active torsions:
REMARK  status: ('A' for Active; 'I' for Inactive)
REMARK                            x       y       z     vdW  Elec       q    Type
REMARK                         _______ _______ _______ _____ _____    ______ ____
ROOT
ATOM      1  O   UNL     1       7.779   7.135  16.699  0.00  0.00    +0.000 OA
ATOM      2  N   UNL     1       7.147   6.323  17.413  0.00  0.00    +0.000 N 
ATOM      3  O   UNL     1       7.550   6.215  18.782  0.00  0.00    +0.000 OA
ATOM      4  N   UNL     1       6.736   5.273  19.399  0.00  0.00    +0.000 NA
ATOM      5  C   UNL     1       5.877   4.820  18.471  0.00  0.00    +0.000 A 
ATOM      6  C   UNL     1       4.840   3.850  18.583  0.00  0.00    +0.000 A 
ATOM      7  C   UNL     1       4.530   3.166  19.768  0.00  0.00    +0.000 A 
ATOM      8  C   UNL     1       3.500   2.257  19.722  0.00  0.00    +0.000 A 
ATOM      9  N   UNL     1       2.809   2.023  18.591  0.00  0.00    +0.000 NA
ATOM     10  N   UNL     1       3.124   2.703  17.427  0.00  0.00    +0.000 NA
ATOM     11  C   UNL     1       4.112   3.604  17.393  0.00  0.00    +0.000 A 
ATOM     12  C   UNL     1       4.415   4.289  16.187  0.00  0.00    +0.000 A 
ATOM     13  C   UNL     1       5.431   5.258  16.027  0.00  0.00    +0.000 A 
ATOM     14  C   UNL     1       6.130   5.479  17.211  0.00  0.00    +0.000 A 
ENDROOT
TORSDOF 0
ENDMDL
MODEL 9
REMARK VINA RESULT:      -6.4      1.873      2.222
REMARK  Name = 
REMARK  0 active torsions:
REMARK  status: ('A' for Active; 'I' for Inactive)
REMARK                            x       y       z     vdW  Elec       q    Type
REMARK                         _______ _______ _______ _____ _____    ______ ____
ROOT
ATOM      1  O   UNL     1       1.099   3.019  20.414  0.00  0.00    +0.000 OA
ATOM      2  N   UNL     1       1.931   3.161  19.488  0.00  0.00    +0.000 N 
ATOM      3  O   UNL     1       2.396   1.968  18.848  0.00  0.00    +0.000 OA
ATOM      4  N   UNL     1       3.301   2.334  17.859  0.00  0.00    +0.000 NA
ATOM      5  C   UNL     1       3.395   3.674  17.882  0.00  0.00    +0.000 A 
ATOM      6  C   UNL     1       4.183   4.547  17.078  0.00  0.00    +0.000 A 
ATOM      7  C   UNL     1       5.045   4.113  16.059  0.00  0.00    +0.000 A 
ATOM      8  C   UNL     1       5.740   5.075  15.367  0.00  0.00    +0.000 A 
ATOM      9  N   UNL     1       5.608   6.386  15.644  0.00  0.00    +0.000 NA
ATOM     10  N   UNL     1       4.755   6.803  16.651  0.00  0.00    +0.000 NA
ATOM     11  C   UNL     1       4.043   5.926  17.369  0.00  0.00    +0.000 A 
ATOM     12  C   UNL     1       3.174   6.380  18.396  0.00  0.00    +0.000 A 
ATOM     13  C   UNL     1       2.375   5.554  19.218  0.00  0.00    +0.000 A 
ATOM     14  C   UNL     1       2.532   4.205  18.910  0.00  0.00    +0.000 A 
ENDROOT
TORSDOF 0
ENDMDL
