MODEL 1
REMARK VINA RESULT:      -7.9      0.000      0.000
REMARK  Name = 
REMARK  7 active torsions:
REMARK  status: ('A' for Active; 'I' for Inactive)
REMARK    1  A    between atoms: C_1  and  C_2
REMARK    2  A    between atoms: C_2  and  C_3
REMARK    3  A    between atoms: C_2  and  C_4
REMARK    4  A    between atoms: C_4  and  C_5
REMARK    5  A    between atoms: C_5  and  C_6
REMARK    6  A    between atoms: C_11  and  C_12
REMARK    7  A    between atoms: C_14  and  C_15
REMARK                            x       y       z     vdW  Elec       q    Type
REMARK                         _______ _______ _______ _____ _____    ______ ____
ROOT
ATOM      1  C   UNL     1       6.406   4.703  15.321  0.00  0.00    +0.000 C 
ATOM      2  O   UNL     1       7.429   5.376  15.206  0.00  0.00    +0.000 OA
ATOM      3  N   UNL     1       5.623   4.728  16.468  0.00  0.00    +0.000 N 
ATOM      4  C   UNL     1       5.933   5.704  17.508  0.00  0.00    +0.000 C 
ATOM      5  C   UNL     1       5.971   5.037  18.883  0.00  0.00    +0.000 C 
ATOM      6  C   UNL     1       4.683   4.255  19.180  0.00  0.00    +0.000 C 
ATOM      7  C   UNL     1       4.362   3.294  18.023  0.00  0.00    +0.000 C 
ATOM      8  C   UNL     1       4.378   3.981  16.655  0.00  0.00    +0.000 C 
ENDROOT
BRANCH   6   9
ATOM      9  C   UNL     1       3.558   5.197  19.439  0.00  0.00    +0.000 A 
ATOM     10  N   UNL     1       3.330   6.372  18.907  0.00  0.00    +0.000 NA
ATOM     11  C   UNL     1       2.290   6.847  19.657  0.00  0.00    +0.000 A 
ATOM     12  N   UNL     1       1.843   5.988  20.586  0.00  0.00    +0.000 NA
ATOM     13  O   UNL     1       2.691   4.885  20.444  0.00  0.00    +0.000 OA
BRANCH  11  14
ATOM     14  C   UNL     1       1.751   8.227  19.469  0.00  0.00    +0.000 A 
ATOM     15  C   UNL     1       1.098   8.959  20.436  0.00  0.00    +0.000 A 
ATOM     16  C   UNL     1       0.713  10.248  19.964  0.00  0.00    +0.000 A 
ATOM     17  C   UNL     1       1.084  10.452  18.653  0.00  0.00    +0.000 A 
ATOM     18  S   UNL     1       1.906   9.099  18.005  0.00  0.00    +0.000 S 
ENDBRANCH  11  14
ENDBRANCH   6   9
BRANCH   1  19
ATOM     19  C   UNL     1       5.943   3.776  14.206  0.00  0.00    +0.000 C 
BRANCH  19  20
ATOM     20  C   UNL     1       6.680   4.032  12.890  0.00  0.00    +0.000 C 
BRANCH  20  22
ATOM     21  C   UNL     1       6.600   1.887  11.596  0.00  0.00    +0.000 C 
ATOM     22  C   UNL     1       6.049   3.312  11.685  0.00  0.00    +0.000 C 
ATOM     23  C   UNL     1       4.522   3.270  11.756  0.00  0.00    +0.000 C 
ENDBRANCH  20  22
ENDBRANCH  19  20
ENDBRANCH   1  19
TORSDOF 5
ENDMDL
MODEL 2
REMARK VINA RESULT:      -7.5      3.990      6.596
REMARK  Name = 
REMARK  7 active torsions:
REMARK  status: ('A' for Active; 'I' for Inactive)
REMARK    1  A    between atoms: C_1  and  C_2
REMARK    2  A    between atoms: C_2  and  C_3
REMARK    3  A    between atoms: C_2  and  C_4
REMARK    4  A    between atoms: C_4  and  C_5
REMARK    5  A    between atoms: C_5  and  C_6
REMARK    6  A    between atoms: C_11  and  C_12
REMARK    7  A    between atoms: C_14  and  C_15
REMARK                            x       y       z     vdW  Elec       q    Type
REMARK                         _______ _______ _______ _____ _____    ______ ____
ROOT
ATOM      1  C   UNL     1       3.420   3.942  17.832  0.00  0.00    +0.000 C 
ATOM      2  O   UNL     1       2.327   4.320  17.410  0.00  0.00    +0.000 OA
ATOM      3  N   UNL     1       4.584   4.676  17.644  0.00  0.00    +0.000 N 
ATOM      4  C   UNL     1       4.485   6.014  17.071  0.00  0.00    +0.000 C 
ATOM      5  C   UNL     1       5.502   6.198  15.945  0.00  0.00    +0.000 C 
ATOM      6  C   UNL     1       6.930   5.861  16.398  0.00  0.00    +0.000 C 
ATOM      7  C   UNL     1       6.966   4.472  17.058  0.00  0.00    +0.000 C 
ATOM      8  C   UNL     1       5.906   4.302  18.149  0.00  0.00    +0.000 C 
ENDROOT
BRANCH   6   9
ATOM      9  C   UNL     1       7.443   6.918  17.313  0.00  0.00    +0.000 A 
ATOM     10  N   UNL     1       7.499   8.213  17.125  0.00  0.00    +0.000 NA
ATOM     11  C   UNL     1       8.232   8.644  18.196  0.00  0.00    +0.000 A 
ATOM     12  N   UNL     1       8.578   7.671  19.054  0.00  0.00    +0.000 NA
ATOM     13  O   UNL     1       8.053   6.516  18.464  0.00  0.00    +0.000 OA
BRANCH  11  14
ATOM     14  C   UNL     1       8.641  10.072  18.346  0.00  0.00    +0.000 A 
ATOM     15  C   UNL     1       8.276  11.092  17.495  0.00  0.00    +0.000 A 
ATOM     16  C   UNL     1       8.811  12.348  17.905  0.00  0.00    +0.000 A 
ATOM     17  C   UNL     1       9.565  12.241  19.053  0.00  0.00    +0.000 A 
ATOM     18  S   UNL     1       9.613  10.634  19.637  0.00  0.00    +0.000 S 
ENDBRANCH  11  14
ENDBRANCH   6   9
BRANCH   1  19
ATOM     19  C   UNL     1       3.565   2.622  18.575  0.00  0.00    +0.000 C 
BRANCH  19  20
ATOM     20  C   UNL     1       3.451   2.789  20.091  0.00  0.00    +0.000 C 
BRANCH  20  22
ATOM     21  C   UNL     1       1.567   2.500  21.718  0.00  0.00    +0.000 C 
ATOM     22  C   UNL     1       2.087   3.335  20.546  0.00  0.00    +0.000 C 
ATOM     23  C   UNL     1       2.146   4.809  20.951  0.00  0.00    +0.000 C 
ENDBRANCH  20  22
ENDBRANCH  19  20
ENDBRANCH   1  19
TORSDOF 5
ENDMDL
MODEL 3
REMARK VINA RESULT:      -7.5      4.366      6.976
REMARK  Name = 
REMARK  7 active torsions:
REMARK  status: ('A' for Active; 'I' for Inactive)
REMARK    1  A    between atoms: C_1  and  C_2
REMARK    2  A    between atoms: C_2  and  C_3
REMARK    3  A    between atoms: C_2  and  C_4
REMARK    4  A    between atoms: C_4  and  C_5
REMARK    5  A    between atoms: C_5  and  C_6
REMARK    6  A    between atoms: C_11  and  C_12
REMARK    7  A    between atoms: C_14  and  C_15
REMARK                            x       y       z     vdW  Elec       q    Type
REMARK                         _______ _______ _______ _____ _____    ______ ____
ROOT
ATOM      1  C   UNL     1       3.203   5.444  18.500  0.00  0.00    +0.000 C 
ATOM      2  O   UNL     1       2.233   5.806  17.837  0.00  0.00    +0.000 OA
ATOM      3  N   UNL     1       4.484   5.932  18.274  0.00  0.00    +0.000 N 
ATOM      4  C   UNL     1       4.660   7.029  17.327  0.00  0.00    +0.000 C 
ATOM      5  C   UNL     1       5.798   6.726  16.353  0.00  0.00    +0.000 C 
ATOM      6  C   UNL     1       7.102   6.370  17.083  0.00  0.00    +0.000 C 
ATOM      7  C   UNL     1       6.848   5.261  18.118  0.00  0.00    +0.000 C 
ATOM      8  C   UNL     1       5.673   5.571  19.048  0.00  0.00    +0.000 C 
ENDROOT
BRANCH   6   9
ATOM      9  C   UNL     1       7.687   7.586  17.713  0.00  0.00    +0.000 A 
ATOM     10  N   UNL     1       7.726   8.812  17.255  0.00  0.00    +0.000 NA
ATOM     11  C   UNL     1       8.545   9.444  18.149  0.00  0.00    +0.000 A 
ATOM     12  N   UNL     1       8.962   8.665  19.160  0.00  0.00    +0.000 NA
ATOM     13  O   UNL     1       8.392   7.421  18.869  0.00  0.00    +0.000 OA
BRANCH  11  14
ATOM     14  C   UNL     1       8.964  10.865  17.965  0.00  0.00    +0.000 A 
ATOM     15  C   UNL     1      10.256  11.329  18.072  0.00  0.00    +0.000 A 
ATOM     16  C   UNL     1      10.345  12.730  17.829  0.00  0.00    +0.000 A 
ATOM     17  C   UNL     1       9.116  13.286  17.546  0.00  0.00    +0.000 A 
ATOM     18  S   UNL     1       7.869  12.116  17.560  0.00  0.00    +0.000 S 
ENDBRANCH  11  14
ENDBRANCH   6   9
BRANCH   1  19
ATOM     19  C   UNL     1       3.059   4.411  19.609  0.00  0.00    +0.000 C 
BRANCH  19  20
ATOM     20  C   UNL     1       1.815   4.645  20.467  0.00  0.00    +0.000 C 
BRANCH  20  22
ATOM     21  C   UNL     1       0.837   2.625  19.351  0.00  0.00    +0.000 C 
ATOM     22  C   UNL     1       0.968   3.378  20.677  0.00  0.00    +0.000 C 
ATOM     23  C   UNL     1       1.552   2.448  21.742  0.00  0.00    +0.000 C 
ENDBRANCH  20  22
ENDBRANCH  19  20
ENDBRANCH   1  19
TORSDOF 5
ENDMDL
MODEL 4
REMARK VINA RESULT:      -7.5      3.233      7.528
REMARK  Name = 
REMARK  7 active torsions:
REMARK  status: ('A' for Active; 'I' for Inactive)
REMARK    1  A    between atoms: C_1  and  C_2
REMARK    2  A    between atoms: C_2  and  C_3
REMARK    3  A    between atoms: C_2  and  C_4
REMARK    4  A    between atoms: C_4  and  C_5
REMARK    5  A    between atoms: C_5  and  C_6
REMARK    6  A    between atoms: C_11  and  C_12
REMARK    7  A    between atoms: C_14  and  C_15
REMARK                            x       y       z     vdW  Elec       q    Type
REMARK                         _______ _______ _______ _____ _____    ______ ____
ROOT
ATOM      1  C   UNL     1       4.379   2.688  20.017  0.00  0.00    +0.000 C 
ATOM      2  O   UNL     1       5.195   2.347  20.872  0.00  0.00    +0.000 OA
ATOM      3  N   UNL     1       4.697   3.574  18.996  0.00  0.00    +0.000 N 
ATOM      4  C   UNL     1       6.087   3.990  18.836  0.00  0.00    +0.000 C 
ATOM      5  C   UNL     1       6.185   5.508  18.684  0.00  0.00    +0.000 C 
ATOM      6  C   UNL     1       5.284   6.034  17.558  0.00  0.00    +0.000 C 
ATOM      7  C   UNL     1       3.849   5.510  17.733  0.00  0.00    +0.000 C 
ATOM      8  C   UNL     1       3.786   3.994  17.930  0.00  0.00    +0.000 C 
ENDROOT
BRANCH   6   9
ATOM      9  C   UNL     1       5.848   5.658  16.231  0.00  0.00    +0.000 A 
ATOM     10  N   UNL     1       5.298   4.954  15.273  0.00  0.00    +0.000 NA
ATOM     11  C   UNL     1       6.334   4.768  14.400  0.00  0.00    +0.000 A 
ATOM     12  N   UNL     1       7.475   5.375  14.763  0.00  0.00    +0.000 NA
ATOM     13  O   UNL     1       7.153   5.968  15.988  0.00  0.00    +0.000 OA
BRANCH  11  14
ATOM     14  C   UNL     1       6.193   3.916  13.182  0.00  0.00    +0.000 A 
ATOM     15  C   UNL     1       5.015   3.354  12.743  0.00  0.00    +0.000 A 
ATOM     16  C   UNL     1       5.193   2.604  11.544  0.00  0.00    +0.000 A 
ATOM     17  C   UNL     1       6.502   2.620  11.112  0.00  0.00    +0.000 A 
ATOM     18  S   UNL     1       7.502   3.549  12.143  0.00  0.00    +0.000 S 
ENDBRANCH  11  14
ENDBRANCH   6   9
BRANCH   1  19
ATOM     19  C   UNL     1       2.948   2.169  20.041  0.00  0.00    +0.000 C 
BRANCH  19  20
ATOM     20  C   UNL     1       2.118   2.795  21.163  0.00  0.00    +0.000 C 
BRANCH  20  22
ATOM     21  C   UNL     1       1.562   5.179  20.627  0.00  0.00    +0.000 C 
ATOM     22  C   UNL     1       1.022   3.748  20.656  0.00  0.00    +0.000 C 
ATOM     23  C   UNL     1       0.503   3.366  19.269  0.00  0.00    +0.000 C 
ENDBRANCH  20  22
ENDBRANCH  19  20
ENDBRANCH   1  19
TORSDOF 5
ENDMDL
MODEL 5
REMARK VINA RESULT:      -7.5      3.893      6.487
REMARK  Name = 
REMARK  7 active torsions:
REMARK  status: ('A' for Active; 'I' for Inactive)
REMARK    1  A    between atoms: C_1  and  C_2
REMARK    2  A    between atoms: C_2  and  C_3
REMARK    3  A    between atoms: C_2  and  C_4
REMARK    4  A    between atoms: C_4  and  C_5
REMARK    5  A    between atoms: C_5  and  C_6
REMARK    6  A    between atoms: C_11  and  C_12
REMARK    7  A    between atoms: C_14  and  C_15
REMARK                            x       y       z     vdW  Elec       q    Type
REMARK                         _______ _______ _______ _____ _____    ______ ____
ROOT
ATOM      1  C   UNL     1       3.116   4.036  17.772  0.00  0.00    +0.000 C 
ATOM      2  O   UNL     1       2.031   4.501  17.423  0.00  0.00    +0.000 OA
ATOM      3  N   UNL     1       4.311   4.718  17.589  0.00  0.00    +0.000 N 
ATOM      4  C   UNL     1       4.267   6.097  17.114  0.00  0.00    +0.000 C 
ATOM      5  C   UNL     1       5.251   6.307  15.964  0.00  0.00    +0.000 C 
ATOM      6  C   UNL     1       6.673   5.862  16.334  0.00  0.00    +0.000 C 
ATOM      7  C   UNL     1       6.656   4.430  16.894  0.00  0.00    +0.000 C 
ATOM      8  C   UNL     1       5.628   4.239  18.012  0.00  0.00    +0.000 C 
ENDROOT
BRANCH   6   9
ATOM      9  C   UNL     1       7.278   6.823  17.299  0.00  0.00    +0.000 A 
ATOM     10  N   UNL     1       7.396   8.123  17.200  0.00  0.00    +0.000 NA
ATOM     11  C   UNL     1       8.193   8.436  18.267  0.00  0.00    +0.000 A 
ATOM     12  N   UNL     1       8.518   7.387  19.039  0.00  0.00    +0.000 NA
ATOM     13  O   UNL     1       7.909   6.307  18.392  0.00  0.00    +0.000 OA
BRANCH  11  14
ATOM     14  C   UNL     1       8.685   9.827  18.500  0.00  0.00    +0.000 A 
ATOM     15  C   UNL     1       9.558  10.199  19.497  0.00  0.00    +0.000 A 
ATOM     16  C   UNL     1       9.853  11.594  19.458  0.00  0.00    +0.000 A 
ATOM     17  C   UNL     1       9.192  12.235  18.433  0.00  0.00    +0.000 A 
ATOM     18  S   UNL     1       8.235  11.153  17.516  0.00  0.00    +0.000 S 
ENDBRANCH  11  14
ENDBRANCH   6   9
BRANCH   1  19
ATOM     19  C   UNL     1       3.214   2.660  18.415  0.00  0.00    +0.000 C 
BRANCH  19  20
ATOM     20  C   UNL     1       1.871   2.177  18.968  0.00  0.00    +0.000 C 
BRANCH  20  22
ATOM     21  C   UNL     1       2.977   2.584  21.180  0.00  0.00    +0.000 C 
ATOM     22  C   UNL     1       1.639   2.567  20.438  0.00  0.00    +0.000 C 
ATOM     23  C   UNL     1       0.950   3.925  20.586  0.00  0.00    +0.000 C 
ENDBRANCH  20  22
ENDBRANCH  19  20
ENDBRANCH   1  19
TORSDOF 5
ENDMDL
MODEL 6
REMARK VINA RESULT:      -7.4      0.921      1.258
REMARK  Name = 
REMARK  7 active torsions:
REMARK  status: ('A' for Active; 'I' for Inactive)
REMARK    1  A    between atoms: C_1  and  C_2
REMARK    2  A    between atoms: C_2  and  C_3
REMARK    3  A    between atoms: C_2  and  C_4
REMARK    4  A    between atoms: C_4  and  C_5
REMARK    5  A    between atoms: C_5  and  C_6
REMARK    6  A    between atoms: C_11  and  C_12
REMARK    7  A    between atoms: C_14  and  C_15
REMARK                            x       y       z     vdW  Elec       q    Type
REMARK                         _______ _______ _______ _____ _____    ______ ____
ROOT
ATOM      1  C   UNL     1       6.214   4.719  15.485  0.00  0.00    +0.000 C 
ATOM      2  O   UNL     1       7.148   5.481  15.237  0.00  0.00    +0.000 OA
ATOM      3  N   UNL     1       5.493   4.787  16.670  0.00  0.00    +0.000 N 
ATOM      4  C   UNL     1       5.744   5.898  17.582  0.00  0.00    +0.000 C 
ATOM      5  C   UNL     1       5.926   5.394  19.013  0.00  0.00    +0.000 C 
ATOM      6  C   UNL     1       4.751   4.517  19.470  0.00  0.00    +0.000 C 
ATOM      7  C   UNL     1       4.483   3.406  18.441  0.00  0.00    +0.000 C 
ATOM      8  C   UNL     1       4.352   3.936  17.011  0.00  0.00    +0.000 C 
ENDROOT
BRANCH   6   9
ATOM      9  C   UNL     1       3.542   5.357  19.700  0.00  0.00    +0.000 A 
ATOM     10  N   UNL     1       3.370   6.632  19.462  0.00  0.00    +0.000 NA
ATOM     11  C   UNL     1       2.160   6.889  20.046  0.00  0.00    +0.000 A 
ATOM     12  N   UNL     1       1.567   5.810  20.582  0.00  0.00    +0.000 NA
ATOM     13  O   UNL     1       2.491   4.785  20.354  0.00  0.00    +0.000 OA
BRANCH  11  14
ATOM     14  C   UNL     1       1.595   8.270  20.112  0.00  0.00    +0.000 A 
ATOM     15  C   UNL     1       1.368   9.083  19.024  0.00  0.00    +0.000 A 
ATOM     16  C   UNL     1       0.809  10.339  19.402  0.00  0.00    +0.000 A 
ATOM     17  C   UNL     1       0.632  10.439  20.765  0.00  0.00    +0.000 A 
ATOM     18  S   UNL     1       1.123   9.016  21.578  0.00  0.00    +0.000 S 
ENDBRANCH  11  14
ENDBRANCH   6   9
BRANCH   1  19
ATOM     19  C   UNL     1       5.803   3.631  14.503  0.00  0.00    +0.000 C 
BRANCH  19  20
ATOM     20  C   UNL     1       6.347   3.879  13.095  0.00  0.00    +0.000 C 
BRANCH  20  22
ATOM     21  C   UNL     1       4.711   3.144  11.344  0.00  0.00    +0.000 C 
ATOM     22  C   UNL     1       5.989   2.766  12.095  0.00  0.00    +0.000 C 
ATOM     23  C   UNL     1       7.112   2.489  11.094  0.00  0.00    +0.000 C 
ENDBRANCH  20  22
ENDBRANCH  19  20
ENDBRANCH   1  19
TORSDOF 5
ENDMDL
MODEL 7
REMARK VINA RESULT:      -7.4      0.938      1.377
REMARK  Name = 
REMARK  7 active torsions:
REMARK  status: ('A' for Active; 'I' for Inactive)
REMARK    1  A    between atoms: C_1  and  C_2
REMARK    2  A    between atoms: C_2  and  C_3
REMARK    3  A    between atoms: C_2  and  C_4
REMARK    4  A    between atoms: C_4  and  C_5
REMARK    5  A    between atoms: C_5  and  C_6
REMARK    6  A    between atoms: C_11  and  C_12
REMARK    7  A    between atoms: C_14  and  C_15
REMARK                            x       y       z     vdW  Elec       q    Type
REMARK                         _______ _______ _______ _____ _____    ______ ____
ROOT
ATOM      1  C   UNL     1       6.944   4.623  16.447  0.00  0.00    +0.000 C 
ATOM      2  O   UNL     1       8.027   4.399  16.987  0.00  0.00    +0.000 OA
ATOM      3  N   UNL     1       5.742   4.574  17.141  0.00  0.00    +0.000 N 
ATOM      4  C   UNL     1       5.775   4.411  18.591  0.00  0.00    +0.000 C 
ATOM      5  C   UNL     1       4.802   3.318  19.035  0.00  0.00    +0.000 C 
ATOM      6  C   UNL     1       3.381   3.561  18.507  0.00  0.00    +0.000 C 
ATOM      7  C   UNL     1       3.410   3.799  16.987  0.00  0.00    +0.000 C 
ATOM      8  C   UNL     1       4.426   4.864  16.569  0.00  0.00    +0.000 C 
ENDROOT
BRANCH   6   9
ATOM      9  C   UNL     1       2.753   4.703  19.229  0.00  0.00    +0.000 A 
ATOM     10  N   UNL     1       2.347   5.854  18.753  0.00  0.00    +0.000 NA
ATOM     11  C   UNL     1       2.049   6.561  19.885  0.00  0.00    +0.000 A 
ATOM     12  N   UNL     1       2.206   5.869  21.025  0.00  0.00    +0.000 NA
ATOM     13  O   UNL     1       2.679   4.627  20.588  0.00  0.00    +0.000 OA
BRANCH  11  14
ATOM     14  C   UNL     1       1.635   7.995  19.831  0.00  0.00    +0.000 A 
ATOM     15  C   UNL     1       1.168   8.723  20.903  0.00  0.00    +0.000 A 
ATOM     16  C   UNL     1       0.866  10.070  20.544  0.00  0.00    +0.000 A 
ATOM     17  C   UNL     1       1.112  10.319  19.211  0.00  0.00    +0.000 A 
ATOM     18  S   UNL     1       1.719   8.937  18.406  0.00  0.00    +0.000 S 
ENDBRANCH  11  14
ENDBRANCH   6   9
BRANCH   1  19
ATOM     19  C   UNL     1       6.856   4.951  14.963  0.00  0.00    +0.000 C 
BRANCH  19  20
ATOM     20  C   UNL     1       6.069   3.899  14.179  0.00  0.00    +0.000 C 
BRANCH  20  22
ATOM     21  C   UNL     1       5.550   3.136  11.849  0.00  0.00    +0.000 C 
ATOM     22  C   UNL     1       6.663   3.599  12.792  0.00  0.00    +0.000 C 
ATOM     23  C   UNL     1       7.383   4.805  12.185  0.00  0.00    +0.000 C 
ENDBRANCH  20  22
ENDBRANCH  19  20
ENDBRANCH   1  19
TORSDOF 5
ENDMDL
MODEL 8
REMARK VINA RESULT:      -7.1      1.287      1.521
REMARK  Name = 
REMARK  7 active torsions:
REMARK  status: ('A' for Active; 'I' for Inactive)
REMARK    1  A    between atoms: C_1  and  C_2
REMARK    2  A    between atoms: C_2  and  C_3
REMARK    3  A    between atoms: C_2  and  C_4
REMARK    4  A    between atoms: C_4  and  C_5
REMARK    5  A    between atoms: C_5  and  C_6
REMARK    6  A    between atoms: C_11  and  C_12
REMARK    7  A    between atoms: C_14  and  C_15
REMARK                            x       y       z     vdW  Elec       q    Type
REMARK                         _______ _______ _______ _____ _____    ______ ____
ROOT
ATOM      1  C   UNL     1       6.622   4.310  15.883  0.00  0.00    +0.000 C 
ATOM      2  O   UNL     1       7.816   4.459  16.143  0.00  0.00    +0.000 OA
ATOM      3  N   UNL     1       5.617   4.697  16.760  0.00  0.00    +0.000 N 
ATOM      4  C   UNL     1       5.979   5.449  17.957  0.00  0.00    +0.000 C 
ATOM      5  C   UNL     1       5.308   4.854  19.195  0.00  0.00    +0.000 C 
ATOM      6  C   UNL     1       3.788   4.729  19.022  0.00  0.00    +0.000 C 
ATOM      7  C   UNL     1       3.458   3.993  17.713  0.00  0.00    +0.000 C 
ATOM      8  C   UNL     1       4.181   4.581  16.499  0.00  0.00    +0.000 C 
ENDROOT
BRANCH   6   9
ATOM      9  C   UNL     1       3.152   6.075  19.070  0.00  0.00    +0.000 A 
ATOM     10  N   UNL     1       2.606   6.691  20.088  0.00  0.00    +0.000 NA
ATOM     11  C   UNL     1       2.024   7.783  19.506  0.00  0.00    +0.000 A 
ATOM     12  N   UNL     1       2.240   7.883  18.184  0.00  0.00    +0.000 NA
ATOM     13  O   UNL     1       2.992   6.740  17.891  0.00  0.00    +0.000 OA
BRANCH  11  14
ATOM     14  C   UNL     1       1.183   8.738  20.288  0.00  0.00    +0.000 A 
ATOM     15  C   UNL     1       0.711   8.514  21.562  0.00  0.00    +0.000 A 
ATOM     16  C   UNL     1      -0.052   9.615  22.051  0.00  0.00    +0.000 A 
ATOM     17  C   UNL     1      -0.135  10.638  21.131  0.00  0.00    +0.000 A 
ATOM     18  S   UNL     1       0.717  10.273  19.694  0.00  0.00    +0.000 S 
ENDBRANCH  11  14
ENDBRANCH   6   9
BRANCH   1  19
ATOM     19  C   UNL     1       6.172   3.668  14.578  0.00  0.00    +0.000 C 
BRANCH  19  20
ATOM     20  C   UNL     1       6.832   4.307  13.355  0.00  0.00    +0.000 C 
BRANCH  20  22
ATOM     21  C   UNL     1       7.138   2.553  11.592  0.00  0.00    +0.000 C 
ATOM     22  C   UNL     1       6.302   3.761  12.018  0.00  0.00    +0.000 C 
ATOM     23  C   UNL     1       4.825   3.368  12.086  0.00  0.00    +0.000 C 
ENDBRANCH  20  22
ENDBRANCH  19  20
ENDBRANCH   1  19
TORSDOF 5
ENDMDL
MODEL 9
REMARK VINA RESULT:      -7.1      1.097      1.522
REMARK  Name = 
REMARK  7 active torsions:
REMARK  status: ('A' for Active; 'I' for Inactive)
REMARK    1  A    between atoms: C_1  and  C_2
REMARK    2  A    between atoms: C_2  and  C_3
REMARK    3  A    between atoms: C_2  and  C_4
REMARK    4  A    between atoms: C_4  and  C_5
REMARK    5  A    between atoms: C_5  and  C_6
REMARK    6  A    between atoms: C_11  and  C_12
REMARK    7  A    between atoms: C_14  and  C_15
REMARK                            x       y       z     vdW  Elec       q    Type
REMARK                         _______ _______ _______ _____ _____    ______ ____
ROOT
ATOM      1  C   UNL     1       6.632   4.215  16.427  0.00  0.00    +0.000 C 
ATOM      2  O   UNL     1       7.785   4.434  16.796  0.00  0.00    +0.000 OA
ATOM      3  N   UNL     1       5.542   4.340  17.278  0.00  0.00    +0.000 N 
ATOM      4  C   UNL     1       5.750   4.905  18.607  0.00  0.00    +0.000 C 
ATOM      5  C   UNL     1       5.080   4.040  19.674  0.00  0.00    +0.000 C 
ATOM      6  C   UNL     1       3.595   3.796  19.369  0.00  0.00    +0.000 C 
ATOM      7  C   UNL     1       3.424   3.270  17.934  0.00  0.00    +0.000 C 
ATOM      8  C   UNL     1       4.145   4.130  16.894  0.00  0.00    +0.000 C 
ENDROOT
BRANCH   6   9
ATOM      9  C   UNL     1       2.812   5.043  19.594  0.00  0.00    +0.000 A 
ATOM     10  N   UNL     1       2.721   6.105  18.833  0.00  0.00    +0.000 NA
ATOM     11  C   UNL     1       2.041   6.988  19.626  0.00  0.00    +0.000 A 
ATOM     12  N   UNL     1       1.669   6.489  20.815  0.00  0.00    +0.000 NA
ATOM     13  O   UNL     1       2.187   5.189  20.797  0.00  0.00    +0.000 OA
BRANCH  11  14
ATOM     14  C   UNL     1       1.791   8.397  19.199  0.00  0.00    +0.000 A 
ATOM     15  C   UNL     1       2.263   8.966  18.036  0.00  0.00    +0.000 A 
ATOM     16  C   UNL     1       1.848  10.323  17.898  0.00  0.00    +0.000 A 
ATOM     17  C   UNL     1       1.076  10.741  18.960  0.00  0.00    +0.000 A 
ATOM     18  S   UNL     1       0.843   9.494  20.108  0.00  0.00    +0.000 S 
ENDBRANCH  11  14
ENDBRANCH   6   9
BRANCH   1  19
ATOM     19  C   UNL     1       6.332   3.768  15.003  0.00  0.00    +0.000 C 
BRANCH  19  20
ATOM     20  C   UNL     1       6.821   4.775  13.960  0.00  0.00    +0.000 C 
BRANCH  20  22
ATOM     21  C   UNL     1       5.923   3.292  12.151  0.00  0.00    +0.000 C 
ATOM     22  C   UNL     1       7.117   4.142  12.589  0.00  0.00    +0.000 C 
ATOM     23  C   UNL     1       7.430   5.183  11.514  0.00  0.00    +0.000 C 
ENDBRANCH  20  22
ENDBRANCH  19  20
ENDBRANCH   1  19
TORSDOF 5
ENDMDL
