MODEL 1
REMARK VINA RESULT:      -6.2      0.000      0.000
REMARK  Name = 
REMARK  3 active torsions:
REMARK  status: ('A' for Active; 'I' for Inactive)
REMARK    1  A    between atoms: C_1  and  N_2
REMARK    2  A    between atoms: C_3  and  S_4
REMARK    3  A    between atoms: C_9  and  C_10
REMARK                            x       y       z     vdW  Elec       q    Type
REMARK                         _______ _______ _______ _____ _____    ______ ____
ROOT
ATOM      1  C   UNL     1       7.636   4.615  17.663  0.00  0.00    +0.000 C 
ATOM      2  N   UNL     1       6.261   4.640  18.123  0.00  0.00    +0.000 NA
ATOM      3  C   UNL     1       5.255   4.380  17.364  0.00  0.00    +0.000 C 
ATOM      4  N   UNL     1       3.972   4.334  17.867  0.00  0.00    +0.000 N 
ATOM      5  C   UNL     1       2.882   3.553  17.275  0.00  0.00    +0.000 C 
ATOM      6  C   UNL     1       1.834   3.198  18.326  0.00  0.00    +0.000 C 
ATOM      7  S   UNL     1       2.494   3.704  19.918  0.00  0.00    +0.000 S 
ATOM      8  C   UNL     1       3.652   4.904  19.173  0.00  0.00    +0.000 C 
ENDROOT
BRANCH   8   9
ATOM      9  C   UNL     1       3.009   6.292  19.062  0.00  0.00    +0.000 A 
ATOM     10  C   UNL     1       2.255   6.805  20.136  0.00  0.00    +0.000 A 
ATOM     11  C   UNL     1       1.626   8.054  20.053  0.00  0.00    +0.000 A 
ATOM     12  C   UNL     1       1.754   8.815  18.894  0.00  0.00    +0.000 A 
ATOM     13 CL   UNL     1       0.965  10.338  18.775  0.00  0.00    +0.000 Cl
ATOM     14  C   UNL     1       2.518   8.348  17.830  0.00  0.00    +0.000 A 
ATOM     15  C   UNL     1       3.145   7.102  17.918  0.00  0.00    +0.000 A 
ENDBRANCH   8   9
BRANCH   3  16
ATOM     16  S   UNL     1       5.413   4.091  15.625  0.00  0.00    +0.000 S 
ATOM     17  H   UNL     1       6.392   4.966  15.386  0.00  0.00    +0.000 HD
ENDBRANCH   3  16
TORSDOF 2
ENDMDL
MODEL 2
REMARK VINA RESULT:      -6.2      0.991      1.051
REMARK  Name = 
REMARK  3 active torsions:
REMARK  status: ('A' for Active; 'I' for Inactive)
REMARK    1  A    between atoms: C_1  and  N_2
REMARK    2  A    between atoms: C_3  and  S_4
REMARK    3  A    between atoms: C_9  and  C_10
REMARK                            x       y       z     vdW  Elec       q    Type
REMARK                         _______ _______ _______ _____ _____    ______ ____
ROOT
ATOM      1  C   UNL     1       7.229   5.440  18.676  0.00  0.00    +0.000 C 
ATOM      2  N   UNL     1       5.810   5.451  18.975  0.00  0.00    +0.000 NA
ATOM      3  C   UNL     1       4.904   5.110  18.127  0.00  0.00    +0.000 C 
ATOM      4  N   UNL     1       3.573   5.056  18.484  0.00  0.00    +0.000 N 
ATOM      5  C   UNL     1       2.577   4.204  17.827  0.00  0.00    +0.000 C 
ATOM      6  C   UNL     1       1.425   3.886  18.775  0.00  0.00    +0.000 C 
ATOM      7  S   UNL     1       1.885   4.516  20.393  0.00  0.00    +0.000 S 
ATOM      8  C   UNL     1       3.091   5.701  19.703  0.00  0.00    +0.000 C 
ENDROOT
BRANCH   8   9
ATOM      9  C   UNL     1       2.432   7.057  19.424  0.00  0.00    +0.000 A 
ATOM     10  C   UNL     1       1.723   7.717  20.447  0.00  0.00    +0.000 A 
ATOM     11  C   UNL     1       1.081   8.940  20.215  0.00  0.00    +0.000 A 
ATOM     12  C   UNL     1       1.150   9.527  18.956  0.00  0.00    +0.000 A 
ATOM     13 CL   UNL     1       0.344  11.017  18.656  0.00  0.00    +0.000 Cl
ATOM     14  C   UNL     1       1.869   8.915  17.935  0.00  0.00    +0.000 A 
ATOM     15  C   UNL     1       2.509   7.695  18.171  0.00  0.00    +0.000 A 
ENDBRANCH   8   9
BRANCH   3  16
ATOM     16  S   UNL     1       5.268   4.712  16.441  0.00  0.00    +0.000 S 
ATOM     17  H   UNL     1       6.593   4.860  16.503  0.00  0.00    +0.000 HD
ENDBRANCH   3  16
TORSDOF 2
ENDMDL
MODEL 3
REMARK VINA RESULT:      -6.2      0.219      1.223
REMARK  Name = 
REMARK  3 active torsions:
REMARK  status: ('A' for Active; 'I' for Inactive)
REMARK    1  A    between atoms: C_1  and  N_2
REMARK    2  A    between atoms: C_3  and  S_4
REMARK    3  A    between atoms: C_9  and  C_10
REMARK                            x       y       z     vdW  Elec       q    Type
REMARK                         _______ _______ _______ _____ _____    ______ ____
ROOT
ATOM      1  C   UNL     1       7.723   4.670  18.043  0.00  0.00    +0.000 C 
ATOM      2  N   UNL     1       6.326   4.665  18.432  0.00  0.00    +0.000 NA
ATOM      3  C   UNL     1       5.368   4.365  17.626  0.00  0.00    +0.000 C 
ATOM      4  N   UNL     1       4.062   4.293  18.064  0.00  0.00    +0.000 N 
ATOM      5  C   UNL     1       3.025   3.473  17.431  0.00  0.00    +0.000 C 
ATOM      6  C   UNL     1       1.934   3.108  18.433  0.00  0.00    +0.000 C 
ATOM      7  S   UNL     1       2.496   3.659  20.047  0.00  0.00    +0.000 S 
ATOM      8  C   UNL     1       3.659   4.877  19.340  0.00  0.00    +0.000 C 
ENDROOT
BRANCH   8   9
ATOM      9  C   UNL     1       2.987   6.245  19.170  0.00  0.00    +0.000 A 
ATOM     10  C   UNL     1       3.179   6.979  17.982  0.00  0.00    +0.000 A 
ATOM     11  C   UNL     1       2.608   8.245  17.809  0.00  0.00    +0.000 A 
ATOM     12  C   UNL     1       1.824   8.792  18.820  0.00  0.00    +0.000 A 
ATOM     13 CL   UNL     1       1.139  10.358  18.626  0.00  0.00    +0.000 Cl
ATOM     14  C   UNL     1       1.591   8.078  19.990  0.00  0.00    +0.000 A 
ATOM     15  C   UNL     1       2.161   6.814  20.159  0.00  0.00    +0.000 A 
ENDBRANCH   8   9
BRANCH   3  16
ATOM     16  S   UNL     1       5.624   4.050  15.904  0.00  0.00    +0.000 S 
ATOM     17  H   UNL     1       4.516   4.638  15.447  0.00  0.00    +0.000 HD
ENDBRANCH   3  16
TORSDOF 2
ENDMDL
MODEL 4
REMARK VINA RESULT:      -6.1      1.050      1.076
REMARK  Name = 
REMARK  3 active torsions:
REMARK  status: ('A' for Active; 'I' for Inactive)
REMARK    1  A    between atoms: C_1  and  N_2
REMARK    2  A    between atoms: C_3  and  S_4
REMARK    3  A    between atoms: C_9  and  C_10
REMARK                            x       y       z     vdW  Elec       q    Type
REMARK                         _______ _______ _______ _____ _____    ______ ____
ROOT
ATOM      1  C   UNL     1       7.920   5.531  19.658  0.00  0.00    +0.000 C 
ATOM      2  N   UNL     1       6.487   5.373  19.504  0.00  0.00    +0.000 NA
ATOM      3  C   UNL     1       5.917   5.150  18.371  0.00  0.00    +0.000 C 
ATOM      4  N   UNL     1       4.559   4.924  18.286  0.00  0.00    +0.000 N 
ATOM      5  C   UNL     1       3.917   4.156  17.215  0.00  0.00    +0.000 C 
ATOM      6  C   UNL     1       2.595   3.561  17.690  0.00  0.00    +0.000 C 
ATOM      7  S   UNL     1       2.483   3.872  19.456  0.00  0.00    +0.000 S 
ATOM      8  C   UNL     1       3.666   5.261  19.391  0.00  0.00    +0.000 C 
ENDROOT
BRANCH   8   9
ATOM      9  C   UNL     1       2.939   6.593  19.168  0.00  0.00    +0.000 A 
ATOM     10  C   UNL     1       2.143   7.139  20.195  0.00  0.00    +0.000 A 
ATOM     11  C   UNL     1       1.438   8.335  20.011  0.00  0.00    +0.000 A 
ATOM     12  C   UNL     1       1.531   9.010  18.797  0.00  0.00    +0.000 A 
ATOM     13 CL   UNL     1       0.649  10.467  18.554  0.00  0.00    +0.000 Cl
ATOM     14  C   UNL     1       2.333   8.512  17.778  0.00  0.00    +0.000 A 
ATOM     15  C   UNL     1       3.036   7.318  17.965  0.00  0.00    +0.000 A 
ENDBRANCH   8   9
BRANCH   3  16
ATOM     16  S   UNL     1       6.798   5.143  16.837  0.00  0.00    +0.000 S 
ATOM     17  H   UNL     1       6.313   6.285  16.345  0.00  0.00    +0.000 HD
ENDBRANCH   3  16
TORSDOF 2
ENDMDL
MODEL 5
REMARK VINA RESULT:      -6.0      1.107      1.683
REMARK  Name = 
REMARK  3 active torsions:
REMARK  status: ('A' for Active; 'I' for Inactive)
REMARK    1  A    between atoms: C_1  and  N_2
REMARK    2  A    between atoms: C_3  and  S_4
REMARK    3  A    between atoms: C_9  and  C_10
REMARK                            x       y       z     vdW  Elec       q    Type
REMARK                         _______ _______ _______ _____ _____    ______ ____
ROOT
ATOM      1  C   UNL     1       8.061   5.615  19.764  0.00  0.00    +0.000 C 
ATOM      2  N   UNL     1       6.644   5.384  19.561  0.00  0.00    +0.000 NA
ATOM      3  C   UNL     1       6.121   5.163  18.406  0.00  0.00    +0.000 C 
ATOM      4  N   UNL     1       4.780   4.866  18.272  0.00  0.00    +0.000 N 
ATOM      5  C   UNL     1       4.214   4.095  17.162  0.00  0.00    +0.000 C 
ATOM      6  C   UNL     1       2.913   3.417  17.579  0.00  0.00    +0.000 C 
ATOM      7  S   UNL     1       2.732   3.670  19.348  0.00  0.00    +0.000 S 
ATOM      8  C   UNL     1       3.838   5.123  19.358  0.00  0.00    +0.000 C 
ENDROOT
BRANCH   8   9
ATOM      9  C   UNL     1       3.046   6.419  19.148  0.00  0.00    +0.000 A 
ATOM     10  C   UNL     1       3.201   7.152  17.954  0.00  0.00    +0.000 A 
ATOM     11  C   UNL     1       2.519   8.357  17.746  0.00  0.00    +0.000 A 
ATOM     12  C   UNL     1       1.659   8.841  18.727  0.00  0.00    +0.000 A 
ATOM     13 CL   UNL     1       0.836  10.332  18.490  0.00  0.00    +0.000 Cl
ATOM     14  C   UNL     1       1.462   8.124  19.902  0.00  0.00    +0.000 A 
ATOM     15  C   UNL     1       2.143   6.921  20.105  0.00  0.00    +0.000 A 
ENDBRANCH   8   9
BRANCH   3  16
ATOM     16  S   UNL     1       7.046   5.247  16.900  0.00  0.00    +0.000 S 
ATOM     17  H   UNL     1       7.830   6.278  17.227  0.00  0.00    +0.000 HD
ENDBRANCH   3  16
TORSDOF 2
ENDMDL
MODEL 6
REMARK VINA RESULT:      -5.9      1.569      3.353
REMARK  Name = 
REMARK  3 active torsions:
REMARK  status: ('A' for Active; 'I' for Inactive)
REMARK    1  A    between atoms: C_1  and  N_2
REMARK    2  A    between atoms: C_3  and  S_4
REMARK    3  A    between atoms: C_9  and  C_10
REMARK                            x       y       z     vdW  Elec       q    Type
REMARK                         _______ _______ _______ _____ _____    ______ ____
ROOT
ATOM      1  C   UNL     1       1.023   2.129  18.620  0.00  0.00    +0.000 C 
ATOM      2  N   UNL     1       1.821   3.319  18.389  0.00  0.00    +0.000 NA
ATOM      3  C   UNL     1       2.775   3.694  19.167  0.00  0.00    +0.000 C 
ATOM      4  N   UNL     1       3.560   4.786  18.860  0.00  0.00    +0.000 N 
ATOM      5  C   UNL     1       4.935   4.971  19.334  0.00  0.00    +0.000 C 
ATOM      6  C   UNL     1       5.720   5.871  18.384  0.00  0.00    +0.000 C 
ATOM      7  S   UNL     1       4.681   6.152  16.946  0.00  0.00    +0.000 S 
ATOM      8  C   UNL     1       3.144   5.756  17.850  0.00  0.00    +0.000 C 
ENDROOT
BRANCH   8   9
ATOM      9  C   UNL     1       2.531   7.017  18.470  0.00  0.00    +0.000 A 
ATOM     10  C   UNL     1       2.188   7.032  19.837  0.00  0.00    +0.000 A 
ATOM     11  C   UNL     1       1.594   8.155  20.426  0.00  0.00    +0.000 A 
ATOM     12  C   UNL     1       1.345   9.288  19.655  0.00  0.00    +0.000 A 
ATOM     13 CL   UNL     1       0.593  10.662  20.365  0.00  0.00    +0.000 Cl
ATOM     14  C   UNL     1       1.701   9.313  18.312  0.00  0.00    +0.000 A 
ATOM     15  C   UNL     1       2.295   8.190  17.728  0.00  0.00    +0.000 A 
ENDBRANCH   8   9
BRANCH   3  16
ATOM     16  S   UNL     1       3.147   2.880  20.693  0.00  0.00    +0.000 S 
ATOM     17  H   UNL     1       3.815   3.880  21.273  0.00  0.00    +0.000 HD
ENDBRANCH   3  16
TORSDOF 2
ENDMDL
MODEL 7
REMARK VINA RESULT:      -5.9      1.505      3.338
REMARK  Name = 
REMARK  3 active torsions:
REMARK  status: ('A' for Active; 'I' for Inactive)
REMARK    1  A    between atoms: C_1  and  N_2
REMARK    2  A    between atoms: C_3  and  S_4
REMARK    3  A    between atoms: C_9  and  C_10
REMARK                            x       y       z     vdW  Elec       q    Type
REMARK                         _______ _______ _______ _____ _____    ______ ____
ROOT
ATOM      1  C   UNL     1       2.202   1.817  17.928  0.00  0.00    +0.000 C 
ATOM      2  N   UNL     1       2.794   3.138  17.832  0.00  0.00    +0.000 NA
ATOM      3  C   UNL     1       3.685   3.577  18.651  0.00  0.00    +0.000 C 
ATOM      4  N   UNL     1       4.279   4.808  18.470  0.00  0.00    +0.000 N 
ATOM      5  C   UNL     1       5.612   5.161  18.968  0.00  0.00    +0.000 C 
ATOM      6  C   UNL     1       6.230   6.273  18.126  0.00  0.00    +0.000 C 
ATOM      7  S   UNL     1       5.142   6.536  16.722  0.00  0.00    +0.000 S 
ATOM      8  C   UNL     1       3.701   5.801  17.569  0.00  0.00    +0.000 C 
ENDROOT
BRANCH   8   9
ATOM      9  C   UNL     1       2.899   6.871  18.319  0.00  0.00    +0.000 A 
ATOM     10  C   UNL     1       2.567   8.081  17.676  0.00  0.00    +0.000 A 
ATOM     11  C   UNL     1       1.867   9.092  18.344  0.00  0.00    +0.000 A 
ATOM     12  C   UNL     1       1.475   8.903  19.666  0.00  0.00    +0.000 A 
ATOM     13 CL   UNL     1       0.635  10.149  20.501  0.00  0.00    +0.000 Cl
ATOM     14  C   UNL     1       1.760   7.707  20.316  0.00  0.00    +0.000 A 
ATOM     15  C   UNL     1       2.458   6.700  19.646  0.00  0.00    +0.000 A 
ENDBRANCH   8   9
BRANCH   3  16
ATOM     16  S   UNL     1       4.202   2.673  20.082  0.00  0.00    +0.000 S 
ATOM     17  H   UNL     1       3.268   1.720  20.040  0.00  0.00    +0.000 HD
ENDBRANCH   3  16
TORSDOF 2
ENDMDL
MODEL 8
REMARK VINA RESULT:      -5.7      1.104      1.690
REMARK  Name = 
REMARK  3 active torsions:
REMARK  status: ('A' for Active; 'I' for Inactive)
REMARK    1  A    between atoms: C_1  and  N_2
REMARK    2  A    between atoms: C_3  and  S_4
REMARK    3  A    between atoms: C_9  and  C_10
REMARK                            x       y       z     vdW  Elec       q    Type
REMARK                         _______ _______ _______ _____ _____    ______ ____
ROOT
ATOM      1  C   UNL     1       6.749   4.991  18.131  0.00  0.00    +0.000 C 
ATOM      2  N   UNL     1       5.422   5.120  18.702  0.00  0.00    +0.000 NA
ATOM      3  C   UNL     1       4.350   4.740  18.098  0.00  0.00    +0.000 C 
ATOM      4  N   UNL     1       3.119   4.807  18.715  0.00  0.00    +0.000 N 
ATOM      5  C   UNL     1       1.981   3.948  18.377  0.00  0.00    +0.000 C 
ATOM      6  C   UNL     1       1.034   3.807  19.566  0.00  0.00    +0.000 C 
ATOM      7  S   UNL     1       1.837   4.585  20.972  0.00  0.00    +0.000 S 
ATOM      8  C   UNL     1       2.919   5.611  19.917  0.00  0.00    +0.000 C 
ENDROOT
BRANCH   8   9
ATOM      9  C   UNL     1       2.266   6.965  19.612  0.00  0.00    +0.000 A 
ATOM     10  C   UNL     1       2.205   7.431  18.283  0.00  0.00    +0.000 A 
ATOM     11  C   UNL     1       1.648   8.678  17.975  0.00  0.00    +0.000 A 
ATOM     12  C   UNL     1       1.130   9.473  18.993  0.00  0.00    +0.000 A 
ATOM     13 CL   UNL     1       0.465  11.016  18.626  0.00  0.00    +0.000 Cl
ATOM     14  C   UNL     1       1.147   9.025  20.309  0.00  0.00    +0.000 A 
ATOM     15  C   UNL     1       1.704   7.780  20.613  0.00  0.00    +0.000 A 
ENDBRANCH   8   9
BRANCH   3  16
ATOM     16  S   UNL     1       4.349   4.136  16.435  0.00  0.00    +0.000 S 
ATOM     17  H   UNL     1       4.378   5.318  15.813  0.00  0.00    +0.000 HD
ENDBRANCH   3  16
TORSDOF 2
ENDMDL
MODEL 9
REMARK VINA RESULT:      -5.3      3.618      5.670
REMARK  Name = 
REMARK  3 active torsions:
REMARK  status: ('A' for Active; 'I' for Inactive)
REMARK    1  A    between atoms: C_1  and  N_2
REMARK    2  A    between atoms: C_3  and  S_4
REMARK    3  A    between atoms: C_9  and  C_10
REMARK                            x       y       z     vdW  Elec       q    Type
REMARK                         _______ _______ _______ _____ _____    ______ ____
ROOT
ATOM      1  C   UNL     1       4.590   1.977  20.334  0.00  0.00    +0.000 C 
ATOM      2  N   UNL     1       4.837   3.112  19.465  0.00  0.00    +0.000 NA
ATOM      3  C   UNL     1       3.908   3.727  18.820  0.00  0.00    +0.000 C 
ATOM      4  N   UNL     1       4.181   4.853  18.072  0.00  0.00    +0.000 N 
ATOM      5  C   UNL     1       3.200   5.898  17.770  0.00  0.00    +0.000 C 
ATOM      6  C   UNL     1       3.892   7.232  17.503  0.00  0.00    +0.000 C 
ATOM      7  S   UNL     1       5.630   7.010  17.894  0.00  0.00    +0.000 S 
ATOM      8  C   UNL     1       5.549   5.196  17.696  0.00  0.00    +0.000 C 
ENDROOT
BRANCH   8   9
ATOM      9  C   UNL     1       5.879   4.786  16.255  0.00  0.00    +0.000 A 
ATOM     10  C   UNL     1       7.063   5.248  15.646  0.00  0.00    +0.000 A 
ATOM     11  C   UNL     1       7.375   4.919  14.321  0.00  0.00    +0.000 A 
ATOM     12  C   UNL     1       6.511   4.111  13.588  0.00  0.00    +0.000 A 
ATOM     13 CL   UNL     1       6.875   3.723  11.953  0.00  0.00    +0.000 Cl
ATOM     14  C   UNL     1       5.351   3.615  14.173  0.00  0.00    +0.000 A 
ATOM     15  C   UNL     1       5.043   3.943  15.496  0.00  0.00    +0.000 A 
ENDBRANCH   8   9
BRANCH   3  16
ATOM     16  S   UNL     1       2.226   3.179  18.806  0.00  0.00    +0.000 S 
ATOM     17  H   UNL     1       2.251   2.489  19.948  0.00  0.00    +0.000 HD
ENDBRANCH   3  16
TORSDOF 2
ENDMDL
