MODEL 1
REMARK VINA RESULT:      -8.8      0.000      0.000
REMARK  Name = 
REMARK  14 active torsions:
REMARK  status: ('A' for Active; 'I' for Inactive)
REMARK    1  A    between atoms: C_1  and  O_2
REMARK    2  A    between atoms: O_2  and  C_3
REMARK    3  A    between atoms: C_6  and  O_7
REMARK    4  A    between atoms: O_7  and  C_8
REMARK    5  A    between atoms: C_9  and  C_10
REMARK    6  A    between atoms: C_10  and  C_11
REMARK    7  A    between atoms: C_11  and  N_12
REMARK    8  A    between atoms: C_13  and  C_15
REMARK    9  A    between atoms: C_15  and  C_16
REMARK   10  A    between atoms: C_16  and  C_17
REMARK   11  A    between atoms: N_19  and  C_20
REMARK   12  A    between atoms: C_20  and  C_21
REMARK   13  A    between atoms: C_23  and  C_24
REMARK   14  A    between atoms: C_27  and  C_28
REMARK                            x       y       z     vdW  Elec       q    Type
REMARK                         _______ _______ _______ _____ _____    ______ ____
ROOT
ATOM      1  C   UNL     1       9.214   9.924  18.250  0.00  0.00    +0.000 C 
ENDROOT
BRANCH   1   2
ATOM      2  C   UNL     1       9.596  11.368  17.925  0.00  0.00    +0.000 A 
ATOM      3  C   UNL     1      10.935  11.767  17.873  0.00  0.00    +0.000 A 
ATOM      4  N   UNL     1      10.960  12.905  18.648  0.00  0.00    +0.000 N 
ATOM      5  C   UNL     1       9.863  13.625  18.211  0.00  0.00    +0.000 A 
ATOM      6  C   UNL     1       9.575  14.991  18.353  0.00  0.00    +0.000 A 
ATOM      7  C   UNL     1       8.270  15.400  18.127  0.00  0.00    +0.000 A 
ATOM      8  C   UNL     1       7.306  14.485  17.678  0.00  0.00    +0.000 A 
ATOM      9  C   UNL     1       7.629  13.120  17.444  0.00  0.00    +0.000 A 
ATOM     10  C   UNL     1       8.957  12.663  17.741  0.00  0.00    +0.000 A 
BRANCH   4  11
ATOM     11  C   UNL     1      11.354  12.937  20.078  0.00  0.00    +0.000 C 
BRANCH  11  12
ATOM     12  C   UNL     1      10.383  13.644  20.991  0.00  0.00    +0.000 A 
ATOM     13  C   UNL     1      10.623  14.984  21.331  0.00  0.00    +0.000 A 
ATOM     14  C   UNL     1       9.742  15.704  22.144  0.00  0.00    +0.000 A 
ATOM     15  C   UNL     1      10.055  17.127  22.501  0.00  0.00    +0.000 C 
ATOM     16  C   UNL     1       8.606  15.072  22.642  0.00  0.00    +0.000 A 
ATOM     17  C   UNL     1       8.379  13.719  22.368  0.00  0.00    +0.000 A 
ATOM     18  C   UNL     1       9.269  12.985  21.569  0.00  0.00    +0.000 A 
ATOM     19  C   UNL     1       9.008  11.513  21.383  0.00  0.00    +0.000 C 
ENDBRANCH  11  12
ENDBRANCH   4  11
ENDBRANCH   1   2
BRANCH   1  20
ATOM     20  C   UNL     1       7.919   9.197  17.864  0.00  0.00    +0.000 C 
BRANCH  20  22
ATOM     21  N   UNL     1       7.057   7.071  16.717  0.00  0.00    +0.000 N 
ATOM     22  C   UNL     1       7.724   7.660  17.784  0.00  0.00    +0.000 C 
ATOM     23  O   UNL     1       8.118   6.970  18.729  0.00  0.00    +0.000 OA
ATOM     24  H   UNL     1       6.750   7.625  15.928  0.00  0.00    +0.000 HD
BRANCH  21  25
ATOM     25  C   UNL     1       6.978   5.595  16.606  0.00  0.00    +0.000 C 
BRANCH  25  26
ATOM     26  C   UNL     1       5.699   4.907  15.994  0.00  0.00    +0.000 C 
BRANCH  26  31
ATOM     27  C   UNL     1       2.647   3.259  17.751  0.00  0.00    +0.000 A 
ATOM     28  C   UNL     1       1.950   4.367  18.224  0.00  0.00    +0.000 A 
ATOM     29  C   UNL     1       2.522   5.607  18.088  0.00  0.00    +0.000 A 
ATOM     30  C   UNL     1       3.737   5.738  17.389  0.00  0.00    +0.000 A 
ATOM     31  C   UNL     1       4.419   4.679  16.801  0.00  0.00    +0.000 A 
ATOM     32  C   UNL     1       3.863   3.411  17.040  0.00  0.00    +0.000 A 
BRANCH  27  34
ATOM     33  C   UNL     1       0.986   2.164  18.993  0.00  0.00    +0.000 C 
ATOM     34  O   UNL     1       2.021   2.076  18.029  0.00  0.00    +0.000 OA
ENDBRANCH  27  34
BRANCH  30  35
ATOM     35  O   UNL     1       4.163   6.990  17.073  0.00  0.00    +0.000 OA
ATOM     36  C   UNL     1       3.228   7.785  17.782  0.00  0.00    +0.000 C 
ENDBRANCH  30  35
ENDBRANCH  26  31
ENDBRANCH  25  26
ENDBRANCH  21  25
ENDBRANCH  20  22
ENDBRANCH   1  20
TORSDOF 10
ENDMDL
MODEL 2
REMARK VINA RESULT:      -8.7      1.521      2.506
REMARK  Name = 
REMARK  14 active torsions:
REMARK  status: ('A' for Active; 'I' for Inactive)
REMARK    1  A    between atoms: C_1  and  O_2
REMARK    2  A    between atoms: O_2  and  C_3
REMARK    3  A    between atoms: C_6  and  O_7
REMARK    4  A    between atoms: O_7  and  C_8
REMARK    5  A    between atoms: C_9  and  C_10
REMARK    6  A    between atoms: C_10  and  C_11
REMARK    7  A    between atoms: C_11  and  N_12
REMARK    8  A    between atoms: C_13  and  C_15
REMARK    9  A    between atoms: C_15  and  C_16
REMARK   10  A    between atoms: C_16  and  C_17
REMARK   11  A    between atoms: N_19  and  C_20
REMARK   12  A    between atoms: C_20  and  C_21
REMARK   13  A    between atoms: C_23  and  C_24
REMARK   14  A    between atoms: C_27  and  C_28
REMARK                            x       y       z     vdW  Elec       q    Type
REMARK                         _______ _______ _______ _____ _____    ______ ____
ROOT
ATOM      1  C   UNL     1       9.308  10.545  18.246  0.00  0.00    +0.000 C 
ENDROOT
BRANCH   1   2
ATOM      2  C   UNL     1       9.637  11.981  17.836  0.00  0.00    +0.000 A 
ATOM      3  C   UNL     1      10.954  12.375  17.581  0.00  0.00    +0.000 A 
ATOM      4  N   UNL     1      11.089  13.531  18.317  0.00  0.00    +0.000 N 
ATOM      5  C   UNL     1       9.939  14.243  18.027  0.00  0.00    +0.000 A 
ATOM      6  C   UNL     1       9.672  15.612  18.178  0.00  0.00    +0.000 A 
ATOM      7  C   UNL     1       8.347  16.019  18.133  0.00  0.00    +0.000 A 
ATOM      8  C   UNL     1       7.330  15.095  17.851  0.00  0.00    +0.000 A 
ATOM      9  C   UNL     1       7.618  13.724  17.604  0.00  0.00    +0.000 A 
ATOM     10  C   UNL     1       8.976  13.272  17.716  0.00  0.00    +0.000 A 
BRANCH   4  11
ATOM     11  C   UNL     1      11.685  13.596  19.674  0.00  0.00    +0.000 C 
BRANCH  11  12
ATOM     12  C   UNL     1      10.698  13.802  20.796  0.00  0.00    +0.000 A 
ATOM     13  C   UNL     1       9.864  12.739  21.171  0.00  0.00    +0.000 A 
ATOM     14  C   UNL     1       8.953  12.857  22.226  0.00  0.00    +0.000 A 
ATOM     15  C   UNL     1       8.065  11.700  22.573  0.00  0.00    +0.000 C 
ATOM     16  C   UNL     1       8.861  14.064  22.912  0.00  0.00    +0.000 A 
ATOM     17  C   UNL     1       9.639  15.158  22.516  0.00  0.00    +0.000 A 
ATOM     18  C   UNL     1      10.540  15.052  21.445  0.00  0.00    +0.000 A 
ATOM     19  C   UNL     1      11.283  16.291  21.019  0.00  0.00    +0.000 C 
ENDBRANCH  11  12
ENDBRANCH   4  11
ENDBRANCH   1   2
BRANCH   1  20
ATOM     20  C   UNL     1       8.024   9.763  17.940  0.00  0.00    +0.000 C 
BRANCH  20  22
ATOM     21  N   UNL     1       8.391   7.406  18.885  0.00  0.00    +0.000 N 
ATOM     22  C   UNL     1       7.890   8.218  17.875  0.00  0.00    +0.000 C 
ATOM     23  O   UNL     1       7.384   7.717  16.868  0.00  0.00    +0.000 OA
ATOM     24  H   UNL     1       8.788   7.808  19.725  0.00  0.00    +0.000 HD
BRANCH  21  25
ATOM     25  C   UNL     1       8.155   5.943  18.857  0.00  0.00    +0.000 C 
BRANCH  25  26
ATOM     26  C   UNL     1       6.900   5.322  19.578  0.00  0.00    +0.000 C 
BRANCH  26  31
ATOM     27  C   UNL     1       3.149   4.831  18.677  0.00  0.00    +0.000 A 
ATOM     28  C   UNL     1       3.227   4.243  17.418  0.00  0.00    +0.000 A 
ATOM     29  C   UNL     1       4.459   4.130  16.823  0.00  0.00    +0.000 A 
ATOM     30  C   UNL     1       5.611   4.509  17.537  0.00  0.00    +0.000 A 
ATOM     31  C   UNL     1       5.599   4.997  18.839  0.00  0.00    +0.000 A 
ATOM     32  C   UNL     1       4.321   5.196  19.385  0.00  0.00    +0.000 A 
BRANCH  27  34
ATOM     33  C   UNL     1       1.717   4.943  20.531  0.00  0.00    +0.000 C 
ATOM     34  O   UNL     1       1.865   4.975  19.121  0.00  0.00    +0.000 OA
ENDBRANCH  27  34
BRANCH  30  35
ATOM     35  O   UNL     1       6.824   4.176  17.020  0.00  0.00    +0.000 OA
ATOM     36  C   UNL     1       6.629   4.475  15.649  0.00  0.00    +0.000 C 
ENDBRANCH  30  35
ENDBRANCH  26  31
ENDBRANCH  25  26
ENDBRANCH  21  25
ENDBRANCH  20  22
ENDBRANCH   1  20
TORSDOF 10
ENDMDL
MODEL 3
REMARK VINA RESULT:      -8.6      6.543     10.646
REMARK  Name = 
REMARK  14 active torsions:
REMARK  status: ('A' for Active; 'I' for Inactive)
REMARK    1  A    between atoms: C_1  and  O_2
REMARK    2  A    between atoms: O_2  and  C_3
REMARK    3  A    between atoms: C_6  and  O_7
REMARK    4  A    between atoms: O_7  and  C_8
REMARK    5  A    between atoms: C_9  and  C_10
REMARK    6  A    between atoms: C_10  and  C_11
REMARK    7  A    between atoms: C_11  and  N_12
REMARK    8  A    between atoms: C_13  and  C_15
REMARK    9  A    between atoms: C_15  and  C_16
REMARK   10  A    between atoms: C_16  and  C_17
REMARK   11  A    between atoms: N_19  and  C_20
REMARK   12  A    between atoms: C_20  and  C_21
REMARK   13  A    between atoms: C_23  and  C_24
REMARK   14  A    between atoms: C_27  and  C_28
REMARK                            x       y       z     vdW  Elec       q    Type
REMARK                         _______ _______ _______ _____ _____    ______ ____
ROOT
ATOM      1  C   UNL     1       3.124   6.723  17.518  0.00  0.00    +0.000 C 
ENDROOT
BRANCH   1   2
ATOM      2  C   UNL     1       2.975   5.645  18.592  0.00  0.00    +0.000 A 
ATOM      3  C   UNL     1       3.855   5.580  19.678  0.00  0.00    +0.000 A 
ATOM      4  N   UNL     1       4.231   4.256  19.705  0.00  0.00    +0.000 N 
ATOM      5  C   UNL     1       3.038   3.571  19.563  0.00  0.00    +0.000 A 
ATOM      6  C   UNL     1       2.729   2.238  19.873  0.00  0.00    +0.000 A 
ATOM      7  C   UNL     1       1.571   1.702  19.330  0.00  0.00    +0.000 A 
ATOM      8  C   UNL     1       0.701   2.506  18.578  0.00  0.00    +0.000 A 
ATOM      9  C   UNL     1       0.974   3.883  18.348  0.00  0.00    +0.000 A 
ATOM     10  C   UNL     1       2.202   4.437  18.843  0.00  0.00    +0.000 A 
BRANCH   4  11
ATOM     11  C   UNL     1       5.475   3.725  19.095  0.00  0.00    +0.000 C 
BRANCH  11  12
ATOM     12  C   UNL     1       5.932   4.444  17.850  0.00  0.00    +0.000 A 
ATOM     13  C   UNL     1       5.459   4.011  16.603  0.00  0.00    +0.000 A 
ATOM     14  C   UNL     1       5.819   4.658  15.416  0.00  0.00    +0.000 A 
ATOM     15  C   UNL     1       5.309   4.142  14.104  0.00  0.00    +0.000 C 
ATOM     16  C   UNL     1       6.679   5.751  15.473  0.00  0.00    +0.000 A 
ATOM     17  C   UNL     1       7.213   6.162  16.699  0.00  0.00    +0.000 A 
ATOM     18  C   UNL     1       6.872   5.504  17.891  0.00  0.00    +0.000 A 
ATOM     19  C   UNL     1       7.547   5.946  19.163  0.00  0.00    +0.000 C 
ENDBRANCH  11  12
ENDBRANCH   4  11
ENDBRANCH   1   2
BRANCH   1  20
ATOM     20  C   UNL     1       2.880   8.229  17.676  0.00  0.00    +0.000 C 
BRANCH  20  22
ATOM     21  N   UNL     1       0.921   9.862  17.947  0.00  0.00    +0.000 N 
ATOM     22  C   UNL     1       1.743   8.889  18.500  0.00  0.00    +0.000 C 
ATOM     23  O   UNL     1       1.626   8.578  19.689  0.00  0.00    +0.000 OA
ATOM     24  H   UNL     1       0.994  10.108  16.969  0.00  0.00    +0.000 HD
BRANCH  21  25
ATOM     25  C   UNL     1      -0.227  10.400  18.717  0.00  0.00    +0.000 C 
BRANCH  25  26
ATOM     26  C   UNL     1      -1.037  11.641  18.182  0.00  0.00    +0.000 C 
BRANCH  26  31
ATOM     27  C   UNL     1      -4.817  12.031  19.004  0.00  0.00    +0.000 A 
ATOM     28  C   UNL     1      -5.419  11.516  17.859  0.00  0.00    +0.000 A 
ATOM     29  C   UNL     1      -4.619  11.173  16.798  0.00  0.00    +0.000 A 
ATOM     30  C   UNL     1      -3.220  11.250  16.930  0.00  0.00    +0.000 A 
ATOM     31  C   UNL     1      -2.565  11.651  18.088  0.00  0.00    +0.000 A 
ATOM     32  C   UNL     1      -3.406  12.090  19.122  0.00  0.00    +0.000 A 
BRANCH  27  34
ATOM     33  C   UNL     1      -5.184  12.584  21.253  0.00  0.00    +0.000 C 
ATOM     34  O   UNL     1      -5.721  12.425  19.951  0.00  0.00    +0.000 OA
ENDBRANCH  27  34
BRANCH  30  35
ATOM     35  O   UNL     1      -2.452  10.692  15.955  0.00  0.00    +0.000 OA
ATOM     36  C   UNL     1      -3.403  10.531  14.916  0.00  0.00    +0.000 C 
ENDBRANCH  30  35
ENDBRANCH  26  31
ENDBRANCH  25  26
ENDBRANCH  21  25
ENDBRANCH  20  22
ENDBRANCH   1  20
TORSDOF 10
ENDMDL
MODEL 4
REMARK VINA RESULT:      -8.5      6.446     10.226
REMARK  Name = 
REMARK  14 active torsions:
REMARK  status: ('A' for Active; 'I' for Inactive)
REMARK    1  A    between atoms: C_1  and  O_2
REMARK    2  A    between atoms: O_2  and  C_3
REMARK    3  A    between atoms: C_6  and  O_7
REMARK    4  A    between atoms: O_7  and  C_8
REMARK    5  A    between atoms: C_9  and  C_10
REMARK    6  A    between atoms: C_10  and  C_11
REMARK    7  A    between atoms: C_11  and  N_12
REMARK    8  A    between atoms: C_13  and  C_15
REMARK    9  A    between atoms: C_15  and  C_16
REMARK   10  A    between atoms: C_16  and  C_17
REMARK   11  A    between atoms: N_19  and  C_20
REMARK   12  A    between atoms: C_20  and  C_21
REMARK   13  A    between atoms: C_23  and  C_24
REMARK   14  A    between atoms: C_27  and  C_28
REMARK                            x       y       z     vdW  Elec       q    Type
REMARK                         _______ _______ _______ _____ _____    ______ ____
ROOT
ATOM      1  C   UNL     1       3.415   6.963  17.478  0.00  0.00    +0.000 C 
ENDROOT
BRANCH   1   2
ATOM      2  C   UNL     1       3.156   5.891  18.537  0.00  0.00    +0.000 A 
ATOM      3  C   UNL     1       3.951   5.801  19.683  0.00  0.00    +0.000 A 
ATOM      4  N   UNL     1       4.284   4.466  19.737  0.00  0.00    +0.000 N 
ATOM      5  C   UNL     1       3.084   3.818  19.508  0.00  0.00    +0.000 A 
ATOM      6  C   UNL     1       2.713   2.495  19.793  0.00  0.00    +0.000 A 
ATOM      7  C   UNL     1       1.582   1.995  19.167  0.00  0.00    +0.000 A 
ATOM      8  C   UNL     1       0.793   2.824  18.355  0.00  0.00    +0.000 A 
ATOM      9  C   UNL     1       1.124   4.191  18.146  0.00  0.00    +0.000 A 
ATOM     10  C   UNL     1       2.330   4.708  18.729  0.00  0.00    +0.000 A 
BRANCH   4  11
ATOM     11  C   UNL     1       5.552   3.896  19.218  0.00  0.00    +0.000 C 
BRANCH  11  12
ATOM     12  C   UNL     1       6.065   4.531  17.949  0.00  0.00    +0.000 A 
ATOM     13  C   UNL     1       5.575   4.075  16.716  0.00  0.00    +0.000 A 
ATOM     14  C   UNL     1       5.985   4.647  15.507  0.00  0.00    +0.000 A 
ATOM     15  C   UNL     1       5.453   4.109  14.213  0.00  0.00    +0.000 C 
ATOM     16  C   UNL     1       6.913   5.684  15.527  0.00  0.00    +0.000 A 
ATOM     17  C   UNL     1       7.462   6.113  16.740  0.00  0.00    +0.000 A 
ATOM     18  C   UNL     1       7.070   5.530  17.955  0.00  0.00    +0.000 A 
ATOM     19  C   UNL     1       7.762   5.982  19.214  0.00  0.00    +0.000 C 
ENDBRANCH  11  12
ENDBRANCH   4  11
ENDBRANCH   1   2
BRANCH   1  20
ATOM     20  C   UNL     1       2.612   8.248  17.242  0.00  0.00    +0.000 C 
BRANCH  20  22
ATOM     21  N   UNL     1       1.419  10.361  18.074  0.00  0.00    +0.000 N 
ATOM     22  C   UNL     1       1.867   9.071  18.327  0.00  0.00    +0.000 C 
ATOM     23  O   UNL     1       1.739   8.577  19.451  0.00  0.00    +0.000 OA
ATOM     24  H   UNL     1       1.500  10.767  17.150  0.00  0.00    +0.000 HD
BRANCH  21  25
ATOM     25  C   UNL     1       0.615  11.087  19.086  0.00  0.00    +0.000 C 
BRANCH  25  26
ATOM     26  C   UNL     1      -0.822  10.575  19.482  0.00  0.00    +0.000 C 
BRANCH  26  31
ATOM     27  C   UNL     1      -3.240  10.104  16.474  0.00  0.00    +0.000 A 
ATOM     28  C   UNL     1      -4.255  11.009  16.772  0.00  0.00    +0.000 A 
ATOM     29  C   UNL     1      -4.219  11.658  17.981  0.00  0.00    +0.000 A 
ATOM     30  C   UNL     1      -3.115  11.474  18.834  0.00  0.00    +0.000 A 
ATOM     31  C   UNL     1      -2.022  10.669  18.536  0.00  0.00    +0.000 A 
ATOM     32  C   UNL     1      -2.130   9.942  17.340  0.00  0.00    +0.000 A 
BRANCH  27  34
ATOM     33  C   UNL     1      -3.188  10.235  14.133  0.00  0.00    +0.000 C 
ATOM     34  O   UNL     1      -3.436   9.452  15.289  0.00  0.00    +0.000 OA
ENDBRANCH  27  34
BRANCH  30  35
ATOM     35  O   UNL     1      -2.994  12.296  19.912  0.00  0.00    +0.000 OA
ATOM     36  C   UNL     1      -4.290  12.866  19.968  0.00  0.00    +0.000 C 
ENDBRANCH  30  35
ENDBRANCH  26  31
ENDBRANCH  25  26
ENDBRANCH  21  25
ENDBRANCH  20  22
ENDBRANCH   1  20
TORSDOF 10
ENDMDL
MODEL 5
REMARK VINA RESULT:      -8.4      1.593      2.918
REMARK  Name = 
REMARK  14 active torsions:
REMARK  status: ('A' for Active; 'I' for Inactive)
REMARK    1  A    between atoms: C_1  and  O_2
REMARK    2  A    between atoms: O_2  and  C_3
REMARK    3  A    between atoms: C_6  and  O_7
REMARK    4  A    between atoms: O_7  and  C_8
REMARK    5  A    between atoms: C_9  and  C_10
REMARK    6  A    between atoms: C_10  and  C_11
REMARK    7  A    between atoms: C_11  and  N_12
REMARK    8  A    between atoms: C_13  and  C_15
REMARK    9  A    between atoms: C_15  and  C_16
REMARK   10  A    between atoms: C_16  and  C_17
REMARK   11  A    between atoms: N_19  and  C_20
REMARK   12  A    between atoms: C_20  and  C_21
REMARK   13  A    between atoms: C_23  and  C_24
REMARK   14  A    between atoms: C_27  and  C_28
REMARK                            x       y       z     vdW  Elec       q    Type
REMARK                         _______ _______ _______ _____ _____    ______ ____
ROOT
ATOM      1  C   UNL     1       9.427  10.616  18.293  0.00  0.00    +0.000 C 
ENDROOT
BRANCH   1   2
ATOM      2  C   UNL     1       9.698  12.050  17.838  0.00  0.00    +0.000 A 
ATOM      3  C   UNL     1      10.996  12.483  17.548  0.00  0.00    +0.000 A 
ATOM      4  N   UNL     1      11.103  13.663  18.250  0.00  0.00    +0.000 N 
ATOM      5  C   UNL     1       9.924  14.326  17.962  0.00  0.00    +0.000 A 
ATOM      6  C   UNL     1       9.613  15.689  18.081  0.00  0.00    +0.000 A 
ATOM      7  C   UNL     1       8.274  16.048  18.050  0.00  0.00    +0.000 A 
ATOM      8  C   UNL     1       7.285  15.082  17.811  0.00  0.00    +0.000 A 
ATOM      9  C   UNL     1       7.616  13.716  17.597  0.00  0.00    +0.000 A 
ATOM     10  C   UNL     1       8.991  13.314  17.695  0.00  0.00    +0.000 A 
BRANCH   4  11
ATOM     11  C   UNL     1      11.721  13.786  19.594  0.00  0.00    +0.000 C 
BRANCH  11  12
ATOM     12  C   UNL     1      10.745  13.944  20.733  0.00  0.00    +0.000 A 
ATOM     13  C   UNL     1       9.943  12.852  21.097  0.00  0.00    +0.000 A 
ATOM     14  C   UNL     1       9.045  12.926  22.167  0.00  0.00    +0.000 A 
ATOM     15  C   UNL     1       8.190  11.741  22.503  0.00  0.00    +0.000 C 
ATOM     16  C   UNL     1       8.932  14.117  22.879  0.00  0.00    +0.000 A 
ATOM     17  C   UNL     1       9.676  15.238  22.494  0.00  0.00    +0.000 A 
ATOM     18  C   UNL     1      10.564  15.177  21.409  0.00  0.00    +0.000 A 
ATOM     19  C   UNL     1      11.270  16.442  20.998  0.00  0.00    +0.000 C 
ENDBRANCH  11  12
ENDBRANCH   4  11
ENDBRANCH   1   2
BRANCH   1  20
ATOM     20  C   UNL     1       8.174   9.775  18.016  0.00  0.00    +0.000 C 
BRANCH  20  22
ATOM     21  N   UNL     1       8.449   7.478  19.126  0.00  0.00    +0.000 N 
ATOM     22  C   UNL     1       8.098   8.225  18.008  0.00  0.00    +0.000 C 
ATOM     23  O   UNL     1       7.782   7.660  16.957  0.00  0.00    +0.000 OA
ATOM     24  H   UNL     1       8.688   7.932  19.998  0.00  0.00    +0.000 HD
BRANCH  21  25
ATOM     25  C   UNL     1       8.265   6.008  19.132  0.00  0.00    +0.000 C 
BRANCH  25  26
ATOM     26  C   UNL     1       6.819   5.384  19.183  0.00  0.00    +0.000 C 
BRANCH  26  31
ATOM     27  C   UNL     1       6.085   4.067  15.599  0.00  0.00    +0.000 A 
ATOM     28  C   UNL     1       4.718   3.812  15.656  0.00  0.00    +0.000 A 
ATOM     29  C   UNL     1       4.079   3.940  16.864  0.00  0.00    +0.000 A 
ATOM     30  C   UNL     1       4.791   4.423  17.978  0.00  0.00    +0.000 A 
ATOM     31  C   UNL     1       6.129   4.798  17.948  0.00  0.00    +0.000 A 
ATOM     32  C   UNL     1       6.783   4.563  16.728  0.00  0.00    +0.000 A 
BRANCH  27  34
ATOM     33  C   UNL     1       5.686   3.754  13.309  0.00  0.00    +0.000 C 
ATOM     34  O   UNL     1       6.625   3.812  14.369  0.00  0.00    +0.000 OA
ENDBRANCH  27  34
BRANCH  30  35
ATOM     35  O   UNL     1       4.086   4.756  19.093  0.00  0.00    +0.000 OA
ATOM     36  C   UNL     1       2.780   4.354  18.722  0.00  0.00    +0.000 C 
ENDBRANCH  30  35
ENDBRANCH  26  31
ENDBRANCH  25  26
ENDBRANCH  21  25
ENDBRANCH  20  22
ENDBRANCH   1  20
TORSDOF 10
ENDMDL
MODEL 6
REMARK VINA RESULT:      -8.2      1.734      2.764
REMARK  Name = 
REMARK  14 active torsions:
REMARK  status: ('A' for Active; 'I' for Inactive)
REMARK    1  A    between atoms: C_1  and  O_2
REMARK    2  A    between atoms: O_2  and  C_3
REMARK    3  A    between atoms: C_6  and  O_7
REMARK    4  A    between atoms: O_7  and  C_8
REMARK    5  A    between atoms: C_9  and  C_10
REMARK    6  A    between atoms: C_10  and  C_11
REMARK    7  A    between atoms: C_11  and  N_12
REMARK    8  A    between atoms: C_13  and  C_15
REMARK    9  A    between atoms: C_15  and  C_16
REMARK   10  A    between atoms: C_16  and  C_17
REMARK   11  A    between atoms: N_19  and  C_20
REMARK   12  A    between atoms: C_20  and  C_21
REMARK   13  A    between atoms: C_23  and  C_24
REMARK   14  A    between atoms: C_27  and  C_28
REMARK                            x       y       z     vdW  Elec       q    Type
REMARK                         _______ _______ _______ _____ _____    ______ ____
ROOT
ATOM      1  C   UNL     1       9.143   9.843  19.326  0.00  0.00    +0.000 C 
ENDROOT
BRANCH   1   2
ATOM      2  C   UNL     1       9.993  11.107  19.457  0.00  0.00    +0.000 A 
ATOM      3  C   UNL     1      10.269  11.665  20.709  0.00  0.00    +0.000 A 
ATOM      4  N   UNL     1       9.964  12.997  20.538  0.00  0.00    +0.000 N 
ATOM      5  C   UNL     1      10.564  13.321  19.335  0.00  0.00    +0.000 A 
ATOM      6  C   UNL     1      10.911  14.579  18.819  0.00  0.00    +0.000 A 
ATOM      7  C   UNL     1      11.190  14.663  17.463  0.00  0.00    +0.000 A 
ATOM      8  C   UNL     1      11.215  13.506  16.670  0.00  0.00    +0.000 A 
ATOM      9  C   UNL     1      10.956  12.221  17.221  0.00  0.00    +0.000 A 
ATOM     10  C   UNL     1      10.596  12.123  18.607  0.00  0.00    +0.000 A 
BRANCH   4  11
ATOM     11  C   UNL     1       8.670  13.617  20.918  0.00  0.00    +0.000 C 
BRANCH  11  12
ATOM     12  C   UNL     1       8.352  13.578  22.392  0.00  0.00    +0.000 A 
ATOM     13  C   UNL     1       7.435  12.629  22.865  0.00  0.00    +0.000 A 
ATOM     14  C   UNL     1       7.126  12.520  24.225  0.00  0.00    +0.000 A 
ATOM     15  C   UNL     1       6.119  11.506  24.679  0.00  0.00    +0.000 C 
ATOM     16  C   UNL     1       7.733  13.385  25.131  0.00  0.00    +0.000 A 
ATOM     17  C   UNL     1       8.604  14.381  24.675  0.00  0.00    +0.000 A 
ATOM     18  C   UNL     1       8.902  14.508  23.310  0.00  0.00    +0.000 A 
ATOM     19  C   UNL     1       9.781  15.653  22.880  0.00  0.00    +0.000 C 
ENDBRANCH  11  12
ENDBRANCH   4  11
ENDBRANCH   1   2
BRANCH   1  20
ATOM     20  C   UNL     1       8.631   9.198  18.032  0.00  0.00    +0.000 C 
BRANCH  20  22
ATOM     21  N   UNL     1       6.579   7.882  17.232  0.00  0.00    +0.000 N 
ATOM     22  C   UNL     1       7.780   7.904  17.931  0.00  0.00    +0.000 C 
ATOM     23  O   UNL     1       8.161   6.904  18.545  0.00  0.00    +0.000 OA
ATOM     24  H   UNL     1       6.270   8.690  16.707  0.00  0.00    +0.000 HD
BRANCH  21  25
ATOM     25  C   UNL     1       5.839   6.610  17.056  0.00  0.00    +0.000 C 
BRANCH  25  26
ATOM     26  C   UNL     1       4.267   6.579  17.166  0.00  0.00    +0.000 C 
BRANCH  26  31
ATOM     27  C   UNL     1       2.834   3.593  19.202  0.00  0.00    +0.000 A 
ATOM     28  C   UNL     1       2.012   4.236  20.123  0.00  0.00    +0.000 A 
ATOM     29  C   UNL     1       2.025   5.608  20.166  0.00  0.00    +0.000 A 
ATOM     30  C   UNL     1       2.779   6.324  19.218  0.00  0.00    +0.000 A 
ATOM     31  C   UNL     1       3.529   5.734  18.207  0.00  0.00    +0.000 A 
ATOM     32  C   UNL     1       3.577   4.331  18.248  0.00  0.00    +0.000 A 
BRANCH  27  34
ATOM     33  C   UNL     1       3.651   1.540  18.417  0.00  0.00    +0.000 C 
ATOM     34  O   UNL     1       2.806   2.231  19.321  0.00  0.00    +0.000 OA
ENDBRANCH  27  34
BRANCH  30  35
ATOM     35  O   UNL     1       2.596   7.670  19.137  0.00  0.00    +0.000 OA
ATOM     36  C   UNL     1       1.731   7.895  20.236  0.00  0.00    +0.000 C 
ENDBRANCH  30  35
ENDBRANCH  26  31
ENDBRANCH  25  26
ENDBRANCH  21  25
ENDBRANCH  20  22
ENDBRANCH   1  20
TORSDOF 10
ENDMDL
MODEL 7
REMARK VINA RESULT:      -8.2      3.042     10.163
REMARK  Name = 
REMARK  14 active torsions:
REMARK  status: ('A' for Active; 'I' for Inactive)
REMARK    1  A    between atoms: C_1  and  O_2
REMARK    2  A    between atoms: O_2  and  C_3
REMARK    3  A    between atoms: C_6  and  O_7
REMARK    4  A    between atoms: O_7  and  C_8
REMARK    5  A    between atoms: C_9  and  C_10
REMARK    6  A    between atoms: C_10  and  C_11
REMARK    7  A    between atoms: C_11  and  N_12
REMARK    8  A    between atoms: C_13  and  C_15
REMARK    9  A    between atoms: C_15  and  C_16
REMARK   10  A    between atoms: C_16  and  C_17
REMARK   11  A    between atoms: N_19  and  C_20
REMARK   12  A    between atoms: C_20  and  C_21
REMARK   13  A    between atoms: C_23  and  C_24
REMARK   14  A    between atoms: C_27  and  C_28
REMARK                            x       y       z     vdW  Elec       q    Type
REMARK                         _______ _______ _______ _____ _____    ______ ____
ROOT
ATOM      1  C   UNL     1       6.111   4.858  18.776  0.00  0.00    +0.000 C 
ENDROOT
BRANCH   1   2
ATOM      2  C   UNL     1       4.583   4.800  18.812  0.00  0.00    +0.000 A 
ATOM      3  C   UNL     1       3.808   5.767  18.163  0.00  0.00    +0.000 A 
ATOM      4  N   UNL     1       2.898   6.144  19.125  0.00  0.00    +0.000 N 
ATOM      5  C   UNL     1       2.457   4.943  19.650  0.00  0.00    +0.000 A 
ATOM      6  C   UNL     1       1.295   4.662  20.386  0.00  0.00    +0.000 A 
ATOM      7  C   UNL     1       1.249   3.463  21.080  0.00  0.00    +0.000 A 
ATOM      8  C   UNL     1       2.293   2.533  20.964  0.00  0.00    +0.000 A 
ATOM      9  C   UNL     1       3.424   2.785  20.141  0.00  0.00    +0.000 A 
ATOM     10  C   UNL     1       3.524   4.051  19.470  0.00  0.00    +0.000 A 
BRANCH   4  11
ATOM     11  C   UNL     1       3.048   7.333  20.000  0.00  0.00    +0.000 C 
BRANCH  11  12
ATOM     12  C   UNL     1       1.842   8.237  20.061  0.00  0.00    +0.000 A 
ATOM     13  C   UNL     1       1.129   8.337  21.265  0.00  0.00    +0.000 A 
ATOM     14  C   UNL     1       0.023   9.185  21.394  0.00  0.00    +0.000 A 
ATOM     15  C   UNL     1      -0.723   9.239  22.694  0.00  0.00    +0.000 C 
ATOM     16  C   UNL     1      -0.389   9.936  20.298  0.00  0.00    +0.000 A 
ATOM     17  C   UNL     1       0.269   9.804  19.069  0.00  0.00    +0.000 A 
ATOM     18  C   UNL     1       1.366   8.941  18.927  0.00  0.00    +0.000 A 
ATOM     19  C   UNL     1       1.973   8.786  17.558  0.00  0.00    +0.000 C 
ENDBRANCH  11  12
ENDBRANCH   4  11
ENDBRANCH   1   2
BRANCH   1  20
ATOM     20  C   UNL     1       6.990   5.521  17.708  0.00  0.00    +0.000 C 
BRANCH  20  22
ATOM     21  N   UNL     1       8.070   7.800  18.175  0.00  0.00    +0.000 N 
ATOM     22  C   UNL     1       7.142   7.046  17.468  0.00  0.00    +0.000 C 
ATOM     23  O   UNL     1       6.368   7.594  16.678  0.00  0.00    +0.000 OA
ATOM     24  H   UNL     1       8.724   7.357  18.808  0.00  0.00    +0.000 HD
BRANCH  21  25
ATOM     25  C   UNL     1       8.274   9.232  17.852  0.00  0.00    +0.000 C 
BRANCH  25  26
ATOM     26  C   UNL     1       9.124  10.153  18.808  0.00  0.00    +0.000 C 
BRANCH  26  31
ATOM     27  C   UNL     1       8.630  13.914  17.954  0.00  0.00    +0.000 A 
ATOM     28  C   UNL     1       9.943  14.369  17.871  0.00  0.00    +0.000 A 
ATOM     29  C   UNL     1      10.956  13.509  18.212  0.00  0.00    +0.000 A 
ATOM     30  C   UNL     1      10.653  12.172  18.530  0.00  0.00    +0.000 A 
ATOM     31  C   UNL     1       9.370  11.637  18.520  0.00  0.00    +0.000 A 
ATOM     32  C   UNL     1       8.345  12.562  18.265  0.00  0.00    +0.000 A 
BRANCH  27  34
ATOM     33  C   UNL     1       6.359  14.462  17.749  0.00  0.00    +0.000 C 
ATOM     34  O   UNL     1       7.709  14.888  17.684  0.00  0.00    +0.000 OA
ENDBRANCH  27  34
BRANCH  30  35
ATOM     35  O   UNL     1      11.683  11.289  18.639  0.00  0.00    +0.000 OA
ATOM     36  C   UNL     1      12.332  11.767  19.804  0.00  0.00    +0.000 C 
ENDBRANCH  30  35
ENDBRANCH  26  31
ENDBRANCH  25  26
ENDBRANCH  21  25
ENDBRANCH  20  22
ENDBRANCH   1  20
TORSDOF 10
ENDMDL
MODEL 8
REMARK VINA RESULT:      -8.1      5.471     10.236
REMARK  Name = 
REMARK  14 active torsions:
REMARK  status: ('A' for Active; 'I' for Inactive)
REMARK    1  A    between atoms: C_1  and  O_2
REMARK    2  A    between atoms: O_2  and  C_3
REMARK    3  A    between atoms: C_6  and  O_7
REMARK    4  A    between atoms: O_7  and  C_8
REMARK    5  A    between atoms: C_9  and  C_10
REMARK    6  A    between atoms: C_10  and  C_11
REMARK    7  A    between atoms: C_11  and  N_12
REMARK    8  A    between atoms: C_13  and  C_15
REMARK    9  A    between atoms: C_15  and  C_16
REMARK   10  A    between atoms: C_16  and  C_17
REMARK   11  A    between atoms: N_19  and  C_20
REMARK   12  A    between atoms: C_20  and  C_21
REMARK   13  A    between atoms: C_23  and  C_24
REMARK   14  A    between atoms: C_27  and  C_28
REMARK                            x       y       z     vdW  Elec       q    Type
REMARK                         _______ _______ _______ _____ _____    ______ ____
ROOT
ATOM      1  C   UNL     1       2.745   6.872  17.606  0.00  0.00    +0.000 C 
ENDROOT
BRANCH   1   2
ATOM      2  C   UNL     1       2.670   5.799  18.693  0.00  0.00    +0.000 A 
ATOM      3  C   UNL     1       3.498   5.854  19.819  0.00  0.00    +0.000 A 
ATOM      4  N   UNL     1       4.022   4.582  19.891  0.00  0.00    +0.000 N 
ATOM      5  C   UNL     1       2.924   3.762  19.708  0.00  0.00    +0.000 A 
ATOM      6  C   UNL     1       2.756   2.407  20.031  0.00  0.00    +0.000 A 
ATOM      7  C   UNL     1       1.695   1.732  19.445  0.00  0.00    +0.000 A 
ATOM      8  C   UNL     1       0.776   2.419  18.638  0.00  0.00    +0.000 A 
ATOM      9  C   UNL     1       0.899   3.814  18.393  0.00  0.00    +0.000 A 
ATOM     10  C   UNL     1       2.030   4.515  18.932  0.00  0.00    +0.000 A 
BRANCH   4  11
ATOM     11  C   UNL     1       5.347   4.190  19.350  0.00  0.00    +0.000 C 
BRANCH  11  12
ATOM     12  C   UNL     1       5.828   5.013  18.181  0.00  0.00    +0.000 A 
ATOM     13  C   UNL     1       6.590   6.164  18.428  0.00  0.00    +0.000 A 
ATOM     14  C   UNL     1       7.094   6.949  17.386  0.00  0.00    +0.000 A 
ATOM     15  C   UNL     1       7.881   8.186  17.700  0.00  0.00    +0.000 C 
ATOM     16  C   UNL     1       6.820   6.587  16.070  0.00  0.00    +0.000 A 
ATOM     17  C   UNL     1       6.010   5.478  15.800  0.00  0.00    +0.000 A 
ATOM     18  C   UNL     1       5.485   4.699  16.842  0.00  0.00    +0.000 A 
ATOM     19  C   UNL     1       4.554   3.570  16.483  0.00  0.00    +0.000 C 
ENDBRANCH  11  12
ENDBRANCH   4  11
ENDBRANCH   1   2
BRANCH   1  20
ATOM     20  C   UNL     1       2.905   8.384  17.803  0.00  0.00    +0.000 C 
BRANCH  20  22
ATOM     21  N   UNL     1       1.984  10.670  18.517  0.00  0.00    +0.000 N 
ATOM     22  C   UNL     1       1.753   9.408  17.985  0.00  0.00    +0.000 C 
ATOM     23  O   UNL     1       0.604   9.051  17.707  0.00  0.00    +0.000 OA
ATOM     24  H   UNL     1       2.925  10.979  18.727  0.00  0.00    +0.000 HD
BRANCH  21  25
ATOM     25  C   UNL     1       0.891  11.669  18.580  0.00  0.00    +0.000 C 
BRANCH  25  26
ATOM     26  C   UNL     1       0.671  12.532  19.880  0.00  0.00    +0.000 C 
BRANCH  26  31
ATOM     27  C   UNL     1      -2.309  12.309  22.368  0.00  0.00    +0.000 A 
ATOM     28  C   UNL     1      -1.899  11.291  23.223  0.00  0.00    +0.000 A 
ATOM     29  C   UNL     1      -0.748  10.607  22.922  0.00  0.00    +0.000 A 
ATOM     30  C   UNL     1       0.037  11.018  21.828  0.00  0.00    +0.000 A 
ATOM     31  C   UNL     1      -0.268  12.099  21.008  0.00  0.00    +0.000 A 
ATOM     32  C   UNL     1      -1.500  12.716  21.278  0.00  0.00    +0.000 A 
BRANCH  27  34
ATOM     33  C   UNL     1      -3.762  14.143  22.195  0.00  0.00    +0.000 C 
ATOM     34  O   UNL     1      -3.516  12.848  22.718  0.00  0.00    +0.000 OA
ENDBRANCH  27  34
BRANCH  30  35
ATOM     35  O   UNL     1       1.277  10.477  21.690  0.00  0.00    +0.000 OA
ATOM     36  C   UNL     1       0.979   9.093  21.736  0.00  0.00    +0.000 C 
ENDBRANCH  30  35
ENDBRANCH  26  31
ENDBRANCH  25  26
ENDBRANCH  21  25
ENDBRANCH  20  22
ENDBRANCH   1  20
TORSDOF 10
ENDMDL
MODEL 9
REMARK VINA RESULT:      -8.0      2.804     10.425
REMARK  Name = 
REMARK  14 active torsions:
REMARK  status: ('A' for Active; 'I' for Inactive)
REMARK    1  A    between atoms: C_1  and  O_2
REMARK    2  A    between atoms: O_2  and  C_3
REMARK    3  A    between atoms: C_6  and  O_7
REMARK    4  A    between atoms: O_7  and  C_8
REMARK    5  A    between atoms: C_9  and  C_10
REMARK    6  A    between atoms: C_10  and  C_11
REMARK    7  A    between atoms: C_11  and  N_12
REMARK    8  A    between atoms: C_13  and  C_15
REMARK    9  A    between atoms: C_15  and  C_16
REMARK   10  A    between atoms: C_16  and  C_17
REMARK   11  A    between atoms: N_19  and  C_20
REMARK   12  A    between atoms: C_20  and  C_21
REMARK   13  A    between atoms: C_23  and  C_24
REMARK   14  A    between atoms: C_27  and  C_28
REMARK                            x       y       z     vdW  Elec       q    Type
REMARK                         _______ _______ _______ _____ _____    ______ ____
ROOT
ATOM      1  C   UNL     1       6.377   4.991  17.421  0.00  0.00    +0.000 C 
ENDROOT
BRANCH   1   2
ATOM      2  C   UNL     1       4.851   4.918  17.362  0.00  0.00    +0.000 A 
ATOM      3  C   UNL     1       4.080   6.065  17.147  0.00  0.00    +0.000 A 
ATOM      4  N   UNL     1       3.127   5.998  18.138  0.00  0.00    +0.000 N 
ATOM      5  C   UNL     1       2.692   4.686  18.090  0.00  0.00    +0.000 A 
ATOM      6  C   UNL     1       1.510   4.117  18.587  0.00  0.00    +0.000 A 
ATOM      7  C   UNL     1       1.463   2.736  18.710  0.00  0.00    +0.000 A 
ATOM      8  C   UNL     1       2.531   1.946  18.259  0.00  0.00    +0.000 A 
ATOM      9  C   UNL     1       3.687   2.526  17.668  0.00  0.00    +0.000 A 
ATOM     10  C   UNL     1       3.784   3.957  17.597  0.00  0.00    +0.000 A 
BRANCH   4  11
ATOM     11  C   UNL     1       3.217   6.708  19.438  0.00  0.00    +0.000 C 
BRANCH  11  12
ATOM     12  C   UNL     1       2.152   7.751  19.671  0.00  0.00    +0.000 A 
ATOM     13  C   UNL     1       1.395   7.696  20.851  0.00  0.00    +0.000 A 
ATOM     14  C   UNL     1       0.418   8.654  21.141  0.00  0.00    +0.000 A 
ATOM     15  C   UNL     1      -0.384   8.538  22.402  0.00  0.00    +0.000 C 
ATOM     16  C   UNL     1       0.180   9.679  20.230  0.00  0.00    +0.000 A 
ATOM     17  C   UNL     1       0.879   9.718  19.018  0.00  0.00    +0.000 A 
ATOM     18  C   UNL     1       1.847   8.749  18.713  0.00  0.00    +0.000 A 
ATOM     19  C   UNL     1       2.502   8.803  17.357  0.00  0.00    +0.000 C 
ENDBRANCH  11  12
ENDBRANCH   4  11
ENDBRANCH   1   2
BRANCH   1  20
ATOM     20  C   UNL     1       7.229   5.895  18.321  0.00  0.00    +0.000 C 
BRANCH  20  22
ATOM     21  N   UNL     1       8.444   8.082  18.890  0.00  0.00    +0.000 N 
ATOM     22  C   UNL     1       7.629   7.365  18.023  0.00  0.00    +0.000 C 
ATOM     23  O   UNL     1       7.149   7.911  17.026  0.00  0.00    +0.000 OA
ATOM     24  H   UNL     1       8.859   7.637  19.698  0.00  0.00    +0.000 HD
BRANCH  21  25
ATOM     25  C   UNL     1       8.902   9.446  18.533  0.00  0.00    +0.000 C 
BRANCH  25  26
ATOM     26  C   UNL     1       9.672  10.331  19.584  0.00  0.00    +0.000 C 
BRANCH  26  31
ATOM     27  C   UNL     1      10.655  13.711  17.934  0.00  0.00    +0.000 A 
ATOM     28  C   UNL     1      10.674  14.574  19.026  0.00  0.00    +0.000 A 
ATOM     29  C   UNL     1      10.252  14.099  20.243  0.00  0.00    +0.000 A 
ATOM     30  C   UNL     1       9.915  12.739  20.377  0.00  0.00    +0.000 A 
ATOM     31  C   UNL     1       9.986  11.810  19.346  0.00  0.00    +0.000 A 
ATOM     32  C   UNL     1      10.324  12.343  18.091  0.00  0.00    +0.000 A 
BRANCH  27  34
ATOM     33  C   UNL     1      11.375  15.686  16.894  0.00  0.00    +0.000 C 
ATOM     34  O   UNL     1      11.004  14.324  16.763  0.00  0.00    +0.000 OA
ENDBRANCH  27  34
BRANCH  30  35
ATOM     35  O   UNL     1       9.724  12.247  21.631  0.00  0.00    +0.000 OA
ATOM     36  C   UNL     1       8.471  12.821  21.962  0.00  0.00    +0.000 C 
ENDBRANCH  30  35
ENDBRANCH  26  31
ENDBRANCH  25  26
ENDBRANCH  21  25
ENDBRANCH  20  22
ENDBRANCH   1  20
TORSDOF 10
ENDMDL
