MODEL 1
REMARK VINA RESULT:      -6.2      0.000      0.000
REMARK  Name = 
REMARK  2 active torsions:
REMARK  status: ('A' for Active; 'I' for Inactive)
REMARK    1  A    between atoms: C_4  and  S_5
REMARK    2  A    between atoms: S_5  and  C_6
REMARK                            x       y       z     vdW  Elec       q    Type
REMARK                         _______ _______ _______ _____ _____    ______ ____
ROOT
ATOM      1  C   UNL     1       3.321   4.788  17.828  0.00  0.00    +0.000 A 
ATOM      2  C   UNL     1       4.444   3.959  17.691  0.00  0.00    +0.000 A 
ATOM      3  C   UNL     1       5.711   4.506  17.480  0.00  0.00    +0.000 A 
ATOM      4  C   UNL     1       5.866   5.889  17.419  0.00  0.00    +0.000 A 
ATOM      5 CL   UNL     1       7.425   6.558  17.136  0.00  0.00    +0.000 Cl
ATOM      6  C   UNL     1       4.769   6.730  17.580  0.00  0.00    +0.000 A 
ATOM      7  C   UNL     1       3.498   6.183  17.787  0.00  0.00    +0.000 A 
ATOM      8 CL   UNL     1       2.180   7.288  17.977  0.00  0.00    +0.000 Cl
ENDROOT
BRANCH   1   9
ATOM      9  S   UNL     1       1.734   3.987  18.044  0.00  0.00    +0.000 S 
BRANCH   9  13
ATOM     10  O   UNL     1       1.628   2.289  22.152  0.00  0.00    +0.000 OA
ATOM     11  C   UNL     1       1.616   3.150  21.312  0.00  0.00    +0.000 C 
ATOM     12  C   UNL     1       2.591   4.178  20.716  0.00  0.00    +0.000 C 
ATOM     13  C   UNL     1       1.430   4.526  19.758  0.00  0.00    +0.000 C 
ATOM     14  N   UNL     1       0.634   3.544  20.466  0.00  0.00    +0.000 N 
ATOM     15  H   UNL     1      -0.221   3.048  20.279  0.00  0.00    +0.000 HD
ENDBRANCH   9  13
ENDBRANCH   1   9
TORSDOF 2
ENDMDL
MODEL 2
REMARK VINA RESULT:      -6.2      3.844      5.649
REMARK  Name = 
REMARK  2 active torsions:
REMARK  status: ('A' for Active; 'I' for Inactive)
REMARK    1  A    between atoms: C_4  and  S_5
REMARK    2  A    between atoms: S_5  and  C_6
REMARK                            x       y       z     vdW  Elec       q    Type
REMARK                         _______ _______ _______ _____ _____    ______ ____
ROOT
ATOM      1  C   UNL     1       3.275   4.510  18.873  0.00  0.00    +0.000 A 
ATOM      2  C   UNL     1       2.817   5.243  19.977  0.00  0.00    +0.000 A 
ATOM      3  C   UNL     1       2.136   4.610  21.019  0.00  0.00    +0.000 A 
ATOM      4  C   UNL     1       1.920   3.235  20.969  0.00  0.00    +0.000 A 
ATOM      5 CL   UNL     1       1.061   2.462  22.243  0.00  0.00    +0.000 Cl
ATOM      6  C   UNL     1       2.391   2.485  19.896  0.00  0.00    +0.000 A 
ATOM      7  C   UNL     1       3.070   3.119  18.849  0.00  0.00    +0.000 A 
ATOM      8 CL   UNL     1       3.624   2.125  17.547  0.00  0.00    +0.000 Cl
ENDROOT
BRANCH   1   9
ATOM      9  S   UNL     1       4.093   5.423  17.567  0.00  0.00    +0.000 S 
BRANCH   9  13
ATOM     10  O   UNL     1       8.320   4.121  17.107  0.00  0.00    +0.000 OA
ATOM     11  C   UNL     1       7.399   4.745  17.568  0.00  0.00    +0.000 C 
ATOM     12  C   UNL     1       6.804   6.157  17.451  0.00  0.00    +0.000 C 
ATOM     13  C   UNL     1       5.703   5.628  18.395  0.00  0.00    +0.000 C 
ATOM     14  N   UNL     1       6.421   4.370  18.427  0.00  0.00    +0.000 N 
ATOM     15  H   UNL     1       6.200   3.427  18.697  0.00  0.00    +0.000 HD
ENDBRANCH   9  13
ENDBRANCH   1   9
TORSDOF 2
ENDMDL
MODEL 3
REMARK VINA RESULT:      -6.2      4.024      5.615
REMARK  Name = 
REMARK  2 active torsions:
REMARK  status: ('A' for Active; 'I' for Inactive)
REMARK    1  A    between atoms: C_4  and  S_5
REMARK    2  A    between atoms: S_5  and  C_6
REMARK                            x       y       z     vdW  Elec       q    Type
REMARK                         _______ _______ _______ _____ _____    ______ ____
ROOT
ATOM      1  C   UNL     1       3.663   5.103  18.867  0.00  0.00    +0.000 A 
ATOM      2  C   UNL     1       3.901   3.723  18.931  0.00  0.00    +0.000 A 
ATOM      3  C   UNL     1       3.212   2.923  19.845  0.00  0.00    +0.000 A 
ATOM      4  C   UNL     1       2.268   3.499  20.693  0.00  0.00    +0.000 A 
ATOM      5 CL   UNL     1       1.438   2.515  21.833  0.00  0.00    +0.000 Cl
ATOM      6  C   UNL     1       1.997   4.862  20.626  0.00  0.00    +0.000 A 
ATOM      7  C   UNL     1       2.691   5.665  19.713  0.00  0.00    +0.000 A 
ATOM      8 CL   UNL     1       2.304   7.350  19.687  0.00  0.00    +0.000 Cl
ENDROOT
BRANCH   1   9
ATOM      9  S   UNL     1       4.635   6.047  17.695  0.00  0.00    +0.000 S 
BRANCH   9  13
ATOM     10  O   UNL     1       7.672   5.272  14.542  0.00  0.00    +0.000 OA
ATOM     11  C   UNL     1       6.947   5.011  15.466  0.00  0.00    +0.000 C 
ATOM     12  C   UNL     1       7.060   4.814  16.986  0.00  0.00    +0.000 C 
ATOM     13  C   UNL     1       5.525   4.646  16.945  0.00  0.00    +0.000 C 
ATOM     14  N   UNL     1       5.609   4.809  15.507  0.00  0.00    +0.000 N 
ATOM     15  H   UNL     1       4.955   5.020  14.773  0.00  0.00    +0.000 HD
ENDBRANCH   9  13
ENDBRANCH   1   9
TORSDOF 2
ENDMDL
MODEL 4
REMARK VINA RESULT:      -6.1      2.791      3.205
REMARK  Name = 
REMARK  2 active torsions:
REMARK  status: ('A' for Active; 'I' for Inactive)
REMARK    1  A    between atoms: C_4  and  S_5
REMARK    2  A    between atoms: S_5  and  C_6
REMARK                            x       y       z     vdW  Elec       q    Type
REMARK                         _______ _______ _______ _____ _____    ______ ____
ROOT
ATOM      1  C   UNL     1       5.117   4.932  17.832  0.00  0.00    +0.000 A 
ATOM      2  C   UNL     1       4.500   4.596  16.618  0.00  0.00    +0.000 A 
ATOM      3  C   UNL     1       5.221   4.617  15.423  0.00  0.00    +0.000 A 
ATOM      4  C   UNL     1       6.571   4.962  15.436  0.00  0.00    +0.000 A 
ATOM      5 CL   UNL     1       7.451   5.008  13.959  0.00  0.00    +0.000 Cl
ATOM      6  C   UNL     1       7.209   5.272  16.633  0.00  0.00    +0.000 A 
ATOM      7  C   UNL     1       6.486   5.255  17.831  0.00  0.00    +0.000 A 
ATOM      8 CL   UNL     1       7.343   5.654  19.280  0.00  0.00    +0.000 Cl
ENDROOT
BRANCH   1   9
ATOM      9  S   UNL     1       4.093   4.924  19.301  0.00  0.00    +0.000 S 
BRANCH   9  13
ATOM     10  O   UNL     1       5.400   1.271  21.473  0.00  0.00    +0.000 OA
ATOM     11  C   UNL     1       4.725   1.931  20.727  0.00  0.00    +0.000 C 
ATOM     12  C   UNL     1       3.354   2.624  20.739  0.00  0.00    +0.000 C 
ATOM     13  C   UNL     1       3.747   3.135  19.336  0.00  0.00    +0.000 C 
ATOM     14  N   UNL     1       4.977   2.383  19.475  0.00  0.00    +0.000 N 
ATOM     15  H   UNL     1       5.871   2.383  19.014  0.00  0.00    +0.000 HD
ENDBRANCH   9  13
ENDBRANCH   1   9
TORSDOF 2
ENDMDL
MODEL 5
REMARK VINA RESULT:      -6.1      3.585      5.315
REMARK  Name = 
REMARK  2 active torsions:
REMARK  status: ('A' for Active; 'I' for Inactive)
REMARK    1  A    between atoms: C_4  and  S_5
REMARK    2  A    between atoms: S_5  and  C_6
REMARK                            x       y       z     vdW  Elec       q    Type
REMARK                         _______ _______ _______ _____ _____    ______ ____
ROOT
ATOM      1  C   UNL     1       3.191   4.619  18.759  0.00  0.00    +0.000 A 
ATOM      2  C   UNL     1       3.194   3.217  18.809  0.00  0.00    +0.000 A 
ATOM      3  C   UNL     1       2.546   2.539  19.843  0.00  0.00    +0.000 A 
ATOM      4  C   UNL     1       1.878   3.260  20.830  0.00  0.00    +0.000 A 
ATOM      5 CL   UNL     1       1.101   2.423  22.116  0.00  0.00    +0.000 Cl
ATOM      6  C   UNL     1       1.839   4.651  20.785  0.00  0.00    +0.000 A 
ATOM      7  C   UNL     1       2.491   5.331  19.750  0.00  0.00    +0.000 A 
ATOM      8 CL   UNL     1       2.403   7.058  19.758  0.00  0.00    +0.000 Cl
ENDROOT
BRANCH   1   9
ATOM      9  S   UNL     1       4.093   5.393  17.420  0.00  0.00    +0.000 S 
BRANCH   9  13
ATOM     10  O   UNL     1       8.346   4.122  17.167  0.00  0.00    +0.000 OA
ATOM     11  C   UNL     1       7.402   4.749  17.572  0.00  0.00    +0.000 C 
ATOM     12  C   UNL     1       6.800   6.151  17.392  0.00  0.00    +0.000 C 
ATOM     13  C   UNL     1       5.666   5.637  18.306  0.00  0.00    +0.000 C 
ATOM     14  N   UNL     1       6.394   4.388  18.402  0.00  0.00    +0.000 N 
ATOM     15  H   UNL     1       6.170   3.451  18.690  0.00  0.00    +0.000 HD
ENDBRANCH   9  13
ENDBRANCH   1   9
TORSDOF 2
ENDMDL
MODEL 6
REMARK VINA RESULT:      -6.1      3.928      5.435
REMARK  Name = 
REMARK  2 active torsions:
REMARK  status: ('A' for Active; 'I' for Inactive)
REMARK    1  A    between atoms: C_4  and  S_5
REMARK    2  A    between atoms: S_5  and  C_6
REMARK                            x       y       z     vdW  Elec       q    Type
REMARK                         _______ _______ _______ _____ _____    ______ ____
ROOT
ATOM      1  C   UNL     1       3.768   4.025  17.856  0.00  0.00    +0.000 A 
ATOM      2  C   UNL     1       3.828   2.708  18.334  0.00  0.00    +0.000 A 
ATOM      3  C   UNL     1       3.117   2.332  19.476  0.00  0.00    +0.000 A 
ATOM      4  C   UNL     1       2.328   3.270  20.139  0.00  0.00    +0.000 A 
ATOM      5 CL   UNL     1       1.472   2.809  21.557  0.00  0.00    +0.000 Cl
ATOM      6  C   UNL     1       2.233   4.575  19.664  0.00  0.00    +0.000 A 
ATOM      7  C   UNL     1       2.948   4.953  18.523  0.00  0.00    +0.000 A 
ATOM      8 CL   UNL     1       2.784   6.591  17.991  0.00  0.00    +0.000 Cl
ENDROOT
BRANCH   1   9
ATOM      9  S   UNL     1       4.756   4.418  16.415  0.00  0.00    +0.000 S 
BRANCH   9  13
ATOM     10  O   UNL     1       7.771   7.620  17.071  0.00  0.00    +0.000 OA
ATOM     11  C   UNL     1       7.243   6.550  17.228  0.00  0.00    +0.000 C 
ATOM     12  C   UNL     1       6.313   5.875  18.248  0.00  0.00    +0.000 C 
ATOM     13  C   UNL     1       6.340   4.673  17.279  0.00  0.00    +0.000 C 
ATOM     14  N   UNL     1       7.251   5.439  16.453  0.00  0.00    +0.000 N 
ATOM     15  H   UNL     1       7.573   5.383  15.502  0.00  0.00    +0.000 HD
ENDBRANCH   9  13
ENDBRANCH   1   9
TORSDOF 2
ENDMDL
MODEL 7
REMARK VINA RESULT:      -6.1      2.758      3.311
REMARK  Name = 
REMARK  2 active torsions:
REMARK  status: ('A' for Active; 'I' for Inactive)
REMARK    1  A    between atoms: C_4  and  S_5
REMARK    2  A    between atoms: S_5  and  C_6
REMARK                            x       y       z     vdW  Elec       q    Type
REMARK                         _______ _______ _______ _____ _____    ______ ____
ROOT
ATOM      1  C   UNL     1       5.414   4.210  17.013  0.00  0.00    +0.000 A 
ATOM      2  C   UNL     1       4.975   3.834  15.735  0.00  0.00    +0.000 A 
ATOM      3  C   UNL     1       5.717   4.168  14.601  0.00  0.00    +0.000 A 
ATOM      4  C   UNL     1       6.913   4.870  14.739  0.00  0.00    +0.000 A 
ATOM      5 CL   UNL     1       7.813   5.300  13.337  0.00  0.00    +0.000 Cl
ATOM      6  C   UNL     1       7.380   5.228  16.000  0.00  0.00    +0.000 A 
ATOM      7  C   UNL     1       6.635   4.897  17.137  0.00  0.00    +0.000 A 
ATOM      8 CL   UNL     1       7.275   5.376  18.671  0.00  0.00    +0.000 Cl
ENDROOT
BRANCH   1   9
ATOM      9  S   UNL     1       4.365   3.778  18.399  0.00  0.00    +0.000 S 
BRANCH   9  13
ATOM     10  O   UNL     1       0.242   2.253  19.069  0.00  0.00    +0.000 OA
ATOM     11  C   UNL     1       1.171   2.686  18.439  0.00  0.00    +0.000 C 
ATOM     12  C   UNL     1       1.620   4.030  17.843  0.00  0.00    +0.000 C 
ATOM     13  C   UNL     1       2.903   3.271  17.437  0.00  0.00    +0.000 C 
ATOM     14  N   UNL     1       2.305   2.082  18.011  0.00  0.00    +0.000 N 
ATOM     15  H   UNL     1       2.645   1.183  18.307  0.00  0.00    +0.000 HD
ENDBRANCH   9  13
ENDBRANCH   1   9
TORSDOF 2
ENDMDL
MODEL 8
REMARK VINA RESULT:      -6.1      1.537      1.614
REMARK  Name = 
REMARK  2 active torsions:
REMARK  status: ('A' for Active; 'I' for Inactive)
REMARK    1  A    between atoms: C_4  and  S_5
REMARK    2  A    between atoms: S_5  and  C_6
REMARK                            x       y       z     vdW  Elec       q    Type
REMARK                         _______ _______ _______ _____ _____    ______ ____
ROOT
ATOM      1  C   UNL     1       3.601   5.087  17.610  0.00  0.00    +0.000 A 
ATOM      2  C   UNL     1       4.142   3.857  17.208  0.00  0.00    +0.000 A 
ATOM      3  C   UNL     1       5.197   3.808  16.294  0.00  0.00    +0.000 A 
ATOM      4  C   UNL     1       5.727   4.993  15.787  0.00  0.00    +0.000 A 
ATOM      5 CL   UNL     1       7.011   4.928  14.644  0.00  0.00    +0.000 Cl
ATOM      6  C   UNL     1       5.223   6.224  16.194  0.00  0.00    +0.000 A 
ATOM      7  C   UNL     1       4.163   6.273  17.107  0.00  0.00    +0.000 A 
ATOM      8 CL   UNL     1       3.585   7.837  17.567  0.00  0.00    +0.000 Cl
ENDROOT
BRANCH   1   9
ATOM      9  S   UNL     1       2.218   5.039  18.747  0.00  0.00    +0.000 S 
BRANCH   9  13
ATOM     10  O   UNL     1       1.484   2.463  22.296  0.00  0.00    +0.000 OA
ATOM     11  C   UNL     1       1.759   2.716  21.153  0.00  0.00    +0.000 C 
ATOM     12  C   UNL     1       1.070   2.688  19.779  0.00  0.00    +0.000 C 
ATOM     13  C   UNL     1       2.389   3.297  19.253  0.00  0.00    +0.000 C 
ATOM     14  N   UNL     1       2.897   3.209  20.607  0.00  0.00    +0.000 N 
ATOM     15  H   UNL     1       3.666   3.618  21.110  0.00  0.00    +0.000 HD
ENDBRANCH   9  13
ENDBRANCH   1   9
TORSDOF 2
ENDMDL
MODEL 9
REMARK VINA RESULT:      -6.1      2.681      3.339
REMARK  Name = 
REMARK  2 active torsions:
REMARK  status: ('A' for Active; 'I' for Inactive)
REMARK    1  A    between atoms: C_4  and  S_5
REMARK    2  A    between atoms: S_5  and  C_6
REMARK                            x       y       z     vdW  Elec       q    Type
REMARK                         _______ _______ _______ _____ _____    ______ ____
ROOT
ATOM      1  C   UNL     1       3.803   5.208  18.871  0.00  0.00    +0.000 A 
ATOM      2  C   UNL     1       4.329   5.943  17.799  0.00  0.00    +0.000 A 
ATOM      3  C   UNL     1       3.821   7.205  17.484  0.00  0.00    +0.000 A 
ATOM      4  C   UNL     1       2.790   7.745  18.250  0.00  0.00    +0.000 A 
ATOM      5 CL   UNL     1       2.150   9.290  17.845  0.00  0.00    +0.000 Cl
ATOM      6  C   UNL     1       2.273   7.044  19.334  0.00  0.00    +0.000 A 
ATOM      7  C   UNL     1       2.780   5.777  19.648  0.00  0.00    +0.000 A 
ATOM      8 CL   UNL     1       2.088   4.962  21.008  0.00  0.00    +0.000 Cl
ENDROOT
BRANCH   1   9
ATOM      9  S   UNL     1       4.491   3.579  19.160  0.00  0.00    +0.000 S 
BRANCH   9  13
ATOM     10  O   UNL     1       0.306   2.120  18.806  0.00  0.00    +0.000 OA
ATOM     11  C   UNL     1       1.426   2.362  18.441  0.00  0.00    +0.000 C 
ATOM     12  C   UNL     1       2.150   3.433  17.609  0.00  0.00    +0.000 C 
ATOM     13  C   UNL     1       3.437   2.667  17.987  0.00  0.00    +0.000 C 
ATOM     14  N   UNL     1       2.593   1.722  18.690  0.00  0.00    +0.000 N 
ATOM     15  H   UNL     1       2.742   1.012  19.387  0.00  0.00    +0.000 HD
ENDBRANCH   9  13
ENDBRANCH   1   9
TORSDOF 2
ENDMDL
