MODEL 1
REMARK VINA RESULT:      -8.1      0.000      0.000
REMARK  Name = 
REMARK  8 active torsions:
REMARK  status: ('A' for Active; 'I' for Inactive)
REMARK    1  A    between atoms: C_1  and  C_2
REMARK    2  A    between atoms: C_11  and  C_12
REMARK    3  A    between atoms: C_16  and  N_17
REMARK    4  A    between atoms: C_18  and  C_20
REMARK    5  A    between atoms: C_23  and  C_24
REMARK    6  A    between atoms: C_24  and  C_25
REMARK    7  A    between atoms: C_24  and  C_26
REMARK    8  A    between atoms: C_24  and  C_27
REMARK                            x       y       z     vdW  Elec       q    Type
REMARK                         _______ _______ _______ _____ _____    ______ ____
ROOT
ATOM      1  C   UNL     1       1.907  15.103  22.215  0.00  0.00    +0.000 C 
ATOM      2  C   UNL     1       1.392  14.128  21.199  0.00  0.00    +0.000 A 
ATOM      3  C   UNL     1       2.282  13.415  20.391  0.00  0.00    +0.000 A 
ATOM      4  C   UNL     1       1.807  12.509  19.443  0.00  0.00    +0.000 A 
ATOM      5  C   UNL     1       0.430  12.270  19.306  0.00  0.00    +0.000 A 
ATOM      6  C   UNL     1      -0.461  13.010  20.082  0.00  0.00    +0.000 A 
ATOM      7  C   UNL     1       0.016  13.935  21.020  0.00  0.00    +0.000 A 
ATOM      8  O   UNL     1      -1.826  12.899  19.984  0.00  0.00    +0.000 OA
ATOM      9  C   UNL     1      -2.355  12.033  19.055  0.00  0.00    +0.000 A 
ATOM     10  C   UNL     1      -3.751  12.033  18.950  0.00  0.00    +0.000 A 
ATOM     11  C   UNL     1      -4.403  11.175  18.056  0.00  0.00    +0.000 A 
ATOM     12  C   UNL     1      -5.898  11.164  17.941  0.00  0.00    +0.000 C 
ATOM     13  C   UNL     1      -3.632  10.315  17.267  0.00  0.00    +0.000 A 
ATOM     14  C   UNL     1      -2.237  10.325  17.362  0.00  0.00    +0.000 A 
ATOM     15  C   UNL     1      -1.584  11.187  18.259  0.00  0.00    +0.000 A 
ATOM     16  C   UNL     1      -0.077  11.213  18.358  0.00  0.00    +0.000 C 
ENDROOT
BRANCH  16  17
ATOM     17  N   UNL     1       0.407   9.911  18.785  0.00  0.00    +0.000 N 
ATOM     18  C   UNL     1       1.481   9.296  18.217  0.00  0.00    +0.000 C 
ATOM     19  O   UNL     1       2.155   9.814  17.324  0.00  0.00    +0.000 OA
ATOM     20  H   UNL     1      -0.078   9.460  19.559  0.00  0.00    +0.000 HD
BRANCH  18  21
ATOM     21  C   UNL     1       1.803   7.944  18.741  0.00  0.00    +0.000 A 
ATOM     22  C   UNL     1       2.118   6.988  17.851  0.00  0.00    +0.000 A 
ATOM     23  C   UNL     1       2.468   5.655  18.265  0.00  0.00    +0.000 A 
ATOM     24  C   UNL     1       2.540   5.327  19.567  0.00  0.00    +0.000 A 
ATOM     25  N   UNL     1       2.238   6.310  20.493  0.00  0.00    +0.000 N 
ATOM     26  C   UNL     1       1.823   7.587  20.187  0.00  0.00    +0.000 A 
ATOM     27  O   UNL     1       1.504   8.379  21.066  0.00  0.00    +0.000 OA
ATOM     28  H   UNL     1       2.288   6.127  21.487  0.00  0.00    +0.000 HD
BRANCH  24  29
ATOM     29  C   UNL     1       2.943   3.933  20.069  0.00  0.00    +0.000 C 
ATOM     30  C   UNL     1       4.468   3.780  19.918  0.00  0.00    +0.000 C 
ATOM     31  C   UNL     1       2.550   3.723  21.546  0.00  0.00    +0.000 C 
ATOM     32  C   UNL     1       2.269   2.799  19.259  0.00  0.00    +0.000 C 
ENDBRANCH  24  29
ENDBRANCH  18  21
ENDBRANCH  16  17
TORSDOF 3
ENDMDL
MODEL 2
REMARK VINA RESULT:      -7.9      2.235      3.228
REMARK  Name = 
REMARK  8 active torsions:
REMARK  status: ('A' for Active; 'I' for Inactive)
REMARK    1  A    between atoms: C_1  and  C_2
REMARK    2  A    between atoms: C_11  and  C_12
REMARK    3  A    between atoms: C_16  and  N_17
REMARK    4  A    between atoms: C_18  and  C_20
REMARK    5  A    between atoms: C_23  and  C_24
REMARK    6  A    between atoms: C_24  and  C_25
REMARK    7  A    between atoms: C_24  and  C_26
REMARK    8  A    between atoms: C_24  and  C_27
REMARK                            x       y       z     vdW  Elec       q    Type
REMARK                         _______ _______ _______ _____ _____    ______ ____
ROOT
ATOM      1  C   UNL     1       5.129  16.292  21.317  0.00  0.00    +0.000 C 
ATOM      2  C   UNL     1       3.929  15.438  21.030  0.00  0.00    +0.000 A 
ATOM      3  C   UNL     1       3.835  14.738  19.823  0.00  0.00    +0.000 A 
ATOM      4  C   UNL     1       2.721  13.945  19.551  0.00  0.00    +0.000 A 
ATOM      5  C   UNL     1       1.691  13.805  20.496  0.00  0.00    +0.000 A 
ATOM      6  C   UNL     1       1.764  14.535  21.682  0.00  0.00    +0.000 A 
ATOM      7  C   UNL     1       2.874  15.349  21.947  0.00  0.00    +0.000 A 
ATOM      8  O   UNL     1       0.785  14.519  22.644  0.00  0.00    +0.000 OA
ATOM      9  C   UNL     1      -0.346  13.768  22.426  0.00  0.00    +0.000 A 
ATOM     10  C   UNL     1      -1.340  13.865  23.407  0.00  0.00    +0.000 A 
ATOM     11  C   UNL     1      -2.525  13.126  23.304  0.00  0.00    +0.000 A 
ATOM     12  C   UNL     1      -3.592  13.220  24.354  0.00  0.00    +0.000 C 
ATOM     13  C   UNL     1      -2.699  12.286  22.199  0.00  0.00    +0.000 A 
ATOM     14  C   UNL     1      -1.713  12.199  21.212  0.00  0.00    +0.000 A 
ATOM     15  C   UNL     1      -0.524  12.942  21.316  0.00  0.00    +0.000 A 
ATOM     16  C   UNL     1       0.540  12.864  20.248  0.00  0.00    +0.000 C 
ENDROOT
BRANCH  16  17
ATOM     17  N   UNL     1       1.042  11.504  20.157  0.00  0.00    +0.000 N 
ATOM     18  C   UNL     1       0.670  10.640  19.172  0.00  0.00    +0.000 C 
ATOM     19  O   UNL     1      -0.090  10.956  18.255  0.00  0.00    +0.000 OA
ATOM     20  H   UNL     1       1.719  11.204  20.858  0.00  0.00    +0.000 HD
BRANCH  18  21
ATOM     21  C   UNL     1       1.239   9.271  19.265  0.00  0.00    +0.000 A 
ATOM     22  C   UNL     1       1.757   8.732  18.148  0.00  0.00    +0.000 A 
ATOM     23  C   UNL     1       2.352   7.422  18.145  0.00  0.00    +0.000 A 
ATOM     24  C   UNL     1       2.458   6.704  19.277  0.00  0.00    +0.000 A 
ATOM     25  N   UNL     1       1.948   7.257  20.437  0.00  0.00    +0.000 N 
ATOM     26  C   UNL     1       1.296   8.468  20.518  0.00  0.00    +0.000 A 
ATOM     27  O   UNL     1       0.808   8.857  21.573  0.00  0.00    +0.000 OA
ATOM     28  H   UNL     1       2.010   6.770  21.322  0.00  0.00    +0.000 HD
BRANCH  24  29
ATOM     29  C   UNL     1       3.116   5.317  19.342  0.00  0.00    +0.000 C 
ATOM     30  C   UNL     1       4.645   5.502  19.366  0.00  0.00    +0.000 C 
ATOM     31  C   UNL     1       2.673   4.535  20.596  0.00  0.00    +0.000 C 
ATOM     32  C   UNL     1       2.762   4.440  18.116  0.00  0.00    +0.000 C 
ENDBRANCH  24  29
ENDBRANCH  18  21
ENDBRANCH  16  17
TORSDOF 3
ENDMDL
MODEL 3
REMARK VINA RESULT:      -7.8      1.693      2.346
REMARK  Name = 
REMARK  8 active torsions:
REMARK  status: ('A' for Active; 'I' for Inactive)
REMARK    1  A    between atoms: C_1  and  C_2
REMARK    2  A    between atoms: C_11  and  C_12
REMARK    3  A    between atoms: C_16  and  N_17
REMARK    4  A    between atoms: C_18  and  C_20
REMARK    5  A    between atoms: C_23  and  C_24
REMARK    6  A    between atoms: C_24  and  C_25
REMARK    7  A    between atoms: C_24  and  C_26
REMARK    8  A    between atoms: C_24  and  C_27
REMARK                            x       y       z     vdW  Elec       q    Type
REMARK                         _______ _______ _______ _____ _____    ______ ____
ROOT
ATOM      1  C   UNL     1      -1.158  14.940  24.765  0.00  0.00    +0.000 C 
ATOM      2  C   UNL     1      -1.253  14.320  23.403  0.00  0.00    +0.000 A 
ATOM      3  C   UNL     1      -0.101  14.123  22.636  0.00  0.00    +0.000 A 
ATOM      4  C   UNL     1      -0.184  13.548  21.368  0.00  0.00    +0.000 A 
ATOM      5  C   UNL     1      -1.420  13.125  20.853  0.00  0.00    +0.000 A 
ATOM      6  C   UNL     1      -2.575  13.359  21.598  0.00  0.00    +0.000 A 
ATOM      7  C   UNL     1      -2.493  13.955  22.864  0.00  0.00    +0.000 A 
ATOM      8  O   UNL     1      -3.837  13.041  21.161  0.00  0.00    +0.000 OA
ATOM      9  C   UNL     1      -3.985  12.486  19.911  0.00  0.00    +0.000 A 
ATOM     10  C   UNL     1      -5.304  12.266  19.496  0.00  0.00    +0.000 A 
ATOM     11  C   UNL     1      -5.577  11.683  18.252  0.00  0.00    +0.000 A 
ATOM     12  C   UNL     1      -6.987  11.439  17.802  0.00  0.00    +0.000 C 
ATOM     13  C   UNL     1      -4.505  11.323  17.429  0.00  0.00    +0.000 A 
ATOM     14  C   UNL     1      -3.188  11.554  17.838  0.00  0.00    +0.000 A 
ATOM     15  C   UNL     1      -2.915  12.141  19.086  0.00  0.00    +0.000 A 
ATOM     16  C   UNL     1      -1.497  12.406  19.529  0.00  0.00    +0.000 C 
ENDROOT
BRANCH  16  17
ATOM     17  N   UNL     1      -0.771  11.151  19.621  0.00  0.00    +0.000 N 
ATOM     18  C   UNL     1       0.470  10.971  19.088  0.00  0.00    +0.000 C 
ATOM     19  O   UNL     1       1.093  11.870  18.523  0.00  0.00    +0.000 OA
ATOM     20  H   UNL     1      -1.214  10.386  20.128  0.00  0.00    +0.000 HD
BRANCH  18  21
ATOM     21  C   UNL     1       1.041   9.607  19.228  0.00  0.00    +0.000 A 
ATOM     22  C   UNL     1       1.561   9.032  18.130  0.00  0.00    +0.000 A 
ATOM     23  C   UNL     1       2.158   7.723  18.173  0.00  0.00    +0.000 A 
ATOM     24  C   UNL     1       2.263   7.043  19.327  0.00  0.00    +0.000 A 
ATOM     25  N   UNL     1       1.750   7.634  20.468  0.00  0.00    +0.000 N 
ATOM     26  C   UNL     1       1.096   8.846  20.507  0.00  0.00    +0.000 A 
ATOM     27  O   UNL     1       0.606   9.270  21.547  0.00  0.00    +0.000 OA
ATOM     28  H   UNL     1       1.810   7.177  21.369  0.00  0.00    +0.000 HD
BRANCH  24  29
ATOM     29  C   UNL     1       2.922   5.660  19.440  0.00  0.00    +0.000 C 
ATOM     30  C   UNL     1       2.475   4.806  18.240  0.00  0.00    +0.000 C 
ATOM     31  C   UNL     1       4.461   5.763  19.454  0.00  0.00    +0.000 C 
ATOM     32  C   UNL     1       2.509   4.916  20.734  0.00  0.00    +0.000 C 
ENDBRANCH  24  29
ENDBRANCH  18  21
ENDBRANCH  16  17
TORSDOF 3
ENDMDL
MODEL 4
REMARK VINA RESULT:      -7.7      2.214      3.307
REMARK  Name = 
REMARK  8 active torsions:
REMARK  status: ('A' for Active; 'I' for Inactive)
REMARK    1  A    between atoms: C_1  and  C_2
REMARK    2  A    between atoms: C_11  and  C_12
REMARK    3  A    between atoms: C_16  and  N_17
REMARK    4  A    between atoms: C_18  and  C_20
REMARK    5  A    between atoms: C_23  and  C_24
REMARK    6  A    between atoms: C_24  and  C_25
REMARK    7  A    between atoms: C_24  and  C_26
REMARK    8  A    between atoms: C_24  and  C_27
REMARK                            x       y       z     vdW  Elec       q    Type
REMARK                         _______ _______ _______ _____ _____    ______ ____
ROOT
ATOM      1  C   UNL     1       5.174  16.230  19.213  0.00  0.00    +0.000 C 
ATOM      2  C   UNL     1       3.981  15.323  19.285  0.00  0.00    +0.000 A 
ATOM      3  C   UNL     1       3.705  14.437  18.240  0.00  0.00    +0.000 A 
ATOM      4  C   UNL     1       2.596  13.594  18.301  0.00  0.00    +0.000 A 
ATOM      5  C   UNL     1       1.758  13.592  19.428  0.00  0.00    +0.000 A 
ATOM      6  C   UNL     1       2.008  14.504  20.454  0.00  0.00    +0.000 A 
ATOM      7  C   UNL     1       3.111  15.365  20.382  0.00  0.00    +0.000 A 
ATOM      8  O   UNL     1       1.217  14.627  21.569  0.00  0.00    +0.000 OA
ATOM      9  C   UNL     1       0.099  13.833  21.679  0.00  0.00    +0.000 A 
ATOM     10  C   UNL     1      -0.708  14.071  22.798  0.00  0.00    +0.000 A 
ATOM     11  C   UNL     1      -1.858  13.307  23.029  0.00  0.00    +0.000 A 
ATOM     12  C   UNL     1      -2.725  13.552  24.228  0.00  0.00    +0.000 C 
ATOM     13  C   UNL     1      -2.189  12.298  22.118  0.00  0.00    +0.000 A 
ATOM     14  C   UNL     1      -1.391  12.069  20.993  0.00  0.00    +0.000 A 
ATOM     15  C   UNL     1      -0.236  12.838  20.762  0.00  0.00    +0.000 A 
ATOM     16  C   UNL     1       0.623  12.605  19.543  0.00  0.00    +0.000 C 
ENDROOT
BRANCH  16  17
ATOM     17  N   UNL     1       1.161  11.256  19.574  0.00  0.00    +0.000 N 
ATOM     18  C   UNL     1       0.694  10.253  18.779  0.00  0.00    +0.000 C 
ATOM     19  O   UNL     1      -0.192  10.421  17.940  0.00  0.00    +0.000 OA
ATOM     20  H   UNL     1       1.935  11.072  20.210  0.00  0.00    +0.000 HD
BRANCH  18  21
ATOM     21  C   UNL     1       1.323   8.923  18.982  0.00  0.00    +0.000 A 
ATOM     22  C   UNL     1       1.828   8.300  17.904  0.00  0.00    +0.000 A 
ATOM     23  C   UNL     1       2.478   7.020  18.005  0.00  0.00    +0.000 A 
ATOM     24  C   UNL     1       2.648   6.418  19.195  0.00  0.00    +0.000 A 
ATOM     25  N   UNL     1       2.150   7.061  20.315  0.00  0.00    +0.000 N 
ATOM     26  C   UNL     1       1.451   8.247  20.303  0.00  0.00    +0.000 A 
ATOM     27  O   UNL     1       0.980   8.717  21.331  0.00  0.00    +0.000 OA
ATOM     28  H   UNL     1       2.259   6.663  21.240  0.00  0.00    +0.000 HD
BRANCH  24  29
ATOM     29  C   UNL     1       3.365   5.071  19.369  0.00  0.00    +0.000 C 
ATOM     30  C   UNL     1       2.877   4.423  20.678  0.00  0.00    +0.000 C 
ATOM     31  C   UNL     1       3.083   4.119  18.188  0.00  0.00    +0.000 C 
ATOM     32  C   UNL     1       4.902   5.231  19.462  0.00  0.00    +0.000 C 
ENDBRANCH  24  29
ENDBRANCH  18  21
ENDBRANCH  16  17
TORSDOF 3
ENDMDL
MODEL 5
REMARK VINA RESULT:      -7.7      1.554      4.490
REMARK  Name = 
REMARK  8 active torsions:
REMARK  status: ('A' for Active; 'I' for Inactive)
REMARK    1  A    between atoms: C_1  and  C_2
REMARK    2  A    between atoms: C_11  and  C_12
REMARK    3  A    between atoms: C_16  and  N_17
REMARK    4  A    between atoms: C_18  and  C_20
REMARK    5  A    between atoms: C_23  and  C_24
REMARK    6  A    between atoms: C_24  and  C_25
REMARK    7  A    between atoms: C_24  and  C_26
REMARK    8  A    between atoms: C_24  and  C_27
REMARK                            x       y       z     vdW  Elec       q    Type
REMARK                         _______ _______ _______ _____ _____    ______ ____
ROOT
ATOM      1  C   UNL     1      -3.936  10.494  14.816  0.00  0.00    +0.000 C 
ATOM      2  C   UNL     1      -3.144  10.562  16.088  0.00  0.00    +0.000 A 
ATOM      3  C   UNL     1      -3.224   9.528  17.025  0.00  0.00    +0.000 A 
ATOM      4  C   UNL     1      -2.491   9.588  18.210  0.00  0.00    +0.000 A 
ATOM      5  C   UNL     1      -1.633  10.670  18.468  0.00  0.00    +0.000 A 
ATOM      6  C   UNL     1      -1.583  11.722  17.554  0.00  0.00    +0.000 A 
ATOM      7  C   UNL     1      -2.335  11.670  16.373  0.00  0.00    +0.000 A 
ATOM      8  O   UNL     1      -0.825  12.851  17.739  0.00  0.00    +0.000 OA
ATOM      9  C   UNL     1      -0.093  12.976  18.896  0.00  0.00    +0.000 A 
ATOM     10  C   UNL     1       0.588  14.189  19.058  0.00  0.00    +0.000 A 
ATOM     11  C   UNL     1       1.386  14.420  20.185  0.00  0.00    +0.000 A 
ATOM     12  C   UNL     1       2.122  15.714  20.362  0.00  0.00    +0.000 C 
ATOM     13  C   UNL     1       1.492  13.414  21.151  0.00  0.00    +0.000 A 
ATOM     14  C   UNL     1       0.801  12.207  20.996  0.00  0.00    +0.000 A 
ATOM     15  C   UNL     1      -0.001  11.977  19.865  0.00  0.00    +0.000 A 
ATOM     16  C   UNL     1      -0.759  10.683  19.697  0.00  0.00    +0.000 C 
ENDROOT
BRANCH  16  17
ATOM     17  N   UNL     1       0.176   9.573  19.634  0.00  0.00    +0.000 N 
ATOM     18  C   UNL     1       1.212   9.524  18.751  0.00  0.00    +0.000 C 
ATOM     19  O   UNL     1       1.463  10.437  17.963  0.00  0.00    +0.000 OA
ATOM     20  H   UNL     1       0.051   8.813  20.302  0.00  0.00    +0.000 HD
BRANCH  18  21
ATOM     21  C   UNL     1       2.036   8.289  18.789  0.00  0.00    +0.000 A 
ATOM     22  C   UNL     1       2.772   7.995  17.704  0.00  0.00    +0.000 A 
ATOM     23  C   UNL     1       3.620   6.834  17.657  0.00  0.00    +0.000 A 
ATOM     24  C   UNL     1       3.746   6.020  18.720  0.00  0.00    +0.000 A 
ATOM     25  N   UNL     1       3.008   6.325  19.850  0.00  0.00    +0.000 N 
ATOM     26  C   UNL     1       2.118   7.370  19.958  0.00  0.00    +0.000 A 
ATOM     27  O   UNL     1       1.447   7.531  20.971  0.00  0.00    +0.000 OA
ATOM     28  H   UNL     1       3.071   5.757  20.686  0.00  0.00    +0.000 HD
BRANCH  24  29
ATOM     29  C   UNL     1       4.662   4.788  18.741  0.00  0.00    +0.000 C 
ATOM     30  C   UNL     1       6.034   5.208  19.302  0.00  0.00    +0.000 C 
ATOM     31  C   UNL     1       4.076   3.657  19.611  0.00  0.00    +0.000 C 
ATOM     32  C   UNL     1       4.887   4.198  17.327  0.00  0.00    +0.000 C 
ENDBRANCH  24  29
ENDBRANCH  18  21
ENDBRANCH  16  17
TORSDOF 3
ENDMDL
MODEL 6
REMARK VINA RESULT:      -7.6      1.030      1.498
REMARK  Name = 
REMARK  8 active torsions:
REMARK  status: ('A' for Active; 'I' for Inactive)
REMARK    1  A    between atoms: C_1  and  C_2
REMARK    2  A    between atoms: C_11  and  C_12
REMARK    3  A    between atoms: C_16  and  N_17
REMARK    4  A    between atoms: C_18  and  C_20
REMARK    5  A    between atoms: C_23  and  C_24
REMARK    6  A    between atoms: C_24  and  C_25
REMARK    7  A    between atoms: C_24  and  C_26
REMARK    8  A    between atoms: C_24  and  C_27
REMARK                            x       y       z     vdW  Elec       q    Type
REMARK                         _______ _______ _______ _____ _____    ______ ____
ROOT
ATOM      1  C   UNL     1       3.298  15.556  22.507  0.00  0.00    +0.000 C 
ATOM      2  C   UNL     1       2.481  14.703  21.583  0.00  0.00    +0.000 A 
ATOM      3  C   UNL     1       3.101  13.969  20.568  0.00  0.00    +0.000 A 
ATOM      4  C   UNL     1       2.345  13.175  19.705  0.00  0.00    +0.000 A 
ATOM      5  C   UNL     1       0.953  13.070  19.863  0.00  0.00    +0.000 A 
ATOM      6  C   UNL     1       0.329  13.833  20.849  0.00  0.00    +0.000 A 
ATOM      7  C   UNL     1       1.086  14.646  21.702  0.00  0.00    +0.000 A 
ATOM      8  O   UNL     1      -1.030  13.851  21.047  0.00  0.00    +0.000 OA
ATOM      9  C   UNL     1      -1.830  13.101  20.217  0.00  0.00    +0.000 A 
ATOM     10  C   UNL     1      -3.209  13.232  20.420  0.00  0.00    +0.000 A 
ATOM     11  C   UNL     1      -4.121  12.498  19.652  0.00  0.00    +0.000 A 
ATOM     12  C   UNL     1      -5.600  12.629  19.867  0.00  0.00    +0.000 C 
ATOM     13  C   UNL     1      -3.629  11.628  18.674  0.00  0.00    +0.000 A 
ATOM     14  C   UNL     1      -2.252  11.507  18.461  0.00  0.00    +0.000 A 
ATOM     15  C   UNL     1      -1.337  12.245  19.233  0.00  0.00    +0.000 A 
ATOM     16  C   UNL     1       0.150  12.129  19.000  0.00  0.00    +0.000 C 
ENDROOT
BRANCH  16  17
ATOM     17  N   UNL     1       0.579  10.764  19.250  0.00  0.00    +0.000 N 
ATOM     18  C   UNL     1       1.494  10.120  18.474  0.00  0.00    +0.000 C 
ATOM     19  O   UNL     1       2.064  10.658  17.523  0.00  0.00    +0.000 OA
ATOM     20  H   UNL     1       0.183  10.286  20.058  0.00  0.00    +0.000 HD
BRANCH  18  21
ATOM     21  C   UNL     1       1.774   8.708  18.841  0.00  0.00    +0.000 A 
ATOM     22  C   UNL     1       2.174   7.876  17.865  0.00  0.00    +0.000 A 
ATOM     23  C   UNL     1       2.492   6.498  18.129  0.00  0.00    +0.000 A 
ATOM     24  C   UNL     1       2.447   6.000  19.377  0.00  0.00    +0.000 A 
ATOM     25  N   UNL     1       2.057   6.853  20.394  0.00  0.00    +0.000 N 
ATOM     26  C   UNL     1       1.664   8.162  20.223  0.00  0.00    +0.000 A 
ATOM     27  O   UNL     1       1.262   8.833  21.166  0.00  0.00    +0.000 OA
ATOM     28  H   UNL     1       2.016   6.540  21.355  0.00  0.00    +0.000 HD
BRANCH  24  29
ATOM     29  C   UNL     1       2.810   4.548  19.725  0.00  0.00    +0.000 C 
ATOM     30  C   UNL     1       2.012   3.610  18.801  0.00  0.00    +0.000 C 
ATOM     31  C   UNL     1       4.319   4.281  19.550  0.00  0.00    +0.000 C 
ATOM     32  C   UNL     1       2.456   4.188  21.188  0.00  0.00    +0.000 C 
ENDBRANCH  24  29
ENDBRANCH  18  21
ENDBRANCH  16  17
TORSDOF 3
ENDMDL
MODEL 7
REMARK VINA RESULT:      -7.5      2.409      4.532
REMARK  Name = 
REMARK  8 active torsions:
REMARK  status: ('A' for Active; 'I' for Inactive)
REMARK    1  A    between atoms: C_1  and  C_2
REMARK    2  A    between atoms: C_11  and  C_12
REMARK    3  A    between atoms: C_16  and  N_17
REMARK    4  A    between atoms: C_18  and  C_20
REMARK    5  A    between atoms: C_23  and  C_24
REMARK    6  A    between atoms: C_24  and  C_25
REMARK    7  A    between atoms: C_24  and  C_26
REMARK    8  A    between atoms: C_24  and  C_27
REMARK                            x       y       z     vdW  Elec       q    Type
REMARK                         _______ _______ _______ _____ _____    ______ ____
ROOT
ATOM      1  C   UNL     1      -4.887  12.655  22.345  0.00  0.00    +0.000 C 
ATOM      2  C   UNL     1      -3.412  12.786  22.110  0.00  0.00    +0.000 A 
ATOM      3  C   UNL     1      -2.507  12.045  22.875  0.00  0.00    +0.000 A 
ATOM      4  C   UNL     1      -1.134  12.165  22.661  0.00  0.00    +0.000 A 
ATOM      5  C   UNL     1      -0.637  13.004  21.651  0.00  0.00    +0.000 A 
ATOM      6  C   UNL     1      -1.535  13.776  20.915  0.00  0.00    +0.000 A 
ATOM      7  C   UNL     1      -2.913  13.670  21.143  0.00  0.00    +0.000 A 
ATOM      8  O   UNL     1      -1.150  14.671  19.948  0.00  0.00    +0.000 OA
ATOM      9  C   UNL     1       0.191  14.846  19.703  0.00  0.00    +0.000 A 
ATOM     10  C   UNL     1       0.515  15.835  18.766  0.00  0.00    +0.000 A 
ATOM     11  C   UNL     1       1.848  16.085  18.418  0.00  0.00    +0.000 A 
ATOM     12  C   UNL     1       2.202  17.139  17.411  0.00  0.00    +0.000 C 
ATOM     13  C   UNL     1       2.855  15.326  19.023  0.00  0.00    +0.000 A 
ATOM     14  C   UNL     1       2.533  14.348  19.969  0.00  0.00    +0.000 A 
ATOM     15  C   UNL     1       1.194  14.098  20.319  0.00  0.00    +0.000 A 
ATOM     16  C   UNL     1       0.840  13.052  21.348  0.00  0.00    +0.000 C 
ENDROOT
BRANCH  16  17
ATOM     17  N   UNL     1       1.279  11.746  20.889  0.00  0.00    +0.000 N 
ATOM     18  C   UNL     1       0.738  11.120  19.806  0.00  0.00    +0.000 C 
ATOM     19  O   UNL     1      -0.137  11.630  19.105  0.00  0.00    +0.000 OA
ATOM     20  H   UNL     1       2.040  11.299  21.397  0.00  0.00    +0.000 HD
BRANCH  18  21
ATOM     21  C   UNL     1       1.271   9.765  19.512  0.00  0.00    +0.000 A 
ATOM     22  C   UNL     1       1.624   9.494  18.244  0.00  0.00    +0.000 A 
ATOM     23  C   UNL     1       2.172   8.218  17.867  0.00  0.00    +0.000 A 
ATOM     24  C   UNL     1       2.398   7.260  18.783  0.00  0.00    +0.000 A 
ATOM     25  N   UNL     1       2.057   7.535  20.095  0.00  0.00    +0.000 N 
ATOM     26  C   UNL     1       1.461   8.697  20.533  0.00  0.00    +0.000 A 
ATOM     27  O   UNL     1       1.123   8.836  21.702  0.00  0.00    +0.000 OA
ATOM     28  H   UNL     1       2.215   6.859  20.831  0.00  0.00    +0.000 HD
BRANCH  24  29
ATOM     29  C   UNL     1       3.014   5.894  18.446  0.00  0.00    +0.000 C 
ATOM     30  C   UNL     1       1.897   4.969  17.928  0.00  0.00    +0.000 C 
ATOM     31  C   UNL     1       4.119   6.015  17.377  0.00  0.00    +0.000 C 
ATOM     32  C   UNL     1       3.656   5.218  19.682  0.00  0.00    +0.000 C 
ENDBRANCH  24  29
ENDBRANCH  18  21
ENDBRANCH  16  17
TORSDOF 3
ENDMDL
MODEL 8
REMARK VINA RESULT:      -7.4      1.697      4.818
REMARK  Name = 
REMARK  8 active torsions:
REMARK  status: ('A' for Active; 'I' for Inactive)
REMARK    1  A    between atoms: C_1  and  C_2
REMARK    2  A    between atoms: C_11  and  C_12
REMARK    3  A    between atoms: C_16  and  N_17
REMARK    4  A    between atoms: C_18  and  C_20
REMARK    5  A    between atoms: C_23  and  C_24
REMARK    6  A    between atoms: C_24  and  C_25
REMARK    7  A    between atoms: C_24  and  C_26
REMARK    8  A    between atoms: C_24  and  C_27
REMARK                            x       y       z     vdW  Elec       q    Type
REMARK                         _______ _______ _______ _____ _____    ______ ____
ROOT
ATOM      1  C   UNL     1      -4.422  10.748  15.591  0.00  0.00    +0.000 C 
ATOM      2  C   UNL     1      -3.335  10.751  16.625  0.00  0.00    +0.000 A 
ATOM      3  C   UNL     1      -3.157   9.647  17.463  0.00  0.00    +0.000 A 
ATOM      4  C   UNL     1      -2.149   9.646  18.427  0.00  0.00    +0.000 A 
ATOM      5  C   UNL     1      -1.273  10.737  18.550  0.00  0.00    +0.000 A 
ATOM      6  C   UNL     1      -1.476  11.856  17.743  0.00  0.00    +0.000 A 
ATOM      7  C   UNL     1      -2.501  11.865  16.788  0.00  0.00    +0.000 A 
ATOM      8  O   UNL     1      -0.717  12.997  17.825  0.00  0.00    +0.000 OA
ATOM      9  C   UNL     1       0.282  13.063  18.767  0.00  0.00    +0.000 A 
ATOM     10  C   UNL     1       0.959  14.286  18.853  0.00  0.00    +0.000 A 
ATOM     11  C   UNL     1       2.012  14.462  19.759  0.00  0.00    +0.000 A 
ATOM     12  C   UNL     1       2.746  15.766  19.852  0.00  0.00    +0.000 C 
ATOM     13  C   UNL     1       2.377  13.390  20.581  0.00  0.00    +0.000 A 
ATOM     14  C   UNL     1       1.693  12.173  20.505  0.00  0.00    +0.000 A 
ATOM     15  C   UNL     1       0.635  11.998  19.596  0.00  0.00    +0.000 A 
ATOM     16  C   UNL     1      -0.117  10.692  19.518  0.00  0.00    +0.000 C 
ENDROOT
BRANCH  16  17
ATOM     17  N   UNL     1       0.792   9.627  19.131  0.00  0.00    +0.000 N 
ATOM     18  C   UNL     1       1.162   8.624  19.976  0.00  0.00    +0.000 C 
ATOM     19  O   UNL     1       0.722   8.517  21.121  0.00  0.00    +0.000 OA
ATOM     20  H   UNL     1       1.144   9.632  18.175  0.00  0.00    +0.000 HD
BRANCH  18  21
ATOM     21  C   UNL     1       2.142   7.650  19.431  0.00  0.00    +0.000 A 
ATOM     22  C   UNL     1       2.423   6.565  20.173  0.00  0.00    +0.000 A 
ATOM     23  C   UNL     1       3.340   5.555  19.718  0.00  0.00    +0.000 A 
ATOM     24  C   UNL     1       3.917   5.633  18.506  0.00  0.00    +0.000 A 
ATOM     25  N   UNL     1       3.619   6.735  17.725  0.00  0.00    +0.000 N 
ATOM     26  C   UNL     1       2.814   7.784  18.109  0.00  0.00    +0.000 A 
ATOM     27  O   UNL     1       2.656   8.761  17.386  0.00  0.00    +0.000 OA
ATOM     28  H   UNL     1       4.013   6.844  16.798  0.00  0.00    +0.000 HD
BRANCH  24  29
ATOM     29  C   UNL     1       4.875   4.568  17.952  0.00  0.00    +0.000 C 
ATOM     30  C   UNL     1       4.457   3.196  18.512  0.00  0.00    +0.000 C 
ATOM     31  C   UNL     1       4.849   4.524  16.410  0.00  0.00    +0.000 C 
ATOM     32  C   UNL     1       6.344   4.824  18.370  0.00  0.00    +0.000 C 
ENDBRANCH  24  29
ENDBRANCH  18  21
ENDBRANCH  16  17
TORSDOF 3
ENDMDL
MODEL 9
REMARK VINA RESULT:      -7.3      1.935      4.849
REMARK  Name = 
REMARK  8 active torsions:
REMARK  status: ('A' for Active; 'I' for Inactive)
REMARK    1  A    between atoms: C_1  and  C_2
REMARK    2  A    between atoms: C_11  and  C_12
REMARK    3  A    between atoms: C_16  and  N_17
REMARK    4  A    between atoms: C_18  and  C_20
REMARK    5  A    between atoms: C_23  and  C_24
REMARK    6  A    between atoms: C_24  and  C_25
REMARK    7  A    between atoms: C_24  and  C_26
REMARK    8  A    between atoms: C_24  and  C_27
REMARK                            x       y       z     vdW  Elec       q    Type
REMARK                         _______ _______ _______ _____ _____    ______ ____
ROOT
ATOM      1  C   UNL     1      -4.534  10.772  15.821  0.00  0.00    +0.000 C 
ATOM      2  C   UNL     1      -3.387  10.761  16.786  0.00  0.00    +0.000 A 
ATOM      3  C   UNL     1      -3.143   9.637  17.579  0.00  0.00    +0.000 A 
ATOM      4  C   UNL     1      -2.079   9.623  18.480  0.00  0.00    +0.000 A 
ATOM      5  C   UNL     1      -1.211  10.723  18.582  0.00  0.00    +0.000 A 
ATOM      6  C   UNL     1      -1.478  11.862  17.822  0.00  0.00    +0.000 A 
ATOM      7  C   UNL     1      -2.559  11.883  16.932  0.00  0.00    +0.000 A 
ATOM      8  O   UNL     1      -0.730  13.011  17.891  0.00  0.00    +0.000 OA
ATOM      9  C   UNL     1       0.323  13.065  18.773  0.00  0.00    +0.000 A 
ATOM     10  C   UNL     1       0.988  14.294  18.854  0.00  0.00    +0.000 A 
ATOM     11  C   UNL     1       2.092  14.460  19.699  0.00  0.00    +0.000 A 
ATOM     12  C   UNL     1       2.812  15.772  19.787  0.00  0.00    +0.000 C 
ATOM     13  C   UNL     1       2.521  13.371  20.465  0.00  0.00    +0.000 A 
ATOM     14  C   UNL     1       1.849  12.147  20.396  0.00  0.00    +0.000 A 
ATOM     15  C   UNL     1       0.740  11.982  19.547  0.00  0.00    +0.000 A 
ATOM     16  C   UNL     1       0.001  10.667  19.476  0.00  0.00    +0.000 C 
ENDROOT
BRANCH  16  17
ATOM     17  N   UNL     1       0.899   9.627  19.004  0.00  0.00    +0.000 N 
ATOM     18  C   UNL     1       1.293   8.578  19.779  0.00  0.00    +0.000 C 
ATOM     19  O   UNL     1       0.885   8.405  20.928  0.00  0.00    +0.000 OA
ATOM     20  H   UNL     1       1.225   9.688  18.040  0.00  0.00    +0.000 HD
BRANCH  18  21
ATOM     21  C   UNL     1       2.257   7.639  19.152  0.00  0.00    +0.000 A 
ATOM     22  C   UNL     1       2.903   8.050  18.048  0.00  0.00    +0.000 A 
ATOM     23  C   UNL     1       3.873   7.220  17.385  0.00  0.00    +0.000 A 
ATOM     24  C   UNL     1       4.208   6.014  17.875  0.00  0.00    +0.000 A 
ATOM     25  N   UNL     1       3.564   5.588  19.024  0.00  0.00    +0.000 N 
ATOM     26  C   UNL     1       2.572   6.282  19.680  0.00  0.00    +0.000 A 
ATOM     27  O   UNL     1       2.000   5.804  20.652  0.00  0.00    +0.000 OA
ATOM     28  H   UNL     1       3.783   4.695  19.447  0.00  0.00    +0.000 HD
BRANCH  24  29
ATOM     29  C   UNL     1       5.262   5.099  17.232  0.00  0.00    +0.000 C 
ATOM     30  C   UNL     1       4.612   3.734  16.940  0.00  0.00    +0.000 C 
ATOM     31  C   UNL     1       5.812   5.699  15.921  0.00  0.00    +0.000 C 
ATOM     32  C   UNL     1       6.476   4.859  18.161  0.00  0.00    +0.000 C 
ENDBRANCH  24  29
ENDBRANCH  18  21
ENDBRANCH  16  17
TORSDOF 3
ENDMDL
