MODEL 1
REMARK VINA RESULT:      -6.1      0.000      0.000
REMARK  Name = 
REMARK  11 active torsions:
REMARK  status: ('A' for Active; 'I' for Inactive)
REMARK    1  A    between atoms: C_1  and  O_2
REMARK    2  A    between atoms: O_2  and  C_3
REMARK    3  A    between atoms: C_6  and  C_7
REMARK    4  A    between atoms: C_7  and  O_8
REMARK    5  A    between atoms: O_8  and  C_9
REMARK    6  A    between atoms: C_9  and  C_10
REMARK    7  A    between atoms: C_10  and  O_11
REMARK    8  A    between atoms: C_10  and  C_12
REMARK    9  A    between atoms: C_12  and  N_13
REMARK   10  A    between atoms: C_20  and  O_21
REMARK   11  A    between atoms: O_21  and  C_22
REMARK                            x       y       z     vdW  Elec       q    Type
REMARK                         _______ _______ _______ _____ _____    ______ ____
ROOT
ATOM      1  O   UNL     1       3.278   5.608  17.654  0.00  0.00    +0.000 OA
ENDROOT
BRANCH   1   2
ATOM      2  C   UNL     1       3.482   6.992  17.494  0.00  0.00    +0.000 C 
BRANCH   2   6
ATOM      3  C   UNL     1       0.940   9.096  20.292  0.00  0.00    +0.000 A 
ATOM      4  C   UNL     1       1.514   7.842  20.626  0.00  0.00    +0.000 A 
ATOM      5  C   UNL     1       2.333   7.165  19.722  0.00  0.00    +0.000 A 
ATOM      6  C   UNL     1       2.601   7.715  18.466  0.00  0.00    +0.000 A 
ATOM      7  C   UNL     1       2.037   8.947  18.120  0.00  0.00    +0.000 A 
ATOM      8  C   UNL     1       1.217   9.644  19.007  0.00  0.00    +0.000 A 
BRANCH   3  10
ATOM      9  C   UNL     1      -0.317   9.259  22.377  0.00  0.00    +0.000 C 
ATOM     10  O   UNL     1       0.165   9.767  21.185  0.00  0.00    +0.000 OA
ENDBRANCH   3  10
BRANCH   8  11
ATOM     11  O   UNL     1       0.727  10.827  18.543  0.00  0.00    +0.000 OA
ATOM     12  C   UNL     1       1.132  12.105  18.834  0.00  0.00    +0.000 C 
ENDBRANCH   8  11
ENDBRANCH   2   6
ENDBRANCH   1   2
BRANCH   1  13
ATOM     13  C   UNL     1       4.327   4.903  17.032  0.00  0.00    +0.000 C 
BRANCH  13  14
ATOM     14  C   UNL     1       4.895   3.902  18.040  0.00  0.00    +0.000 C 
BRANCH  14  15
ATOM     15  O   UNL     1       6.267   4.124  18.252  0.00  0.00    +0.000 OA
ATOM     16  H   UNL     1       6.698   4.202  17.360  0.00  0.00    +0.000 HD
ENDBRANCH  14  15
BRANCH  14  17
ATOM     17  C   UNL     1       4.121   3.941  19.372  0.00  0.00    +0.000 C 
BRANCH  17  18
ATOM     18  N   UNL     1       3.414   2.670  19.669  0.00  0.00    +0.000 NA
ATOM     19  C   UNL     1       2.434   2.250  18.641  0.00  0.00    +0.000 C 
ATOM     20  C   UNL     1       1.209   3.180  18.635  0.00  0.00    +0.000 C 
ATOM     21  O   UNL     1       0.572   3.163  19.899  0.00  0.00    +0.000 OA
ATOM     22  C   UNL     1       1.464   3.624  20.897  0.00  0.00    +0.000 C 
ATOM     23  C   UNL     1       2.722   2.732  20.973  0.00  0.00    +0.000 C 
ENDBRANCH  17  18
ENDBRANCH  14  17
ENDBRANCH  13  14
ENDBRANCH   1  13
TORSDOF 9
ENDMDL
MODEL 2
REMARK VINA RESULT:      -6.0      1.814      4.204
REMARK  Name = 
REMARK  11 active torsions:
REMARK  status: ('A' for Active; 'I' for Inactive)
REMARK    1  A    between atoms: C_1  and  O_2
REMARK    2  A    between atoms: O_2  and  C_3
REMARK    3  A    between atoms: C_6  and  C_7
REMARK    4  A    between atoms: C_7  and  O_8
REMARK    5  A    between atoms: O_8  and  C_9
REMARK    6  A    between atoms: C_9  and  C_10
REMARK    7  A    between atoms: C_10  and  O_11
REMARK    8  A    between atoms: C_10  and  C_12
REMARK    9  A    between atoms: C_12  and  N_13
REMARK   10  A    between atoms: C_20  and  O_21
REMARK   11  A    between atoms: O_21  and  C_22
REMARK                            x       y       z     vdW  Elec       q    Type
REMARK                         _______ _______ _______ _____ _____    ______ ____
ROOT
ATOM      1  O   UNL     1       2.151   4.979  18.886  0.00  0.00    +0.000 OA
ENDROOT
BRANCH   1   2
ATOM      2  C   UNL     1       2.623   5.848  19.888  0.00  0.00    +0.000 C 
BRANCH   2   6
ATOM      3  C   UNL     1       1.221   9.845  19.005  0.00  0.00    +0.000 A 
ATOM      4  C   UNL     1       1.862   9.059  18.012  0.00  0.00    +0.000 A 
ATOM      5  C   UNL     1       2.314   7.770  18.299  0.00  0.00    +0.000 A 
ATOM      6  C   UNL     1       2.142   7.232  19.576  0.00  0.00    +0.000 A 
ATOM      7  C   UNL     1       1.519   7.997  20.567  0.00  0.00    +0.000 A 
ATOM      8  C   UNL     1       1.057   9.288  20.304  0.00  0.00    +0.000 A 
BRANCH   3  10
ATOM      9  C   UNL     1       1.491  12.260  18.781  0.00  0.00    +0.000 C 
ATOM     10  O   UNL     1       0.758  11.089  18.715  0.00  0.00    +0.000 OA
ENDBRANCH   3  10
BRANCH   8  11
ATOM     11  O   UNL     1       0.476   9.926  21.358  0.00  0.00    +0.000 OA
ATOM     12  C   UNL     1       0.014   9.403  22.539  0.00  0.00    +0.000 C 
ENDBRANCH   8  11
ENDBRANCH   2   6
ENDBRANCH   1   2
BRANCH   1  13
ATOM     13  C   UNL     1       2.836   3.750  18.969  0.00  0.00    +0.000 C 
BRANCH  13  14
ATOM     14  C   UNL     1       4.332   4.025  18.812  0.00  0.00    +0.000 C 
BRANCH  14  15
ATOM     15  O   UNL     1       5.095   2.941  19.282  0.00  0.00    +0.000 OA
ATOM     16  H   UNL     1       4.599   2.532  20.039  0.00  0.00    +0.000 HD
ENDBRANCH  14  15
BRANCH  14  17
ATOM     17  C   UNL     1       4.695   4.359  17.351  0.00  0.00    +0.000 C 
BRANCH  17  18
ATOM     18  N   UNL     1       6.039   3.864  16.961  0.00  0.00    +0.000 NA
ATOM     19  C   UNL     1       7.170   4.666  17.481  0.00  0.00    +0.000 C 
ATOM     20  C   UNL     1       7.238   6.037  16.790  0.00  0.00    +0.000 C 
ATOM     21  O   UNL     1       7.404   5.877  15.393  0.00  0.00    +0.000 OA
ATOM     22  C   UNL     1       6.302   5.170  14.853  0.00  0.00    +0.000 C 
ATOM     23  C   UNL     1       6.172   3.772  15.492  0.00  0.00    +0.000 C 
ENDBRANCH  17  18
ENDBRANCH  14  17
ENDBRANCH  13  14
ENDBRANCH   1  13
TORSDOF 9
ENDMDL
MODEL 3
REMARK VINA RESULT:      -6.0      1.853      4.077
REMARK  Name = 
REMARK  11 active torsions:
REMARK  status: ('A' for Active; 'I' for Inactive)
REMARK    1  A    between atoms: C_1  and  O_2
REMARK    2  A    between atoms: O_2  and  C_3
REMARK    3  A    between atoms: C_6  and  C_7
REMARK    4  A    between atoms: C_7  and  O_8
REMARK    5  A    between atoms: O_8  and  C_9
REMARK    6  A    between atoms: C_9  and  C_10
REMARK    7  A    between atoms: C_10  and  O_11
REMARK    8  A    between atoms: C_10  and  C_12
REMARK    9  A    between atoms: C_12  and  N_13
REMARK   10  A    between atoms: C_20  and  O_21
REMARK   11  A    between atoms: O_21  and  C_22
REMARK                            x       y       z     vdW  Elec       q    Type
REMARK                         _______ _______ _______ _____ _____    ______ ____
ROOT
ATOM      1  O   UNL     1       2.056   4.851  19.131  0.00  0.00    +0.000 OA
ENDROOT
BRANCH   1   2
ATOM      2  C   UNL     1       2.876   5.814  19.749  0.00  0.00    +0.000 C 
BRANCH   2   6
ATOM      3  C   UNL     1       1.145   9.720  19.064  0.00  0.00    +0.000 A 
ATOM      4  C   UNL     1       1.866   9.050  18.042  0.00  0.00    +0.000 A 
ATOM      5  C   UNL     1       2.425   7.791  18.265  0.00  0.00    +0.000 A 
ATOM      6  C   UNL     1       2.281   7.167  19.506  0.00  0.00    +0.000 A 
ATOM      7  C   UNL     1       1.579   7.817  20.526  0.00  0.00    +0.000 A 
ATOM      8  C   UNL     1       1.011   9.076  20.327  0.00  0.00    +0.000 A 
BRANCH   3  10
ATOM      9  C   UNL     1       1.261  12.130  18.706  0.00  0.00    +0.000 C 
ATOM     10  O   UNL     1       0.580  10.934  18.837  0.00  0.00    +0.000 OA
ENDBRANCH   3  10
BRANCH   8  11
ATOM     11  O   UNL     1       0.360   9.600  21.404  0.00  0.00    +0.000 OA
ATOM     12  C   UNL     1       0.557   9.352  22.738  0.00  0.00    +0.000 C 
ENDBRANCH   8  11
ENDBRANCH   2   6
ENDBRANCH   1   2
BRANCH   1  13
ATOM     13  C   UNL     1       2.765   4.231  18.083  0.00  0.00    +0.000 C 
BRANCH  13  14
ATOM     14  C   UNL     1       4.019   3.583  18.672  0.00  0.00    +0.000 C 
BRANCH  14  15
ATOM     15  O   UNL     1       4.037   2.199  18.421  0.00  0.00    +0.000 OA
ATOM     16  H   UNL     1       3.164   1.959  18.011  0.00  0.00    +0.000 HD
ENDBRANCH  14  15
BRANCH  14  17
ATOM     17  C   UNL     1       5.303   4.252  18.142  0.00  0.00    +0.000 C 
BRANCH  17  18
ATOM     18  N   UNL     1       5.037   5.245  17.070  0.00  0.00    +0.000 NA
ATOM     19  C   UNL     1       5.410   4.801  15.708  0.00  0.00    +0.000 C 
ATOM     20  C   UNL     1       6.937   4.721  15.552  0.00  0.00    +0.000 C 
ATOM     21  O   UNL     1       7.524   5.988  15.790  0.00  0.00    +0.000 OA
ATOM     22  C   UNL     1       7.241   6.412  17.111  0.00  0.00    +0.000 C 
ATOM     23  C   UNL     1       5.720   6.526  17.345  0.00  0.00    +0.000 C 
ENDBRANCH  17  18
ENDBRANCH  14  17
ENDBRANCH  13  14
ENDBRANCH   1  13
TORSDOF 9
ENDMDL
MODEL 4
REMARK VINA RESULT:      -6.0      1.012      1.035
REMARK  Name = 
REMARK  11 active torsions:
REMARK  status: ('A' for Active; 'I' for Inactive)
REMARK    1  A    between atoms: C_1  and  O_2
REMARK    2  A    between atoms: O_2  and  C_3
REMARK    3  A    between atoms: C_6  and  C_7
REMARK    4  A    between atoms: C_7  and  O_8
REMARK    5  A    between atoms: O_8  and  C_9
REMARK    6  A    between atoms: C_9  and  C_10
REMARK    7  A    between atoms: C_10  and  O_11
REMARK    8  A    between atoms: C_10  and  C_12
REMARK    9  A    between atoms: C_12  and  N_13
REMARK   10  A    between atoms: C_20  and  O_21
REMARK   11  A    between atoms: O_21  and  C_22
REMARK                            x       y       z     vdW  Elec       q    Type
REMARK                         _______ _______ _______ _____ _____    ______ ____
ROOT
ATOM      1  O   UNL     1       3.167   6.141  18.128  0.00  0.00    +0.000 OA
ENDROOT
BRANCH   1   2
ATOM      2  C   UNL     1       2.961   7.467  17.705  0.00  0.00    +0.000 C 
BRANCH   2   6
ATOM      3  C   UNL     1       0.556   9.506  20.668  0.00  0.00    +0.000 A 
ATOM      4  C   UNL     1       1.262   8.318  20.991  0.00  0.00    +0.000 A 
ATOM      5  C   UNL     1       2.037   7.661  20.033  0.00  0.00    +0.000 A 
ATOM      6  C   UNL     1       2.128   8.167  18.735  0.00  0.00    +0.000 A 
ATOM      7  C   UNL     1       1.433   9.333  18.400  0.00  0.00    +0.000 A 
ATOM      8  C   UNL     1       0.653  10.009  19.340  0.00  0.00    +0.000 A 
BRANCH   3  10
ATOM      9  C   UNL     1      -0.515   9.663  22.855  0.00  0.00    +0.000 C 
ATOM     10  O   UNL     1      -0.175  10.158  21.609  0.00  0.00    +0.000 OA
ENDBRANCH   3  10
BRANCH   8  11
ATOM     11  O   UNL     1       0.023  11.126  18.882  0.00  0.00    +0.000 OA
ATOM     12  C   UNL     1      -1.208  11.244  18.289  0.00  0.00    +0.000 C 
ENDBRANCH   8  11
ENDBRANCH   2   6
ENDBRANCH   1   2
BRANCH   1  13
ATOM     13  C   UNL     1       4.522   5.796  17.953  0.00  0.00    +0.000 C 
BRANCH  13  14
ATOM     14  C   UNL     1       4.800   4.523  18.755  0.00  0.00    +0.000 C 
BRANCH  14  15
ATOM     15  O   UNL     1       6.076   4.567  19.343  0.00  0.00    +0.000 OA
ATOM     16  H   UNL     1       6.658   5.118  18.754  0.00  0.00    +0.000 HD
ENDBRANCH  14  15
BRANCH  14  17
ATOM     17  C   UNL     1       3.713   4.279  19.821  0.00  0.00    +0.000 C 
BRANCH  17  18
ATOM     18  N   UNL     1       3.391   2.841  19.999  0.00  0.00    +0.000 NA
ATOM     19  C   UNL     1       3.286   2.067  18.741  0.00  0.00    +0.000 C 
ATOM     20  C   UNL     1       2.033   2.471  17.948  0.00  0.00    +0.000 C 
ATOM     21  O   UNL     1       0.867   2.239  18.718  0.00  0.00    +0.000 OA
ATOM     22  C   UNL     1       0.905   3.018  19.900  0.00  0.00    +0.000 C 
ATOM     23  C   UNL     1       2.137   2.662  20.760  0.00  0.00    +0.000 C 
ENDBRANCH  17  18
ENDBRANCH  14  17
ENDBRANCH  13  14
ENDBRANCH   1  13
TORSDOF 9
ENDMDL
MODEL 5
REMARK VINA RESULT:      -6.0      1.077      1.184
REMARK  Name = 
REMARK  11 active torsions:
REMARK  status: ('A' for Active; 'I' for Inactive)
REMARK    1  A    between atoms: C_1  and  O_2
REMARK    2  A    between atoms: O_2  and  C_3
REMARK    3  A    between atoms: C_6  and  C_7
REMARK    4  A    between atoms: C_7  and  O_8
REMARK    5  A    between atoms: O_8  and  C_9
REMARK    6  A    between atoms: C_9  and  C_10
REMARK    7  A    between atoms: C_10  and  O_11
REMARK    8  A    between atoms: C_10  and  C_12
REMARK    9  A    between atoms: C_12  and  N_13
REMARK   10  A    between atoms: C_20  and  O_21
REMARK   11  A    between atoms: O_21  and  C_22
REMARK                            x       y       z     vdW  Elec       q    Type
REMARK                         _______ _______ _______ _____ _____    ______ ____
ROOT
ATOM      1  O   UNL     1       3.351   6.364  17.919  0.00  0.00    +0.000 OA
ENDROOT
BRANCH   1   2
ATOM      2  C   UNL     1       3.122   7.728  17.656  0.00  0.00    +0.000 C 
BRANCH   2   6
ATOM      3  C   UNL     1       0.417   9.278  20.657  0.00  0.00    +0.000 A 
ATOM      4  C   UNL     1       1.228   8.143  20.919  0.00  0.00    +0.000 A 
ATOM      5  C   UNL     1       2.100   7.644  19.950  0.00  0.00    +0.000 A 
ATOM      6  C   UNL     1       2.186   8.259  18.698  0.00  0.00    +0.000 A 
ATOM      7  C   UNL     1       1.388   9.373  18.422  0.00  0.00    +0.000 A 
ATOM      8  C   UNL     1       0.510   9.891  19.375  0.00  0.00    +0.000 A 
BRANCH   3  10
ATOM      9  C   UNL     1      -0.256   9.622  22.976  0.00  0.00    +0.000 C 
ATOM     10  O   UNL     1      -0.410   9.777  21.611  0.00  0.00    +0.000 OA
ENDBRANCH   3  10
BRANCH   8  11
ATOM     11  O   UNL     1      -0.213  10.974  18.976  0.00  0.00    +0.000 OA
ATOM     12  C   UNL     1      -1.558  11.072  18.728  0.00  0.00    +0.000 C 
ENDBRANCH   8  11
ENDBRANCH   2   6
ENDBRANCH   1   2
BRANCH   1  13
ATOM     13  C   UNL     1       4.728   6.089  17.809  0.00  0.00    +0.000 C 
BRANCH  13  14
ATOM     14  C   UNL     1       5.039   4.853  18.655  0.00  0.00    +0.000 C 
BRANCH  14  15
ATOM     15  O   UNL     1       6.267   4.997  19.325  0.00  0.00    +0.000 OA
ATOM     16  H   UNL     1       6.146   5.693  20.024  0.00  0.00    +0.000 HD
ENDBRANCH  14  15
BRANCH  14  17
ATOM     17  C   UNL     1       3.902   4.550  19.651  0.00  0.00    +0.000 C 
BRANCH  17  18
ATOM     18  N   UNL     1       3.195   3.280  19.353  0.00  0.00    +0.000 NA
ATOM     19  C   UNL     1       1.770   3.435  18.979  0.00  0.00    +0.000 C 
ATOM     20  C   UNL     1       0.928   3.871  20.189  0.00  0.00    +0.000 C 
ATOM     21  O   UNL     1       1.019   2.911  21.225  0.00  0.00    +0.000 OA
ATOM     22  C   UNL     1       2.364   2.786  21.652  0.00  0.00    +0.000 C 
ATOM     23  C   UNL     1       3.277   2.340  20.490  0.00  0.00    +0.000 C 
ENDBRANCH  17  18
ENDBRANCH  14  17
ENDBRANCH  13  14
ENDBRANCH   1  13
TORSDOF 9
ENDMDL
MODEL 6
REMARK VINA RESULT:      -5.9      1.759      4.004
REMARK  Name = 
REMARK  11 active torsions:
REMARK  status: ('A' for Active; 'I' for Inactive)
REMARK    1  A    between atoms: C_1  and  O_2
REMARK    2  A    between atoms: O_2  and  C_3
REMARK    3  A    between atoms: C_6  and  C_7
REMARK    4  A    between atoms: C_7  and  O_8
REMARK    5  A    between atoms: O_8  and  C_9
REMARK    6  A    between atoms: C_9  and  C_10
REMARK    7  A    between atoms: C_10  and  O_11
REMARK    8  A    between atoms: C_10  and  C_12
REMARK    9  A    between atoms: C_12  and  N_13
REMARK   10  A    between atoms: C_20  and  O_21
REMARK   11  A    between atoms: O_21  and  C_22
REMARK                            x       y       z     vdW  Elec       q    Type
REMARK                         _______ _______ _______ _____ _____    ______ ____
ROOT
ATOM      1  O   UNL     1       3.284   5.238  19.986  0.00  0.00    +0.000 OA
ENDROOT
BRANCH   1   2
ATOM      2  C   UNL     1       2.127   5.685  20.653  0.00  0.00    +0.000 C 
BRANCH   2   6
ATOM      3  C   UNL     1       1.183   9.670  19.257  0.00  0.00    +0.000 A 
ATOM      4  C   UNL     1       1.918   8.767  18.447  0.00  0.00    +0.000 A 
ATOM      5  C   UNL     1       2.222   7.482  18.899  0.00  0.00    +0.000 A 
ATOM      6  C   UNL     1       1.805   7.064  20.164  0.00  0.00    +0.000 A 
ATOM      7  C   UNL     1       1.086   7.945  20.978  0.00  0.00    +0.000 A 
ATOM      8  C   UNL     1       0.769   9.235  20.548  0.00  0.00    +0.000 A 
BRANCH   3  10
ATOM      9  C   UNL     1       1.729  11.988  18.724  0.00  0.00    +0.000 C 
ATOM     10  O   UNL     1       0.865  10.911  18.804  0.00  0.00    +0.000 OA
ENDBRANCH   3  10
BRANCH   8  11
ATOM     11  O   UNL     1       0.071   9.993  21.439  0.00  0.00    +0.000 OA
ATOM     12  C   UNL     1      -0.067   9.828  22.793  0.00  0.00    +0.000 C 
ENDBRANCH   8  11
ENDBRANCH   2   6
ENDBRANCH   1   2
BRANCH   1  13
ATOM     13  C   UNL     1       3.135   3.879  19.648  0.00  0.00    +0.000 C 
BRANCH  13  14
ATOM     14  C   UNL     1       4.518   3.313  19.317  0.00  0.00    +0.000 C 
BRANCH  14  15
ATOM     15  O   UNL     1       4.430   2.301  18.346  0.00  0.00    +0.000 OA
ATOM     16  H   UNL     1       5.333   1.898  18.250  0.00  0.00    +0.000 HD
ENDBRANCH  14  15
BRANCH  14  17
ATOM     17  C   UNL     1       5.489   4.423  18.866  0.00  0.00    +0.000 C 
BRANCH  17  18
ATOM     18  N   UNL     1       5.800   4.364  17.416  0.00  0.00    +0.000 NA
ATOM     19  C   UNL     1       7.172   4.790  17.058  0.00  0.00    +0.000 C 
ATOM     20  C   UNL     1       7.348   6.305  17.254  0.00  0.00    +0.000 C 
ATOM     21  O   UNL     1       6.430   7.016  16.444  0.00  0.00    +0.000 OA
ATOM     22  C   UNL     1       5.103   6.680  16.807  0.00  0.00    +0.000 C 
ATOM     23  C   UNL     1       4.843   5.169  16.628  0.00  0.00    +0.000 C 
ENDBRANCH  17  18
ENDBRANCH  14  17
ENDBRANCH  13  14
ENDBRANCH   1  13
TORSDOF 9
ENDMDL
MODEL 7
REMARK VINA RESULT:      -5.9      2.640      6.836
REMARK  Name = 
REMARK  11 active torsions:
REMARK  status: ('A' for Active; 'I' for Inactive)
REMARK    1  A    between atoms: C_1  and  O_2
REMARK    2  A    between atoms: O_2  and  C_3
REMARK    3  A    between atoms: C_6  and  C_7
REMARK    4  A    between atoms: C_7  and  O_8
REMARK    5  A    between atoms: O_8  and  C_9
REMARK    6  A    between atoms: C_9  and  C_10
REMARK    7  A    between atoms: C_10  and  O_11
REMARK    8  A    between atoms: C_10  and  C_12
REMARK    9  A    between atoms: C_12  and  N_13
REMARK   10  A    between atoms: C_20  and  O_21
REMARK   11  A    between atoms: O_21  and  C_22
REMARK                            x       y       z     vdW  Elec       q    Type
REMARK                         _______ _______ _______ _____ _____    ______ ____
ROOT
ATOM      1  O   UNL     1       1.593   8.961  18.137  0.00  0.00    +0.000 OA
ENDROOT
BRANCH   1   2
ATOM      2  C   UNL     1       2.658   8.047  18.028  0.00  0.00    +0.000 C 
BRANCH   2   6
ATOM      3  C   UNL     1       1.501   4.365  19.983  0.00  0.00    +0.000 A 
ATOM      4  C   UNL     1       1.654   5.567  20.721  0.00  0.00    +0.000 A 
ATOM      5  C   UNL     1       2.028   6.754  20.089  0.00  0.00    +0.000 A 
ATOM      6  C   UNL     1       2.259   6.774  18.711  0.00  0.00    +0.000 A 
ATOM      7  C   UNL     1       2.119   5.596  17.972  0.00  0.00    +0.000 A 
ATOM      8  C   UNL     1       1.744   4.397  18.581  0.00  0.00    +0.000 A 
BRANCH   3  10
ATOM      9  C   UNL     1       1.803   2.560  21.598  0.00  0.00    +0.000 C 
ATOM     10  O   UNL     1       1.111   3.217  20.597  0.00  0.00    +0.000 OA
ENDBRANCH   3  10
BRANCH   8  11
ATOM     11  O   UNL     1       1.651   3.323  17.748  0.00  0.00    +0.000 OA
ATOM     12  C   UNL     1       2.586   2.359  17.471  0.00  0.00    +0.000 C 
ENDBRANCH   8  11
ENDBRANCH   2   6
ENDBRANCH   1   2
BRANCH   1  13
ATOM     13  C   UNL     1       2.091  10.275  18.040  0.00  0.00    +0.000 C 
BRANCH  13  14
ATOM     14  C   UNL     1       1.061  11.224  18.656  0.00  0.00    +0.000 C 
BRANCH  14  15
ATOM     15  O   UNL     1      -0.181  11.110  18.007  0.00  0.00    +0.000 OA
ATOM     16  H   UNL     1      -0.007  10.793  17.081  0.00  0.00    +0.000 HD
ENDBRANCH  14  15
BRANCH  14  17
ATOM     17  C   UNL     1       0.911  10.987  20.172  0.00  0.00    +0.000 C 
BRANCH  17  18
ATOM     18  N   UNL     1      -0.424  10.456  20.545  0.00  0.00    +0.000 NA
ATOM     19  C   UNL     1      -1.315  11.430  21.215  0.00  0.00    +0.000 C 
ATOM     20  C   UNL     1      -0.811  11.756  22.630  0.00  0.00    +0.000 C 
ATOM     21  O   UNL     1      -0.757  10.580  23.417  0.00  0.00    +0.000 OA
ATOM     22  C   UNL     1       0.141   9.651  22.837  0.00  0.00    +0.000 C 
ATOM     23  C   UNL     1      -0.304   9.264  21.411  0.00  0.00    +0.000 C 
ENDBRANCH  17  18
ENDBRANCH  14  17
ENDBRANCH  13  14
ENDBRANCH   1  13
TORSDOF 9
ENDMDL
MODEL 8
REMARK VINA RESULT:      -5.9      1.960      4.009
REMARK  Name = 
REMARK  11 active torsions:
REMARK  status: ('A' for Active; 'I' for Inactive)
REMARK    1  A    between atoms: C_1  and  O_2
REMARK    2  A    between atoms: O_2  and  C_3
REMARK    3  A    between atoms: C_6  and  C_7
REMARK    4  A    between atoms: C_7  and  O_8
REMARK    5  A    between atoms: O_8  and  C_9
REMARK    6  A    between atoms: C_9  and  C_10
REMARK    7  A    between atoms: C_10  and  O_11
REMARK    8  A    between atoms: C_10  and  C_12
REMARK    9  A    between atoms: C_12  and  N_13
REMARK   10  A    between atoms: C_20  and  O_21
REMARK   11  A    between atoms: O_21  and  C_22
REMARK                            x       y       z     vdW  Elec       q    Type
REMARK                         _______ _______ _______ _____ _____    ______ ____
ROOT
ATOM      1  O   UNL     1       2.124   5.054  19.487  0.00  0.00    +0.000 OA
ENDROOT
BRANCH   1   2
ATOM      2  C   UNL     1       3.024   6.135  19.551  0.00  0.00    +0.000 C 
BRANCH   2   6
ATOM      3  C   UNL     1       0.768   9.803  19.139  0.00  0.00    +0.000 A 
ATOM      4  C   UNL     1       1.496   9.266  18.046  0.00  0.00    +0.000 A 
ATOM      5  C   UNL     1       2.224   8.083  18.181  0.00  0.00    +0.000 A 
ATOM      6  C   UNL     1       2.246   7.406  19.403  0.00  0.00    +0.000 A 
ATOM      7  C   UNL     1       1.539   7.926  20.491  0.00  0.00    +0.000 A 
ATOM      8  C   UNL     1       0.803   9.107  20.380  0.00  0.00    +0.000 A 
BRANCH   3  10
ATOM      9  C   UNL     1      -1.075  11.091  18.191  0.00  0.00    +0.000 C 
ATOM     10  O   UNL     1       0.038  10.941  18.997  0.00  0.00    +0.000 OA
ENDBRANCH   3  10
BRANCH   8  11
ATOM     11  O   UNL     1       0.166   9.507  21.516  0.00  0.00    +0.000 OA
ATOM     12  C   UNL     1      -0.071  10.778  21.973  0.00  0.00    +0.000 C 
ENDBRANCH   8  11
ENDBRANCH   2   6
ENDBRANCH   1   2
BRANCH   1  13
ATOM     13  C   UNL     1       2.297   4.370  18.268  0.00  0.00    +0.000 C 
BRANCH  13  14
ATOM     14  C   UNL     1       3.719   3.808  18.231  0.00  0.00    +0.000 C 
BRANCH  14  15
ATOM     15  O   UNL     1       3.750   2.485  18.707  0.00  0.00    +0.000 OA
ATOM     16  H   UNL     1       3.533   1.887  17.943  0.00  0.00    +0.000 HD
ENDBRANCH  14  15
BRANCH  14  17
ATOM     17  C   UNL     1       4.325   3.896  16.816  0.00  0.00    +0.000 C 
BRANCH  17  18
ATOM     18  N   UNL     1       4.996   5.194  16.554  0.00  0.00    +0.000 NA
ATOM     19  C   UNL     1       5.555   5.340  15.191  0.00  0.00    +0.000 C 
ATOM     20  C   UNL     1       6.774   4.424  14.994  0.00  0.00    +0.000 C 
ATOM     21  O   UNL     1       7.786   4.743  15.933  0.00  0.00    +0.000 OA
ATOM     22  C   UNL     1       7.303   4.549  17.250  0.00  0.00    +0.000 C 
ATOM     23  C   UNL     1       6.077   5.445  17.529  0.00  0.00    +0.000 C 
ENDBRANCH  17  18
ENDBRANCH  14  17
ENDBRANCH  13  14
ENDBRANCH   1  13
TORSDOF 9
ENDMDL
MODEL 9
REMARK VINA RESULT:      -5.9      5.738      6.328
REMARK  Name = 
REMARK  11 active torsions:
REMARK  status: ('A' for Active; 'I' for Inactive)
REMARK    1  A    between atoms: C_1  and  O_2
REMARK    2  A    between atoms: O_2  and  C_3
REMARK    3  A    between atoms: C_6  and  C_7
REMARK    4  A    between atoms: C_7  and  O_8
REMARK    5  A    between atoms: O_8  and  C_9
REMARK    6  A    between atoms: C_9  and  C_10
REMARK    7  A    between atoms: C_10  and  O_11
REMARK    8  A    between atoms: C_10  and  C_12
REMARK    9  A    between atoms: C_12  and  N_13
REMARK   10  A    between atoms: C_20  and  O_21
REMARK   11  A    between atoms: O_21  and  C_22
REMARK                            x       y       z     vdW  Elec       q    Type
REMARK                         _______ _______ _______ _____ _____    ______ ____
ROOT
ATOM      1  O   UNL     1       8.180   7.603  18.483  0.00  0.00    +0.000 OA
ENDROOT
BRANCH   1   2
ATOM      2  C   UNL     1       7.968   8.730  17.665  0.00  0.00    +0.000 C 
BRANCH   2   6
ATOM      3  C   UNL     1       9.788  12.170  19.556  0.00  0.00    +0.000 A 
ATOM      4  C   UNL     1       9.914  10.874  20.120  0.00  0.00    +0.000 A 
ATOM      5  C   UNL     1       9.325   9.766  19.509  0.00  0.00    +0.000 A 
ATOM      6  C   UNL     1       8.599   9.917  18.326  0.00  0.00    +0.000 A 
ATOM      7  C   UNL     1       8.460  11.189  17.761  0.00  0.00    +0.000 A 
ATOM      8  C   UNL     1       9.040  12.312  18.352  0.00  0.00    +0.000 A 
BRANCH   3  10
ATOM      9  C   UNL     1       9.987  13.847  21.317  0.00  0.00    +0.000 C 
ATOM     10  O   UNL     1      10.384  13.243  20.138  0.00  0.00    +0.000 OA
ENDBRANCH   3  10
BRANCH   8  11
ATOM     11  O   UNL     1       8.823  13.491  17.705  0.00  0.00    +0.000 OA
ATOM     12  C   UNL     1       7.981  14.520  18.040  0.00  0.00    +0.000 C 
ENDBRANCH   8  11
ENDBRANCH   2   6
ENDBRANCH   1   2
BRANCH   1  13
ATOM     13  C   UNL     1       7.593   6.471  17.885  0.00  0.00    +0.000 C 
BRANCH  13  14
ATOM     14  C   UNL     1       7.302   5.446  18.983  0.00  0.00    +0.000 C 
BRANCH  14  15
ATOM     15  O   UNL     1       7.934   5.805  20.187  0.00  0.00    +0.000 OA
ATOM     16  H   UNL     1       7.481   5.312  20.921  0.00  0.00    +0.000 HD
ENDBRANCH  14  15
BRANCH  14  17
ATOM     17  C   UNL     1       5.786   5.260  19.194  0.00  0.00    +0.000 C 
BRANCH  17  18
ATOM     18  N   UNL     1       5.249   4.062  18.503  0.00  0.00    +0.000 NA
ATOM     19  C   UNL     1       4.397   4.353  17.327  0.00  0.00    +0.000 C 
ATOM     20  C   UNL     1       3.057   4.972  17.756  0.00  0.00    +0.000 C 
ATOM     21  O   UNL     1       2.357   4.086  18.611  0.00  0.00    +0.000 OA
ATOM     22  C   UNL     1       3.118   3.839  19.780  0.00  0.00    +0.000 C 
ATOM     23  C   UNL     1       4.482   3.206  19.431  0.00  0.00    +0.000 C 
ENDBRANCH  17  18
ENDBRANCH  14  17
ENDBRANCH  13  14
ENDBRANCH   1  13
TORSDOF 9
ENDMDL
