MODEL 1
REMARK VINA RESULT:      -8.2      0.000      0.000
REMARK  Name = 
REMARK  10 active torsions:
REMARK  status: ('A' for Active; 'I' for Inactive)
REMARK    1  A    between atoms: C_1  and  O_2
REMARK    2  A    between atoms: O_2  and  C_3
REMARK    3  A    between atoms: C_8  and  O_9
REMARK    4  A    between atoms: O_9  and  C_10
REMARK    5  A    between atoms: C_10  and  C_11
REMARK    6  A    between atoms: C_21  and  C_22
REMARK    7  A    between atoms: C_22  and  C_23
REMARK    8  A    between atoms: C_23  and  O_24
REMARK    9  A    between atoms: O_24  and  C_25
REMARK   10  A    between atoms: C_25  and  C_26
REMARK                            x       y       z     vdW  Elec       q    Type
REMARK                         _______ _______ _______ _____ _____    ______ ____
ROOT
ATOM      1  C   UNL     1       2.624   5.739  19.896  0.00  0.00    +0.000 A 
ATOM      2  C   UNL     1       1.945   6.700  20.637  0.00  0.00    +0.000 A 
ATOM      3  C   UNL     1       1.638   7.972  20.120  0.00  0.00    +0.000 A 
ATOM      4  C   UNL     1       1.968   8.294  18.799  0.00  0.00    +0.000 A 
ATOM      5  C   UNL     1       2.616   7.308  18.045  0.00  0.00    +0.000 A 
ATOM      6  C   UNL     1       2.922   6.033  18.561  0.00  0.00    +0.000 A 
ATOM      7  N   UNL     1       1.826   9.539  18.159  0.00  0.00    +0.000 NA
ATOM      8  C   UNL     1       0.850  10.364  18.410  0.00  0.00    +0.000 C 
ATOM      9  C   UNL     1      -0.286  10.142  19.379  0.00  0.00    +0.000 C 
ATOM     10  C   UNL     1      -1.208  11.376  19.561  0.00  0.00    +0.000 C 
ATOM     11  C   UNL     1      -1.051  11.705  21.027  0.00  0.00    +0.000 C 
ATOM     12  C   UNL     1      -0.186  10.862  21.590  0.00  0.00    +0.000 C 
ATOM     13  N   UNL     1       0.317   9.957  20.699  0.00  0.00    +0.000 N 
ATOM     14  C   UNL     1       1.103   8.913  21.113  0.00  0.00    +0.000 C 
ATOM     15  O   UNL     1       1.377   8.726  22.303  0.00  0.00    +0.000 OA
ENDROOT
BRANCH   1  17
ATOM     16  C   UNL     1       2.005   3.765  21.070  0.00  0.00    +0.000 C 
ATOM     17  O   UNL     1       3.025   4.537  20.426  0.00  0.00    +0.000 OA
ENDBRANCH   1  17
BRANCH   6  18
ATOM     18  O   UNL     1       3.530   5.064  17.800  0.00  0.00    +0.000 OA
BRANCH  18  19
ATOM     19  C   UNL     1       4.476   5.582  16.856  0.00  0.00    +0.000 C 
BRANCH  19  20
ATOM     20  C   UNL     1       5.752   6.011  17.527  0.00  0.00    +0.000 A 
ATOM     21  C   UNL     1       6.335   5.244  18.542  0.00  0.00    +0.000 A 
ATOM     22  C   UNL     1       7.535   5.645  19.125  0.00  0.00    +0.000 A 
ATOM     23  C   UNL     1       8.171   6.805  18.683  0.00  0.00    +0.000 A 
ATOM     24  C   UNL     1       7.616   7.559  17.651  0.00  0.00    +0.000 A 
ATOM     25  C   UNL     1       6.414   7.160  17.069  0.00  0.00    +0.000 A 
ENDBRANCH  19  20
ENDBRANCH  18  19
ENDBRANCH   6  18
BRANCH  11  26
ATOM     26  C   UNL     1      -1.845  12.725  21.778  0.00  0.00    +0.000 C 
BRANCH  26  27
ATOM     27  C   UNL     1      -2.681  12.171  22.943  0.00  0.00    +0.000 C 
BRANCH  27  28
ATOM     28  O   UNL     1      -4.089  12.383  22.698  0.00  0.00    +0.000 OA
BRANCH  28  29
ATOM     29  C   UNL     1      -4.832  12.705  23.791  0.00  0.00    +0.000 C 
ATOM     30  C   UNL     1      -5.475  14.053  23.653  0.00  0.00    +0.000 C 
ATOM     31  O   UNL     1      -4.955  12.002  24.787  0.00  0.00    +0.000 OA
ENDBRANCH  28  29
ENDBRANCH  27  28
ENDBRANCH  26  27
ENDBRANCH  11  26
TORSDOF 8
ENDMDL
MODEL 2
REMARK VINA RESULT:      -7.9      0.542      1.036
REMARK  Name = 
REMARK  10 active torsions:
REMARK  status: ('A' for Active; 'I' for Inactive)
REMARK    1  A    between atoms: C_1  and  O_2
REMARK    2  A    between atoms: O_2  and  C_3
REMARK    3  A    between atoms: C_8  and  O_9
REMARK    4  A    between atoms: O_9  and  C_10
REMARK    5  A    between atoms: C_10  and  C_11
REMARK    6  A    between atoms: C_21  and  C_22
REMARK    7  A    between atoms: C_22  and  C_23
REMARK    8  A    between atoms: C_23  and  O_24
REMARK    9  A    between atoms: O_24  and  C_25
REMARK   10  A    between atoms: C_25  and  C_26
REMARK                            x       y       z     vdW  Elec       q    Type
REMARK                         _______ _______ _______ _____ _____    ______ ____
ROOT
ATOM      1  C   UNL     1       2.626   5.701  19.821  0.00  0.00    +0.000 A 
ATOM      2  C   UNL     1       1.916   6.648  20.550  0.00  0.00    +0.000 A 
ATOM      3  C   UNL     1       1.634   7.930  20.046  0.00  0.00    +0.000 A 
ATOM      4  C   UNL     1       2.022   8.277  18.747  0.00  0.00    +0.000 A 
ATOM      5  C   UNL     1       2.702   7.305  18.003  0.00  0.00    +0.000 A 
ATOM      6  C   UNL     1       2.983   6.020  18.507  0.00  0.00    +0.000 A 
ATOM      7  N   UNL     1       1.910   9.535  18.126  0.00  0.00    +0.000 NA
ATOM      8  C   UNL     1       0.925  10.357  18.350  0.00  0.00    +0.000 C 
ATOM      9  C   UNL     1      -0.253  10.119  19.263  0.00  0.00    +0.000 C 
ATOM     10  C   UNL     1      -1.181  11.351  19.429  0.00  0.00    +0.000 C 
ATOM     11  C   UNL     1      -1.088  11.650  20.907  0.00  0.00    +0.000 C 
ATOM     12  C   UNL     1      -0.249  10.795  21.490  0.00  0.00    +0.000 C 
ATOM     13  N   UNL     1       0.291   9.906  20.605  0.00  0.00    +0.000 N 
ATOM     14  C   UNL     1       1.057   8.853  21.032  0.00  0.00    +0.000 C 
ATOM     15  O   UNL     1       1.278   8.642  22.229  0.00  0.00    +0.000 OA
ENDROOT
BRANCH   1  17
ATOM     16  C   UNL     1       2.167   3.968  21.386  0.00  0.00    +0.000 C 
ATOM     17  O   UNL     1       3.002   4.488  20.344  0.00  0.00    +0.000 OA
ENDBRANCH   1  17
BRANCH   6  18
ATOM     18  O   UNL     1       3.623   5.065  17.754  0.00  0.00    +0.000 OA
BRANCH  18  19
ATOM     19  C   UNL     1       4.548   5.605  16.802  0.00  0.00    +0.000 C 
BRANCH  19  20
ATOM     20  C   UNL     1       5.834   6.031  17.458  0.00  0.00    +0.000 A 
ATOM     21  C   UNL     1       6.492   7.206  17.075  0.00  0.00    +0.000 A 
ATOM     22  C   UNL     1       7.662   7.596  17.720  0.00  0.00    +0.000 A 
ATOM     23  C   UNL     1       8.173   6.826  18.765  0.00  0.00    +0.000 A 
ATOM     24  C   UNL     1       7.509   5.672  19.176  0.00  0.00    +0.000 A 
ATOM     25  C   UNL     1       6.338   5.279  18.528  0.00  0.00    +0.000 A 
ENDBRANCH  19  20
ENDBRANCH  18  19
ENDBRANCH   6  18
BRANCH  11  26
ATOM     26  C   UNL     1      -1.913  12.657  21.642  0.00  0.00    +0.000 C 
BRANCH  26  27
ATOM     27  C   UNL     1      -2.390  12.215  23.035  0.00  0.00    +0.000 C 
BRANCH  27  28
ATOM     28  O   UNL     1      -3.271  13.208  23.605  0.00  0.00    +0.000 OA
BRANCH  28  29
ATOM     29  C   UNL     1      -4.488  13.322  23.010  0.00  0.00    +0.000 C 
ATOM     30  C   UNL     1      -4.814  14.746  22.668  0.00  0.00    +0.000 C 
ATOM     31  O   UNL     1      -5.252  12.389  22.792  0.00  0.00    +0.000 OA
ENDBRANCH  28  29
ENDBRANCH  27  28
ENDBRANCH  26  27
ENDBRANCH  11  26
TORSDOF 8
ENDMDL
MODEL 3
REMARK VINA RESULT:      -7.9      2.600      3.600
REMARK  Name = 
REMARK  10 active torsions:
REMARK  status: ('A' for Active; 'I' for Inactive)
REMARK    1  A    between atoms: C_1  and  O_2
REMARK    2  A    between atoms: O_2  and  C_3
REMARK    3  A    between atoms: C_8  and  O_9
REMARK    4  A    between atoms: O_9  and  C_10
REMARK    5  A    between atoms: C_10  and  C_11
REMARK    6  A    between atoms: C_21  and  C_22
REMARK    7  A    between atoms: C_22  and  C_23
REMARK    8  A    between atoms: C_23  and  O_24
REMARK    9  A    between atoms: O_24  and  C_25
REMARK   10  A    between atoms: C_25  and  C_26
REMARK                            x       y       z     vdW  Elec       q    Type
REMARK                         _______ _______ _______ _____ _____    ______ ____
ROOT
ATOM      1  C   UNL     1       2.411   5.191  20.201  0.00  0.00    +0.000 A 
ATOM      2  C   UNL     1       1.797   6.328  20.715  0.00  0.00    +0.000 A 
ATOM      3  C   UNL     1       1.779   7.552  20.024  0.00  0.00    +0.000 A 
ATOM      4  C   UNL     1       2.342   7.649  18.748  0.00  0.00    +0.000 A 
ATOM      5  C   UNL     1       2.923   6.491  18.217  0.00  0.00    +0.000 A 
ATOM      6  C   UNL     1       2.941   5.263  18.908  0.00  0.00    +0.000 A 
ATOM      7  N   UNL     1       2.497   8.807  17.964  0.00  0.00    +0.000 NA
ATOM      8  C   UNL     1       1.642   9.790  17.965  0.00  0.00    +0.000 C 
ATOM      9  C   UNL     1       0.358   9.862  18.755  0.00  0.00    +0.000 C 
ATOM     10  C   UNL     1      -0.369  11.228  18.654  0.00  0.00    +0.000 C 
ATOM     11  C   UNL     1      -0.372  11.719  20.083  0.00  0.00    +0.000 C 
ATOM     12  C   UNL     1       0.255  10.841  20.864  0.00  0.00    +0.000 C 
ATOM     13  N   UNL     1       0.727   9.765  20.168  0.00  0.00    +0.000 N 
ATOM     14  C   UNL     1       1.266   8.681  20.811  0.00  0.00    +0.000 C 
ATOM     15  O   UNL     1       1.332   8.613  22.043  0.00  0.00    +0.000 OA
ENDROOT
BRANCH   1  17
ATOM     16  C   UNL     1       1.347   3.223  21.012  0.00  0.00    +0.000 C 
ATOM     17  O   UNL     1       2.532   4.023  20.913  0.00  0.00    +0.000 OA
ENDBRANCH   1  17
BRANCH   6  18
ATOM     18  O   UNL     1       3.487   4.126  18.363  0.00  0.00    +0.000 OA
BRANCH  18  19
ATOM     19  C   UNL     1       4.915   4.068  18.461  0.00  0.00    +0.000 C 
BRANCH  19  20
ATOM     20  C   UNL     1       5.574   4.335  17.135  0.00  0.00    +0.000 A 
ATOM     21  C   UNL     1       6.932   4.663  17.049  0.00  0.00    +0.000 A 
ATOM     22  C   UNL     1       7.526   4.873  15.807  0.00  0.00    +0.000 A 
ATOM     23  C   UNL     1       6.773   4.736  14.642  0.00  0.00    +0.000 A 
ATOM     24  C   UNL     1       5.428   4.379  14.714  0.00  0.00    +0.000 A 
ATOM     25  C   UNL     1       4.832   4.172  15.957  0.00  0.00    +0.000 A 
ENDBRANCH  19  20
ENDBRANCH  18  19
ENDBRANCH   6  18
BRANCH  11  26
ATOM     26  C   UNL     1      -1.090  12.931  20.583  0.00  0.00    +0.000 C 
BRANCH  26  27
ATOM     27  C   UNL     1      -0.465  14.274  20.172  0.00  0.00    +0.000 C 
BRANCH  27  28
ATOM     28  O   UNL     1       0.971  14.152  20.073  0.00  0.00    +0.000 OA
BRANCH  28  29
ATOM     29  C   UNL     1       1.537  14.741  18.986  0.00  0.00    +0.000 C 
ATOM     30  C   UNL     1       2.566  13.860  18.342  0.00  0.00    +0.000 C 
ATOM     31  O   UNL     1       1.269  15.866  18.580  0.00  0.00    +0.000 OA
ENDBRANCH  28  29
ENDBRANCH  27  28
ENDBRANCH  26  27
ENDBRANCH  11  26
TORSDOF 8
ENDMDL
MODEL 4
REMARK VINA RESULT:      -7.9      1.318      1.804
REMARK  Name = 
REMARK  10 active torsions:
REMARK  status: ('A' for Active; 'I' for Inactive)
REMARK    1  A    between atoms: C_1  and  O_2
REMARK    2  A    between atoms: O_2  and  C_3
REMARK    3  A    between atoms: C_8  and  O_9
REMARK    4  A    between atoms: O_9  and  C_10
REMARK    5  A    between atoms: C_10  and  C_11
REMARK    6  A    between atoms: C_21  and  C_22
REMARK    7  A    between atoms: C_22  and  C_23
REMARK    8  A    between atoms: C_23  and  O_24
REMARK    9  A    between atoms: O_24  and  C_25
REMARK   10  A    between atoms: C_25  and  C_26
REMARK                            x       y       z     vdW  Elec       q    Type
REMARK                         _______ _______ _______ _____ _____    ______ ____
ROOT
ATOM      1  C   UNL     1       2.328   5.095  20.326  0.00  0.00    +0.000 A 
ATOM      2  C   UNL     1       1.782   6.292  20.776  0.00  0.00    +0.000 A 
ATOM      3  C   UNL     1       1.825   7.473  20.013  0.00  0.00    +0.000 A 
ATOM      4  C   UNL     1       2.381   7.463  18.730  0.00  0.00    +0.000 A 
ATOM      5  C   UNL     1       2.894   6.245  18.266  0.00  0.00    +0.000 A 
ATOM      6  C   UNL     1       2.851   5.061  19.029  0.00  0.00    +0.000 A 
ATOM      7  N   UNL     1       2.593   8.563  17.878  0.00  0.00    +0.000 NA
ATOM      8  C   UNL     1       1.793   9.589  17.825  0.00  0.00    +0.000 C 
ATOM      9  C   UNL     1       0.522   9.778  18.616  0.00  0.00    +0.000 C 
ATOM     10  C   UNL     1      -0.130  11.174  18.437  0.00  0.00    +0.000 C 
ATOM     11  C   UNL     1      -0.095  11.748  19.835  0.00  0.00    +0.000 C 
ATOM     12  C   UNL     1       0.491  10.885  20.664  0.00  0.00    +0.000 C 
ATOM     13  N   UNL     1       0.897   9.744  20.030  0.00  0.00    +0.000 N 
ATOM     14  C   UNL     1       1.381   8.673  20.734  0.00  0.00    +0.000 C 
ATOM     15  O   UNL     1       1.455   8.674  21.967  0.00  0.00    +0.000 OA
ENDROOT
BRANCH   1  17
ATOM     16  C   UNL     1       1.244   3.109  21.062  0.00  0.00    +0.000 C 
ATOM     17  O   UNL     1       2.392   3.966  21.106  0.00  0.00    +0.000 OA
ENDBRANCH   1  17
BRANCH   6  18
ATOM     18  O   UNL     1       3.329   3.865  18.549  0.00  0.00    +0.000 OA
BRANCH  18  19
ATOM     19  C   UNL     1       4.688   3.599  18.917  0.00  0.00    +0.000 C 
BRANCH  19  20
ATOM     20  C   UNL     1       5.641   4.551  18.246  0.00  0.00    +0.000 A 
ATOM     21  C   UNL     1       6.454   5.413  18.991  0.00  0.00    +0.000 A 
ATOM     22  C   UNL     1       7.352   6.261  18.347  0.00  0.00    +0.000 A 
ATOM     23  C   UNL     1       7.460   6.238  16.957  0.00  0.00    +0.000 A 
ATOM     24  C   UNL     1       6.679   5.360  16.208  0.00  0.00    +0.000 A 
ATOM     25  C   UNL     1       5.777   4.513  16.851  0.00  0.00    +0.000 A 
ENDBRANCH  19  20
ENDBRANCH  18  19
ENDBRANCH   6  18
BRANCH  11  26
ATOM     26  C   UNL     1      -0.741  13.026  20.266  0.00  0.00    +0.000 C 
BRANCH  26  27
ATOM     27  C   UNL     1      -2.117  12.867  20.931  0.00  0.00    +0.000 C 
BRANCH  27  28
ATOM     28  O   UNL     1      -2.012  13.058  22.359  0.00  0.00    +0.000 OA
BRANCH  28  29
ATOM     29  C   UNL     1      -2.484  12.038  23.124  0.00  0.00    +0.000 C 
ATOM     30  C   UNL     1      -1.470  10.944  23.286  0.00  0.00    +0.000 C 
ATOM     31  O   UNL     1      -3.607  11.988  23.610  0.00  0.00    +0.000 OA
ENDBRANCH  28  29
ENDBRANCH  27  28
ENDBRANCH  26  27
ENDBRANCH  11  26
TORSDOF 8
ENDMDL
MODEL 5
REMARK VINA RESULT:      -7.8      1.498      1.813
REMARK  Name = 
REMARK  10 active torsions:
REMARK  status: ('A' for Active; 'I' for Inactive)
REMARK    1  A    between atoms: C_1  and  O_2
REMARK    2  A    between atoms: O_2  and  C_3
REMARK    3  A    between atoms: C_8  and  O_9
REMARK    4  A    between atoms: O_9  and  C_10
REMARK    5  A    between atoms: C_10  and  C_11
REMARK    6  A    between atoms: C_21  and  C_22
REMARK    7  A    between atoms: C_22  and  C_23
REMARK    8  A    between atoms: C_23  and  O_24
REMARK    9  A    between atoms: O_24  and  C_25
REMARK   10  A    between atoms: C_25  and  C_26
REMARK                            x       y       z     vdW  Elec       q    Type
REMARK                         _______ _______ _______ _____ _____    ______ ____
ROOT
ATOM      1  C   UNL     1       2.384   5.095  20.306  0.00  0.00    +0.000 A 
ATOM      2  C   UNL     1       1.777   6.251  20.783  0.00  0.00    +0.000 A 
ATOM      3  C   UNL     1       1.782   7.458  20.060  0.00  0.00    +0.000 A 
ATOM      4  C   UNL     1       2.364   7.515  18.790  0.00  0.00    +0.000 A 
ATOM      5  C   UNL     1       2.939   6.337  18.298  0.00  0.00    +0.000 A 
ATOM      6  C   UNL     1       2.933   5.127  19.020  0.00  0.00    +0.000 A 
ATOM      7  N   UNL     1       2.543   8.651  17.979  0.00  0.00    +0.000 NA
ATOM      8  C   UNL     1       1.700   9.643  17.942  0.00  0.00    +0.000 C 
ATOM      9  C   UNL     1       0.406   9.750  18.713  0.00  0.00    +0.000 C 
ATOM     10  C   UNL     1      -0.303  11.121  18.565  0.00  0.00    +0.000 C 
ATOM     11  C   UNL     1      -0.321  11.648  19.981  0.00  0.00    +0.000 C 
ATOM     12  C   UNL     1       0.285  10.784  20.794  0.00  0.00    +0.000 C 
ATOM     13  N   UNL     1       0.754   9.685  20.132  0.00  0.00    +0.000 N 
ATOM     14  C   UNL     1       1.271   8.612  20.811  0.00  0.00    +0.000 C 
ATOM     15  O   UNL     1       1.320   8.575  22.045  0.00  0.00    +0.000 OA
ENDROOT
BRANCH   1  17
ATOM     16  C   UNL     1       1.301   3.135  21.111  0.00  0.00    +0.000 C 
ATOM     17  O   UNL     1       2.482   3.944  21.050  0.00  0.00    +0.000 OA
ENDBRANCH   1  17
BRANCH   6  18
ATOM     18  O   UNL     1       3.473   3.971  18.512  0.00  0.00    +0.000 OA
BRANCH  18  19
ATOM     19  C   UNL     1       3.511   3.932  17.080  0.00  0.00    +0.000 C 
BRANCH  19  20
ATOM     20  C   UNL     1       4.877   4.274  16.551  0.00  0.00    +0.000 A 
ATOM     21  C   UNL     1       5.986   4.362  17.401  0.00  0.00    +0.000 A 
ATOM     22  C   UNL     1       7.247   4.647  16.882  0.00  0.00    +0.000 A 
ATOM     23  C   UNL     1       7.412   4.825  15.509  0.00  0.00    +0.000 A 
ATOM     24  C   UNL     1       6.321   4.707  14.650  0.00  0.00    +0.000 A 
ATOM     25  C   UNL     1       5.058   4.425  15.169  0.00  0.00    +0.000 A 
ENDBRANCH  19  20
ENDBRANCH  18  19
ENDBRANCH   6  18
BRANCH  11  26
ATOM     26  C   UNL     1      -1.032  12.882  20.440  0.00  0.00    +0.000 C 
BRANCH  26  27
ATOM     27  C   UNL     1      -1.953  12.688  21.655  0.00  0.00    +0.000 C 
BRANCH  27  28
ATOM     28  O   UNL     1      -3.337  12.680  21.243  0.00  0.00    +0.000 OA
BRANCH  28  29
ATOM     29  C   UNL     1      -4.249  12.679  22.251  0.00  0.00    +0.000 C 
ATOM     30  C   UNL     1      -3.645  13.113  23.553  0.00  0.00    +0.000 C 
ATOM     31  O   UNL     1      -5.422  12.344  22.135  0.00  0.00    +0.000 OA
ENDBRANCH  28  29
ENDBRANCH  27  28
ENDBRANCH  26  27
ENDBRANCH  11  26
TORSDOF 8
ENDMDL
MODEL 6
REMARK VINA RESULT:      -7.8      1.413      2.129
REMARK  Name = 
REMARK  10 active torsions:
REMARK  status: ('A' for Active; 'I' for Inactive)
REMARK    1  A    between atoms: C_1  and  O_2
REMARK    2  A    between atoms: O_2  and  C_3
REMARK    3  A    between atoms: C_8  and  O_9
REMARK    4  A    between atoms: O_9  and  C_10
REMARK    5  A    between atoms: C_10  and  C_11
REMARK    6  A    between atoms: C_21  and  C_22
REMARK    7  A    between atoms: C_22  and  C_23
REMARK    8  A    between atoms: C_23  and  O_24
REMARK    9  A    between atoms: O_24  and  C_25
REMARK   10  A    between atoms: C_25  and  C_26
REMARK                            x       y       z     vdW  Elec       q    Type
REMARK                         _______ _______ _______ _____ _____    ______ ____
ROOT
ATOM      1  C   UNL     1       1.908   7.258  20.189  0.00  0.00    +0.000 A 
ATOM      2  C   UNL     1       1.222   8.007  21.138  0.00  0.00    +0.000 A 
ATOM      3  C   UNL     1       0.768   9.313  20.881  0.00  0.00    +0.000 A 
ATOM      4  C   UNL     1       0.950   9.887  19.619  0.00  0.00    +0.000 A 
ATOM      5  C   UNL     1       1.607   9.112  18.655  0.00  0.00    +0.000 A 
ATOM      6  C   UNL     1       2.061   7.803  18.910  0.00  0.00    +0.000 A 
ATOM      7  N   UNL     1       0.650  11.204  19.223  0.00  0.00    +0.000 NA
ATOM      8  C   UNL     1      -0.363  11.876  19.689  0.00  0.00    +0.000 C 
ATOM      9  C   UNL     1      -1.386  11.383  20.684  0.00  0.00    +0.000 C 
ATOM     10  C   UNL     1      -2.386  12.473  21.152  0.00  0.00    +0.000 C 
ATOM     11  C   UNL     1      -2.125  12.559  22.637  0.00  0.00    +0.000 C 
ATOM     12  C   UNL     1      -1.147  11.720  22.975  0.00  0.00    +0.000 C 
ATOM     13  N   UNL     1      -0.654  11.033  21.902  0.00  0.00    +0.000 N 
ATOM     14  C   UNL     1       0.249  10.014  22.063  0.00  0.00    +0.000 C 
ATOM     15  O   UNL     1       0.643   9.653  23.177  0.00  0.00    +0.000 OA
ENDROOT
BRANCH   1  17
ATOM     16  C   UNL     1       1.520   4.951  20.627  0.00  0.00    +0.000 C 
ATOM     17  O   UNL     1       2.453   6.027  20.465  0.00  0.00    +0.000 OA
ENDBRANCH   1  17
BRANCH   6  18
ATOM     18  O   UNL     1       2.676   7.042  17.946  0.00  0.00    +0.000 OA
BRANCH  18  19
ATOM     19  C   UNL     1       3.907   7.598  17.470  0.00  0.00    +0.000 C 
BRANCH  19  20
ATOM     20  C   UNL     1       4.907   6.526  17.130  0.00  0.00    +0.000 A 
ATOM     21  C   UNL     1       6.281   6.788  17.120  0.00  0.00    +0.000 A 
ATOM     22  C   UNL     1       7.188   5.770  16.834  0.00  0.00    +0.000 A 
ATOM     23  C   UNL     1       6.728   4.478  16.579  0.00  0.00    +0.000 A 
ATOM     24  C   UNL     1       5.364   4.199  16.618  0.00  0.00    +0.000 A 
ATOM     25  C   UNL     1       4.455   5.218  16.901  0.00  0.00    +0.000 A 
ENDBRANCH  19  20
ENDBRANCH  18  19
ENDBRANCH   6  18
BRANCH  11  26
ATOM     26  C   UNL     1      -2.930  13.354  23.616  0.00  0.00    +0.000 C 
BRANCH  26  27
ATOM     27  C   UNL     1      -4.131  12.614  24.224  0.00  0.00    +0.000 C 
BRANCH  27  28
ATOM     28  O   UNL     1      -5.193  12.493  23.253  0.00  0.00    +0.000 OA
BRANCH  28  29
ATOM     29  C   UNL     1      -6.451  12.685  23.733  0.00  0.00    +0.000 C 
ATOM     30  C   UNL     1      -6.794  14.141  23.837  0.00  0.00    +0.000 C 
ATOM     31  O   UNL     1      -7.218  11.790  24.067  0.00  0.00    +0.000 OA
ENDBRANCH  28  29
ENDBRANCH  27  28
ENDBRANCH  26  27
ENDBRANCH  11  26
TORSDOF 8
ENDMDL
MODEL 7
REMARK VINA RESULT:      -7.7      2.625      3.522
REMARK  Name = 
REMARK  10 active torsions:
REMARK  status: ('A' for Active; 'I' for Inactive)
REMARK    1  A    between atoms: C_1  and  O_2
REMARK    2  A    between atoms: O_2  and  C_3
REMARK    3  A    between atoms: C_8  and  O_9
REMARK    4  A    between atoms: O_9  and  C_10
REMARK    5  A    between atoms: C_10  and  C_11
REMARK    6  A    between atoms: C_21  and  C_22
REMARK    7  A    between atoms: C_22  and  C_23
REMARK    8  A    between atoms: C_23  and  O_24
REMARK    9  A    between atoms: O_24  and  C_25
REMARK   10  A    between atoms: C_25  and  C_26
REMARK                            x       y       z     vdW  Elec       q    Type
REMARK                         _______ _______ _______ _____ _____    ______ ____
ROOT
ATOM      1  C   UNL     1       2.368   5.138  20.254  0.00  0.00    +0.000 A 
ATOM      2  C   UNL     1       1.764   6.288  20.750  0.00  0.00    +0.000 A 
ATOM      3  C   UNL     1       1.776   7.507  20.049  0.00  0.00    +0.000 A 
ATOM      4  C   UNL     1       2.360   7.585  18.780  0.00  0.00    +0.000 A 
ATOM      5  C   UNL     1       2.931   6.413  18.268  0.00  0.00    +0.000 A 
ATOM      6  C   UNL     1       2.919   5.191  18.969  0.00  0.00    +0.000 A 
ATOM      7  N   UNL     1       2.545   8.734  17.990  0.00  0.00    +0.000 NA
ATOM      8  C   UNL     1       1.706   9.730  17.970  0.00  0.00    +0.000 C 
ATOM      9  C   UNL     1       0.412   9.828  18.740  0.00  0.00    +0.000 C 
ATOM     10  C   UNL     1      -0.291  11.205  18.616  0.00  0.00    +0.000 C 
ATOM     11  C   UNL     1      -0.309  11.708  20.040  0.00  0.00    +0.000 C 
ATOM     12  C   UNL     1       0.292  10.827  20.838  0.00  0.00    +0.000 C 
ATOM     13  N   UNL     1       0.758   9.737  20.158  0.00  0.00    +0.000 N 
ATOM     14  C   UNL     1       1.269   8.651  20.819  0.00  0.00    +0.000 C 
ATOM     15  O   UNL     1       1.316   8.592  22.052  0.00  0.00    +0.000 OA
ENDROOT
BRANCH   1  17
ATOM     16  C   UNL     1       1.263   3.190  21.058  0.00  0.00    +0.000 C 
ATOM     17  O   UNL     1       2.459   3.974  20.978  0.00  0.00    +0.000 OA
ENDBRANCH   1  17
BRANCH   6  18
ATOM     18  O   UNL     1       3.455   4.041  18.442  0.00  0.00    +0.000 OA
BRANCH  18  19
ATOM     19  C   UNL     1       4.882   3.971  18.543  0.00  0.00    +0.000 C 
BRANCH  19  20
ATOM     20  C   UNL     1       5.545   4.213  17.214  0.00  0.00    +0.000 A 
ATOM     21  C   UNL     1       4.844   4.062  16.012  0.00  0.00    +0.000 A 
ATOM     22  C   UNL     1       5.471   4.324  14.797  0.00  0.00    +0.000 A 
ATOM     23  C   UNL     1       6.795   4.760  14.774  0.00  0.00    +0.000 A 
ATOM     24  C   UNL     1       7.493   4.946  15.966  0.00  0.00    +0.000 A 
ATOM     25  C   UNL     1       6.867   4.680  17.184  0.00  0.00    +0.000 A 
ENDBRANCH  19  20
ENDBRANCH  18  19
ENDBRANCH   6  18
BRANCH  11  26
ATOM     26  C   UNL     1      -1.015  12.936  20.520  0.00  0.00    +0.000 C 
BRANCH  26  27
ATOM     27  C   UNL     1      -0.126  14.181  20.670  0.00  0.00    +0.000 C 
BRANCH  27  28
ATOM     28  O   UNL     1       1.210  13.906  20.193  0.00  0.00    +0.000 OA
BRANCH  28  29
ATOM     29  C   UNL     1       1.529  14.458  18.992  0.00  0.00    +0.000 C 
ATOM     30  C   UNL     1       0.991  15.851  18.855  0.00  0.00    +0.000 C 
ATOM     31  O   UNL     1       2.158  13.892  18.106  0.00  0.00    +0.000 OA
ENDBRANCH  28  29
ENDBRANCH  27  28
ENDBRANCH  26  27
ENDBRANCH  11  26
TORSDOF 8
ENDMDL
MODEL 8
REMARK VINA RESULT:      -7.7      1.295      1.447
REMARK  Name = 
REMARK  10 active torsions:
REMARK  status: ('A' for Active; 'I' for Inactive)
REMARK    1  A    between atoms: C_1  and  O_2
REMARK    2  A    between atoms: O_2  and  C_3
REMARK    3  A    between atoms: C_8  and  O_9
REMARK    4  A    between atoms: O_9  and  C_10
REMARK    5  A    between atoms: C_10  and  C_11
REMARK    6  A    between atoms: C_21  and  C_22
REMARK    7  A    between atoms: C_22  and  C_23
REMARK    8  A    between atoms: C_23  and  O_24
REMARK    9  A    between atoms: O_24  and  C_25
REMARK   10  A    between atoms: C_25  and  C_26
REMARK                            x       y       z     vdW  Elec       q    Type
REMARK                         _______ _______ _______ _____ _____    ______ ____
ROOT
ATOM      1  C   UNL     1       2.618   5.851  19.873  0.00  0.00    +0.000 A 
ATOM      2  C   UNL     1       1.950   6.806  20.632  0.00  0.00    +0.000 A 
ATOM      3  C   UNL     1       1.599   8.067  20.117  0.00  0.00    +0.000 A 
ATOM      4  C   UNL     1       1.870   8.382  18.782  0.00  0.00    +0.000 A 
ATOM      5  C   UNL     1       2.508   7.402  18.011  0.00  0.00    +0.000 A 
ATOM      6  C   UNL     1       2.858   6.138  18.525  0.00  0.00    +0.000 A 
ATOM      7  N   UNL     1       1.679   9.618  18.137  0.00  0.00    +0.000 NA
ATOM      8  C   UNL     1       0.698  10.427  18.419  0.00  0.00    +0.000 C 
ATOM      9  C   UNL     1      -0.394  10.193  19.434  0.00  0.00    +0.000 C 
ATOM     10  C   UNL     1      -1.332  11.411  19.641  0.00  0.00    +0.000 C 
ATOM     11  C   UNL     1      -1.125  11.756  21.097  0.00  0.00    +0.000 C 
ATOM     12  C   UNL     1      -0.222  10.935  21.633  0.00  0.00    +0.000 C 
ATOM     13  N   UNL     1       0.263  10.031  20.731  0.00  0.00    +0.000 N 
ATOM     14  C   UNL     1       1.085   9.006  21.122  0.00  0.00    +0.000 C 
ATOM     15  O   UNL     1       1.409   8.836  22.302  0.00  0.00    +0.000 OA
ENDROOT
BRANCH   1  17
ATOM     16  C   UNL     1       2.049   3.770  20.875  0.00  0.00    +0.000 C 
ATOM     17  O   UNL     1       3.063   4.662  20.397  0.00  0.00    +0.000 OA
ENDBRANCH   1  17
BRANCH   6  18
ATOM     18  O   UNL     1       3.455   5.174  17.749  0.00  0.00    +0.000 OA
BRANCH  18  19
ATOM     19  C   UNL     1       4.447   5.688  16.853  0.00  0.00    +0.000 C 
BRANCH  19  20
ATOM     20  C   UNL     1       5.716   6.049  17.578  0.00  0.00    +0.000 A 
ATOM     21  C   UNL     1       6.183   5.284  18.654  0.00  0.00    +0.000 A 
ATOM     22  C   UNL     1       7.377   5.619  19.286  0.00  0.00    +0.000 A 
ATOM     23  C   UNL     1       8.124   6.707  18.835  0.00  0.00    +0.000 A 
ATOM     24  C   UNL     1       7.686   7.455  17.745  0.00  0.00    +0.000 A 
ATOM     25  C   UNL     1       6.488   7.122  17.113  0.00  0.00    +0.000 A 
ENDBRANCH  19  20
ENDBRANCH  18  19
ENDBRANCH   6  18
BRANCH  11  26
ATOM     26  C   UNL     1      -1.908  12.768  21.871  0.00  0.00    +0.000 C 
BRANCH  26  27
ATOM     27  C   UNL     1      -1.249  14.151  21.988  0.00  0.00    +0.000 C 
BRANCH  27  28
ATOM     28  O   UNL     1      -2.039  15.017  22.831  0.00  0.00    +0.000 OA
BRANCH  28  29
ATOM     29  C   UNL     1      -1.869  14.846  24.170  0.00  0.00    +0.000 C 
ATOM     30  C   UNL     1      -3.170  14.591  24.871  0.00  0.00    +0.000 C 
ATOM     31  O   UNL     1      -0.794  14.912  24.754  0.00  0.00    +0.000 OA
ENDBRANCH  28  29
ENDBRANCH  27  28
ENDBRANCH  26  27
ENDBRANCH  11  26
TORSDOF 8
ENDMDL
MODEL 9
REMARK VINA RESULT:      -7.7      1.154      1.632
REMARK  Name = 
REMARK  10 active torsions:
REMARK  status: ('A' for Active; 'I' for Inactive)
REMARK    1  A    between atoms: C_1  and  O_2
REMARK    2  A    between atoms: O_2  and  C_3
REMARK    3  A    between atoms: C_8  and  O_9
REMARK    4  A    between atoms: O_9  and  C_10
REMARK    5  A    between atoms: C_10  and  C_11
REMARK    6  A    between atoms: C_21  and  C_22
REMARK    7  A    between atoms: C_22  and  C_23
REMARK    8  A    between atoms: C_23  and  O_24
REMARK    9  A    between atoms: O_24  and  C_25
REMARK   10  A    between atoms: C_25  and  C_26
REMARK                            x       y       z     vdW  Elec       q    Type
REMARK                         _______ _______ _______ _____ _____    ______ ____
ROOT
ATOM      1  C   UNL     1       2.246   5.625  20.155  0.00  0.00    +0.000 A 
ATOM      2  C   UNL     1       1.644   6.679  20.834  0.00  0.00    +0.000 A 
ATOM      3  C   UNL     1       1.495   7.956  20.263  0.00  0.00    +0.000 A 
ATOM      4  C   UNL     1       1.908   8.192  18.948  0.00  0.00    +0.000 A 
ATOM      5  C   UNL     1       2.477   7.116  18.255  0.00  0.00    +0.000 A 
ATOM      6  C   UNL     1       2.625   5.836  18.825  0.00  0.00    +0.000 A 
ATOM      7  N   UNL     1       1.924   9.420  18.261  0.00  0.00    +0.000 NA
ATOM      8  C   UNL     1       1.032  10.352  18.443  0.00  0.00    +0.000 C 
ATOM      9  C   UNL     1      -0.158  10.286  19.370  0.00  0.00    +0.000 C 
ATOM     10  C   UNL     1      -0.950  11.616  19.471  0.00  0.00    +0.000 C 
ATOM     11  C   UNL     1      -0.816  11.980  20.931  0.00  0.00    +0.000 C 
ATOM     12  C   UNL     1      -0.068  11.074  21.558  0.00  0.00    +0.000 C 
ATOM     13  N   UNL     1       0.370  10.088  20.720  0.00  0.00    +0.000 N 
ATOM     14  C   UNL     1       1.024   8.984  21.200  0.00  0.00    +0.000 C 
ATOM     15  O   UNL     1       1.231   8.813  22.406  0.00  0.00    +0.000 OA
ENDROOT
BRANCH   1  17
ATOM     16  C   UNL     1       1.366   3.542  20.894  0.00  0.00    +0.000 C 
ATOM     17  O   UNL     1       2.497   4.408  20.741  0.00  0.00    +0.000 OA
ENDBRANCH   1  17
BRANCH   6  18
ATOM     18  O   UNL     1       3.157   4.781  18.123  0.00  0.00    +0.000 OA
BRANCH  18  19
ATOM     19  C   UNL     1       4.544   4.547  18.396  0.00  0.00    +0.000 C 
BRANCH  19  20
ATOM     20  C   UNL     1       5.372   4.593  17.140  0.00  0.00    +0.000 A 
ATOM     21  C   UNL     1       6.757   4.788  17.187  0.00  0.00    +0.000 A 
ATOM     22  C   UNL     1       7.505   4.793  16.013  0.00  0.00    +0.000 A 
ATOM     23  C   UNL     1       6.878   4.582  14.785  0.00  0.00    +0.000 A 
ATOM     24  C   UNL     1       5.505   4.355  14.729  0.00  0.00    +0.000 A 
ATOM     25  C   UNL     1       4.754   4.353  15.904  0.00  0.00    +0.000 A 
ENDBRANCH  19  20
ENDBRANCH  18  19
ENDBRANCH   6  18
BRANCH  11  26
ATOM     26  C   UNL     1      -1.526  13.106  21.614  0.00  0.00    +0.000 C 
BRANCH  26  27
ATOM     27  C   UNL     1      -3.046  12.927  21.754  0.00  0.00    +0.000 C 
BRANCH  27  28
ATOM     28  O   UNL     1      -3.353  12.082  22.885  0.00  0.00    +0.000 OA
BRANCH  28  29
ATOM     29  C   UNL     1      -4.174  12.630  23.820  0.00  0.00    +0.000 C 
ATOM     30  C   UNL     1      -4.459  14.076  23.538  0.00  0.00    +0.000 C 
ATOM     31  O   UNL     1      -4.619  12.038  24.796  0.00  0.00    +0.000 OA
ENDBRANCH  28  29
ENDBRANCH  27  28
ENDBRANCH  26  27
ENDBRANCH  11  26
TORSDOF 8
ENDMDL
