MODEL 1
REMARK VINA RESULT:      -7.2      0.000      0.000
REMARK  Name = 
REMARK  7 active torsions:
REMARK  status: ('A' for Active; 'I' for Inactive)
REMARK    1  A    between atoms: C_1  and  C_2
REMARK    2  A    between atoms: C_2  and  C_3
REMARK    3  A    between atoms: C_2  and  C_4
REMARK    4  A    between atoms: C_7  and  C_8
REMARK    5  A    between atoms: N_10  and  N_11
REMARK    6  A    between atoms: C_12  and  C_13
REMARK    7  A    between atoms: C_16  and  N_17
REMARK                            x       y       z     vdW  Elec       q    Type
REMARK                         _______ _______ _______ _____ _____    ______ ____
ROOT
ATOM      1  C   UNL     1       3.768   6.241  18.022  0.00  0.00    +0.000 C 
ATOM      2  O   UNL     1       3.955   5.861  19.178  0.00  0.00    +0.000 OA
ATOM      3  N   UNL     1       2.864   7.245  17.684  0.00  0.00    +0.000 N 
ATOM      4  H   UNL     1       2.715   7.548  16.733  0.00  0.00    +0.000 HD
ENDROOT
BRANCH   1   8
ATOM      5  C   UNL     1       6.033   4.566  14.731  0.00  0.00    +0.000 A 
ATOM      6  C   UNL     1       5.862   5.946  14.885  0.00  0.00    +0.000 A 
ATOM      7  C   UNL     1       5.137   6.456  15.967  0.00  0.00    +0.000 A 
ATOM      8  C   UNL     1       4.561   5.603  16.922  0.00  0.00    +0.000 A 
ATOM      9  C   UNL     1       4.747   4.224  16.783  0.00  0.00    +0.000 A 
ATOM     10  C   UNL     1       5.474   3.714  15.697  0.00  0.00    +0.000 A 
BRANCH   5  12
ATOM     11  C   UNL     1       5.854   3.390  12.501  0.00  0.00    +0.000 C 
ATOM     12  C   UNL     1       6.792   4.030  13.529  0.00  0.00    +0.000 C 
ATOM     13  C   UNL     1       7.650   5.119  12.882  0.00  0.00    +0.000 C 
ENDBRANCH   5  12
ENDBRANCH   1   8
BRANCH   3  14
ATOM     14  N   UNL     1       2.162   7.836  18.696  0.00  0.00    +0.000 NA
ATOM     15  C   UNL     1       1.691   9.024  18.497  0.00  0.00    +0.000 C 
BRANCH  15  16
ATOM     16  C   UNL     1       0.930   9.657  19.549  0.00  0.00    +0.000 A 
ATOM     17  C   UNL     1       0.149  10.796  19.472  0.00  0.00    +0.000 A 
ATOM     18  C   UNL     1      -0.414  11.158  20.732  0.00  0.00    +0.000 A 
ATOM     19  C   UNL     1      -0.042  10.270  21.717  0.00  0.00    +0.000 A 
ATOM     20  S   UNL     1       0.941   9.009  21.133  0.00  0.00    +0.000 S 
BRANCH  19  21
ATOM     21  N   UNL     1      -0.402  10.344  23.110  0.00  0.00    +0.000 N 
ATOM     22  O   UNL     1       0.283   9.673  23.894  0.00  0.00    +0.000 OA
ATOM     23  O   UNL     1      -1.361  11.060  23.430  0.00  0.00    +0.000 OA
ENDBRANCH  19  21
ENDBRANCH  15  16
ENDBRANCH   3  14
TORSDOF 5
ENDMDL
MODEL 2
REMARK VINA RESULT:      -7.1      1.482      1.740
REMARK  Name = 
REMARK  7 active torsions:
REMARK  status: ('A' for Active; 'I' for Inactive)
REMARK    1  A    between atoms: C_1  and  C_2
REMARK    2  A    between atoms: C_2  and  C_3
REMARK    3  A    between atoms: C_2  and  C_4
REMARK    4  A    between atoms: C_7  and  C_8
REMARK    5  A    between atoms: N_10  and  N_11
REMARK    6  A    between atoms: C_12  and  C_13
REMARK    7  A    between atoms: C_16  and  N_17
REMARK                            x       y       z     vdW  Elec       q    Type
REMARK                         _______ _______ _______ _____ _____    ______ ____
ROOT
ATOM      1  C   UNL     1       3.165   5.983  19.066  0.00  0.00    +0.000 C 
ATOM      2  O   UNL     1       3.155   5.366  20.131  0.00  0.00    +0.000 OA
ATOM      3  N   UNL     1       2.503   7.193  18.878  0.00  0.00    +0.000 N 
ATOM      4  H   UNL     1       2.512   7.692  18.000  0.00  0.00    +0.000 HD
ENDROOT
BRANCH   1   8
ATOM      5  C   UNL     1       5.383   4.517  15.646  0.00  0.00    +0.000 A 
ATOM      6  C   UNL     1       5.301   5.882  15.945  0.00  0.00    +0.000 A 
ATOM      7  C   UNL     1       4.589   6.322  17.066  0.00  0.00    +0.000 A 
ATOM      8  C   UNL     1       3.937   5.414  17.914  0.00  0.00    +0.000 A 
ATOM      9  C   UNL     1       4.034   4.047  17.631  0.00  0.00    +0.000 A 
ATOM     10  C   UNL     1       4.749   3.608  16.506  0.00  0.00    +0.000 A 
BRANCH   5  12
ATOM     11  C   UNL     1       5.187   3.843  13.218  0.00  0.00    +0.000 C 
ATOM     12  C   UNL     1       6.130   4.062  14.404  0.00  0.00    +0.000 C 
ATOM     13  C   UNL     1       7.250   5.040  14.037  0.00  0.00    +0.000 C 
ENDBRANCH   5  12
ENDBRANCH   1   8
BRANCH   3  14
ATOM     14  N   UNL     1       1.820   7.716  19.940  0.00  0.00    +0.000 NA
ATOM     15  C   UNL     1       1.519   8.974  19.910  0.00  0.00    +0.000 C 
BRANCH  15  16
ATOM     16  C   UNL     1       0.781   9.540  21.016  0.00  0.00    +0.000 A 
ATOM     17  C   UNL     1       0.430   8.933  22.208  0.00  0.00    +0.000 A 
ATOM     18  C   UNL     1      -0.348   9.787  23.046  0.00  0.00    +0.000 A 
ATOM     19  C   UNL     1      -0.550  11.015  22.455  0.00  0.00    +0.000 A 
ATOM     20  S   UNL     1       0.205  11.149  20.936  0.00  0.00    +0.000 S 
BRANCH  19  21
ATOM     21  N   UNL     1      -1.313  12.108  23.002  0.00  0.00    +0.000 N 
ATOM     22  O   UNL     1      -0.667  13.071  23.434  0.00  0.00    +0.000 OA
ATOM     23  O   UNL     1      -2.549  12.013  23.009  0.00  0.00    +0.000 OA
ENDBRANCH  19  21
ENDBRANCH  15  16
ENDBRANCH   3  14
TORSDOF 5
ENDMDL
MODEL 3
REMARK VINA RESULT:      -7.1      6.410      8.051
REMARK  Name = 
REMARK  7 active torsions:
REMARK  status: ('A' for Active; 'I' for Inactive)
REMARK    1  A    between atoms: C_1  and  C_2
REMARK    2  A    between atoms: C_2  and  C_3
REMARK    3  A    between atoms: C_2  and  C_4
REMARK    4  A    between atoms: C_7  and  C_8
REMARK    5  A    between atoms: N_10  and  N_11
REMARK    6  A    between atoms: C_12  and  C_13
REMARK    7  A    between atoms: C_16  and  N_17
REMARK                            x       y       z     vdW  Elec       q    Type
REMARK                         _______ _______ _______ _____ _____    ______ ____
ROOT
ATOM      1  C   UNL     1       7.365   6.873  18.153  0.00  0.00    +0.000 C 
ATOM      2  O   UNL     1       8.271   6.517  18.906  0.00  0.00    +0.000 OA
ATOM      3  N   UNL     1       7.345   8.109  17.513  0.00  0.00    +0.000 N 
ATOM      4  H   UNL     1       6.597   8.396  16.899  0.00  0.00    +0.000 HD
ENDROOT
BRANCH   1   8
ATOM      5  C   UNL     1       4.128   4.048  17.595  0.00  0.00    +0.000 A 
ATOM      6  C   UNL     1       4.658   4.327  18.860  0.00  0.00    +0.000 A 
ATOM      7  C   UNL     1       5.693   5.256  19.008  0.00  0.00    +0.000 A 
ATOM      8  C   UNL     1       6.230   5.928  17.899  0.00  0.00    +0.000 A 
ATOM      9  C   UNL     1       5.690   5.667  16.635  0.00  0.00    +0.000 A 
ATOM     10  C   UNL     1       4.651   4.735  16.488  0.00  0.00    +0.000 A 
BRANCH   5  12
ATOM     11  C   UNL     1       3.388   1.697  18.151  0.00  0.00    +0.000 C 
ATOM     12  C   UNL     1       3.029   3.010  17.450  0.00  0.00    +0.000 C 
ATOM     13  C   UNL     1       1.686   3.546  17.952  0.00  0.00    +0.000 C 
ENDBRANCH   5  12
ENDBRANCH   1   8
BRANCH   3  14
ATOM     14  N   UNL     1       8.395   8.956  17.732  0.00  0.00    +0.000 NA
ATOM     15  C   UNL     1       8.133  10.199  17.976  0.00  0.00    +0.000 C 
BRANCH  15  16
ATOM     16  C   UNL     1       9.230  11.105  18.229  0.00  0.00    +0.000 A 
ATOM     17  C   UNL     1      10.430  10.837  18.862  0.00  0.00    +0.000 A 
ATOM     18  C   UNL     1      11.255  11.995  18.980  0.00  0.00    +0.000 A 
ATOM     19  C   UNL     1      10.647  13.099  18.423  0.00  0.00    +0.000 A 
ATOM     20  S   UNL     1       9.127  12.743  17.745  0.00  0.00    +0.000 S 
BRANCH  19  21
ATOM     21  N   UNL     1      11.178  14.438  18.389  0.00  0.00    +0.000 N 
ATOM     22  O   UNL     1      12.058  14.704  19.218  0.00  0.00    +0.000 OA
ATOM     23  O   UNL     1      10.723  15.226  17.548  0.00  0.00    +0.000 OA
ENDBRANCH  19  21
ENDBRANCH  15  16
ENDBRANCH   3  14
TORSDOF 5
ENDMDL
MODEL 4
REMARK VINA RESULT:      -6.9      0.992      1.297
REMARK  Name = 
REMARK  7 active torsions:
REMARK  status: ('A' for Active; 'I' for Inactive)
REMARK    1  A    between atoms: C_1  and  C_2
REMARK    2  A    between atoms: C_2  and  C_3
REMARK    3  A    between atoms: C_2  and  C_4
REMARK    4  A    between atoms: C_7  and  C_8
REMARK    5  A    between atoms: N_10  and  N_11
REMARK    6  A    between atoms: C_12  and  C_13
REMARK    7  A    between atoms: C_16  and  N_17
REMARK                            x       y       z     vdW  Elec       q    Type
REMARK                         _______ _______ _______ _____ _____    ______ ____
ROOT
ATOM      1  C   UNL     1       3.995   5.901  18.277  0.00  0.00    +0.000 C 
ATOM      2  O   UNL     1       4.303   5.473  19.390  0.00  0.00    +0.000 OA
ATOM      3  N   UNL     1       3.046   6.901  18.079  0.00  0.00    +0.000 N 
ATOM      4  H   UNL     1       2.797   7.244  17.163  0.00  0.00    +0.000 HD
ENDROOT
BRANCH   1   8
ATOM      5  C   UNL     1       5.929   4.417  14.696  0.00  0.00    +0.000 A 
ATOM      6  C   UNL     1       5.681   5.780  14.893  0.00  0.00    +0.000 A 
ATOM      7  C   UNL     1       5.068   6.228  16.068  0.00  0.00    +0.000 A 
ATOM      8  C   UNL     1       4.682   5.330  17.074  0.00  0.00    +0.000 A 
ATOM      9  C   UNL     1       4.947   3.968  16.891  0.00  0.00    +0.000 A 
ATOM     10  C   UNL     1       5.562   3.520  15.712  0.00  0.00    +0.000 A 
BRANCH   5  12
ATOM     11  C   UNL     1       5.509   3.510  12.375  0.00  0.00    +0.000 C 
ATOM     12  C   UNL     1       6.562   3.945  13.399  0.00  0.00    +0.000 C 
ATOM     13  C   UNL     1       7.487   5.013  12.810  0.00  0.00    +0.000 C 
ENDBRANCH   5  12
ENDBRANCH   1   8
BRANCH   3  14
ATOM     14  N   UNL     1       2.441   7.431  19.184  0.00  0.00    +0.000 NA
ATOM     15  C   UNL     1       1.757   8.519  19.039  0.00  0.00    +0.000 C 
BRANCH  15  16
ATOM     16  C   UNL     1       1.094   9.084  20.192  0.00  0.00    +0.000 A 
ATOM     17  C   UNL     1       0.646   8.430  21.325  0.00  0.00    +0.000 A 
ATOM     18  C   UNL     1      -0.011   9.308  22.237  0.00  0.00    +0.000 A 
ATOM     19  C   UNL     1      -0.029  10.600  21.760  0.00  0.00    +0.000 A 
ATOM     20  S   UNL     1       0.756  10.760  20.258  0.00  0.00    +0.000 S 
BRANCH  19  21
ATOM     21  N   UNL     1      -0.633  11.738  22.405  0.00  0.00    +0.000 N 
ATOM     22  O   UNL     1      -1.168  11.532  23.502  0.00  0.00    +0.000 OA
ATOM     23  O   UNL     1      -0.584  12.833  21.826  0.00  0.00    +0.000 OA
ENDBRANCH  19  21
ENDBRANCH  15  16
ENDBRANCH   3  14
TORSDOF 5
ENDMDL
MODEL 5
REMARK VINA RESULT:      -6.9      3.029     10.065
REMARK  Name = 
REMARK  7 active torsions:
REMARK  status: ('A' for Active; 'I' for Inactive)
REMARK    1  A    between atoms: C_1  and  C_2
REMARK    2  A    between atoms: C_2  and  C_3
REMARK    3  A    between atoms: C_2  and  C_4
REMARK    4  A    between atoms: C_7  and  C_8
REMARK    5  A    between atoms: N_10  and  N_11
REMARK    6  A    between atoms: C_12  and  C_13
REMARK    7  A    between atoms: C_16  and  N_17
REMARK                            x       y       z     vdW  Elec       q    Type
REMARK                         _______ _______ _______ _____ _____    ______ ____
ROOT
ATOM      1  C   UNL     1       1.249   8.483  20.665  0.00  0.00    +0.000 C 
ATOM      2  O   UNL     1       1.502   7.573  21.456  0.00  0.00    +0.000 OA
ATOM      3  N   UNL     1       1.675   8.483  19.340  0.00  0.00    +0.000 N 
ATOM      4  H   UNL     1       1.466   9.234  18.698  0.00  0.00    +0.000 HD
ENDROOT
BRANCH   1   8
ATOM      5  C   UNL     1      -1.201  11.713  22.191  0.00  0.00    +0.000 A 
ATOM      6  C   UNL     1      -0.907  10.581  22.959  0.00  0.00    +0.000 A 
ATOM      7  C   UNL     1      -0.100   9.561  22.442  0.00  0.00    +0.000 A 
ATOM      8  C   UNL     1       0.431   9.643  21.145  0.00  0.00    +0.000 A 
ATOM      9  C   UNL     1       0.157  10.783  20.382  0.00  0.00    +0.000 A 
ATOM     10  C   UNL     1      -0.653  11.804  20.902  0.00  0.00    +0.000 A 
BRANCH   5  12
ATOM     11  C   UNL     1      -3.210  12.205  23.642  0.00  0.00    +0.000 C 
ATOM     12  C   UNL     1      -2.108  12.792  22.756  0.00  0.00    +0.000 C 
ATOM     13  C   UNL     1      -1.306  13.854  23.514  0.00  0.00    +0.000 C 
ENDBRANCH   5  12
ENDBRANCH   1   8
BRANCH   3  14
ATOM     14  N   UNL     1       2.401   7.411  18.904  0.00  0.00    +0.000 NA
ATOM     15  C   UNL     1       3.206   7.586  17.907  0.00  0.00    +0.000 C 
BRANCH  15  16
ATOM     16  C   UNL     1       3.996   6.467  17.445  0.00  0.00    +0.000 A 
ATOM     17  C   UNL     1       3.705   5.119  17.542  0.00  0.00    +0.000 A 
ATOM     18  C   UNL     1       4.749   4.297  17.021  0.00  0.00    +0.000 A 
ATOM     19  C   UNL     1       5.791   5.060  16.541  0.00  0.00    +0.000 A 
ATOM     20  S   UNL     1       5.507   6.732  16.687  0.00  0.00    +0.000 S 
BRANCH  19  21
ATOM     21  N   UNL     1       7.018   4.564  15.972  0.00  0.00    +0.000 N 
ATOM     22  O   UNL     1       7.940   4.332  16.765  0.00  0.00    +0.000 OA
ATOM     23  O   UNL     1       7.073   4.408  14.744  0.00  0.00    +0.000 OA
ENDBRANCH  19  21
ENDBRANCH  15  16
ENDBRANCH   3  14
TORSDOF 5
ENDMDL
MODEL 6
REMARK VINA RESULT:      -6.9      6.109      8.896
REMARK  Name = 
REMARK  7 active torsions:
REMARK  status: ('A' for Active; 'I' for Inactive)
REMARK    1  A    between atoms: C_1  and  C_2
REMARK    2  A    between atoms: C_2  and  C_3
REMARK    3  A    between atoms: C_2  and  C_4
REMARK    4  A    between atoms: C_7  and  C_8
REMARK    5  A    between atoms: N_10  and  N_11
REMARK    6  A    between atoms: C_12  and  C_13
REMARK    7  A    between atoms: C_16  and  N_17
REMARK                            x       y       z     vdW  Elec       q    Type
REMARK                         _______ _______ _______ _____ _____    ______ ____
ROOT
ATOM      1  C   UNL     1       8.390   8.802  18.302  0.00  0.00    +0.000 C 
ATOM      2  O   UNL     1       8.767   7.906  19.058  0.00  0.00    +0.000 OA
ATOM      3  N   UNL     1       7.511   8.590  17.244  0.00  0.00    +0.000 N 
ATOM      4  H   UNL     1       7.209   9.330  16.626  0.00  0.00    +0.000 HD
ENDROOT
BRANCH   1   8
ATOM      5  C   UNL     1       9.866  12.780  19.175  0.00  0.00    +0.000 A 
ATOM      6  C   UNL     1      10.160  11.685  19.994  0.00  0.00    +0.000 A 
ATOM      7  C   UNL     1       9.681  10.410  19.676  0.00  0.00    +0.000 A 
ATOM      8  C   UNL     1       8.892  10.195  18.536  0.00  0.00    +0.000 A 
ATOM      9  C   UNL     1       8.612  11.283  17.702  0.00  0.00    +0.000 A 
ATOM     10  C   UNL     1       9.094  12.561  18.022  0.00  0.00    +0.000 A 
BRANCH   5  12
ATOM     11  C   UNL     1       9.613  15.268  18.808  0.00  0.00    +0.000 C 
ATOM     12  C   UNL     1      10.365  14.164  19.556  0.00  0.00    +0.000 C 
ATOM     13  C   UNL     1      10.293  14.384  21.069  0.00  0.00    +0.000 C 
ENDBRANCH   5  12
ENDBRANCH   1   8
BRANCH   3  14
ATOM     14  N   UNL     1       7.041   7.321  17.052  0.00  0.00    +0.000 NA
ATOM     15  C   UNL     1       5.781   7.103  17.243  0.00  0.00    +0.000 C 
BRANCH  15  16
ATOM     16  C   UNL     1       5.263   5.772  17.026  0.00  0.00    +0.000 A 
ATOM     17  C   UNL     1       5.573   4.891  16.006  0.00  0.00    +0.000 A 
ATOM     18  C   UNL     1       4.823   3.680  16.085  0.00  0.00    +0.000 A 
ATOM     19  C   UNL     1       3.976   3.688  17.171  0.00  0.00    +0.000 A 
ATOM     20  S   UNL     1       4.101   5.113  18.095  0.00  0.00    +0.000 S 
BRANCH  19  21
ATOM     21  N   UNL     1       3.053   2.645  17.540  0.00  0.00    +0.000 N 
ATOM     22  O   UNL     1       1.850   2.891  17.384  0.00  0.00    +0.000 OA
ATOM     23  O   UNL     1       3.515   1.585  17.985  0.00  0.00    +0.000 OA
ENDBRANCH  19  21
ENDBRANCH  15  16
ENDBRANCH   3  14
TORSDOF 5
ENDMDL
MODEL 7
REMARK VINA RESULT:      -6.9      1.641      2.145
REMARK  Name = 
REMARK  7 active torsions:
REMARK  status: ('A' for Active; 'I' for Inactive)
REMARK    1  A    between atoms: C_1  and  C_2
REMARK    2  A    between atoms: C_2  and  C_3
REMARK    3  A    between atoms: C_2  and  C_4
REMARK    4  A    between atoms: C_7  and  C_8
REMARK    5  A    between atoms: N_10  and  N_11
REMARK    6  A    between atoms: C_12  and  C_13
REMARK    7  A    between atoms: C_16  and  N_17
REMARK                            x       y       z     vdW  Elec       q    Type
REMARK                         _______ _______ _______ _____ _____    ______ ____
ROOT
ATOM      1  C   UNL     1       2.896   6.449  19.086  0.00  0.00    +0.000 C 
ATOM      2  O   UNL     1       2.732   5.683  20.036  0.00  0.00    +0.000 OA
ATOM      3  N   UNL     1       2.395   7.747  19.055  0.00  0.00    +0.000 N 
ATOM      4  H   UNL     1       2.532   8.368  18.271  0.00  0.00    +0.000 HD
ENDROOT
BRANCH   1   8
ATOM      5  C   UNL     1       5.182   5.249  15.607  0.00  0.00    +0.000 A 
ATOM      6  C   UNL     1       5.160   6.574  16.058  0.00  0.00    +0.000 A 
ATOM      7  C   UNL     1       4.424   6.926  17.193  0.00  0.00    +0.000 A 
ATOM      8  C   UNL     1       3.687   5.968  17.907  0.00  0.00    +0.000 A 
ATOM      9  C   UNL     1       3.723   4.639  17.472  0.00  0.00    +0.000 A 
ATOM     10  C   UNL     1       4.462   4.287  16.333  0.00  0.00    +0.000 A 
BRANCH   5  12
ATOM     11  C   UNL     1       7.463   4.804  14.615  0.00  0.00    +0.000 C 
ATOM     12  C   UNL     1       5.958   4.893  14.351  0.00  0.00    +0.000 C 
ATOM     13  C   UNL     1       5.437   3.596  13.724  0.00  0.00    +0.000 C 
ENDBRANCH   5  12
ENDBRANCH   1   8
BRANCH   3  14
ATOM     14  N   UNL     1       1.694   8.185  20.144  0.00  0.00    +0.000 NA
ATOM     15  C   UNL     1       1.086   9.323  20.059  0.00  0.00    +0.000 C 
BRANCH  15  16
ATOM     16  C   UNL     1       0.325   9.792  21.193  0.00  0.00    +0.000 A 
ATOM     17  C   UNL     1       0.018   9.111  22.357  0.00  0.00    +0.000 A 
ATOM     18  C   UNL     1      -0.801   9.877  23.239  0.00  0.00    +0.000 A 
ATOM     19  C   UNL     1      -1.078  11.118  22.708  0.00  0.00    +0.000 A 
ATOM     20  S   UNL     1      -0.343  11.368  21.193  0.00  0.00    +0.000 S 
BRANCH  19  21
ATOM     21  N   UNL     1      -1.899  12.138  23.310  0.00  0.00    +0.000 N 
ATOM     22  O   UNL     1      -3.052  11.810  23.617  0.00  0.00    +0.000 OA
ATOM     23  O   UNL     1      -1.406  13.263  23.477  0.00  0.00    +0.000 OA
ENDBRANCH  19  21
ENDBRANCH  15  16
ENDBRANCH   3  14
TORSDOF 5
ENDMDL
MODEL 8
REMARK VINA RESULT:      -6.9      1.439      1.683
REMARK  Name = 
REMARK  7 active torsions:
REMARK  status: ('A' for Active; 'I' for Inactive)
REMARK    1  A    between atoms: C_1  and  C_2
REMARK    2  A    between atoms: C_2  and  C_3
REMARK    3  A    between atoms: C_2  and  C_4
REMARK    4  A    between atoms: C_7  and  C_8
REMARK    5  A    between atoms: N_10  and  N_11
REMARK    6  A    between atoms: C_12  and  C_13
REMARK    7  A    between atoms: C_16  and  N_17
REMARK                            x       y       z     vdW  Elec       q    Type
REMARK                         _______ _______ _______ _____ _____    ______ ____
ROOT
ATOM      1  C   UNL     1       2.678   6.943  18.723  0.00  0.00    +0.000 C 
ATOM      2  O   UNL     1       2.367   6.455  19.810  0.00  0.00    +0.000 OA
ATOM      3  N   UNL     1       2.274   8.209  18.310  0.00  0.00    +0.000 N 
ATOM      4  H   UNL     1       2.530   8.600  17.415  0.00  0.00    +0.000 HD
ENDROOT
BRANCH   1   8
ATOM      5  C   UNL     1       5.213   4.792  15.944  0.00  0.00    +0.000 A 
ATOM      6  C   UNL     1       5.284   6.183  16.088  0.00  0.00    +0.000 A 
ATOM      7  C   UNL     1       4.462   6.845  17.005  0.00  0.00    +0.000 A 
ATOM      8  C   UNL     1       3.544   6.141  17.800  0.00  0.00    +0.000 A 
ATOM      9  C   UNL     1       3.484   4.749  17.674  0.00  0.00    +0.000 A 
ATOM     10  C   UNL     1       4.310   4.085  16.754  0.00  0.00    +0.000 A 
BRANCH   5  12
ATOM     11  C   UNL     1       5.347   3.868  13.596  0.00  0.00    +0.000 C 
ATOM     12  C   UNL     1       6.087   4.094  14.917  0.00  0.00    +0.000 C 
ATOM     13  C   UNL     1       7.393   4.859  14.687  0.00  0.00    +0.000 C 
ENDBRANCH   5  12
ENDBRANCH   1   8
BRANCH   3  14
ATOM     14  N   UNL     1       1.503   8.942  19.167  0.00  0.00    +0.000 NA
ATOM     15  C   UNL     1       0.717   9.838  18.665  0.00  0.00    +0.000 C 
BRANCH  15  16
ATOM     16  C   UNL     1      -0.119  10.610  19.555  0.00  0.00    +0.000 A 
ATOM     17  C   UNL     1      -1.174  11.442  19.228  0.00  0.00    +0.000 A 
ATOM     18  C   UNL     1      -1.737  12.084  20.371  0.00  0.00    +0.000 A 
ATOM     19  C   UNL     1      -1.087  11.705  21.526  0.00  0.00    +0.000 A 
ATOM     20  S   UNL     1       0.156  10.577  21.243  0.00  0.00    +0.000 S 
BRANCH  19  21
ATOM     21  N   UNL     1      -1.370  12.178  22.856  0.00  0.00    +0.000 N 
ATOM     22  O   UNL     1      -0.559  12.975  23.344  0.00  0.00    +0.000 OA
ATOM     23  O   UNL     1      -2.391  11.759  23.421  0.00  0.00    +0.000 OA
ENDBRANCH  19  21
ENDBRANCH  15  16
ENDBRANCH   3  14
TORSDOF 5
ENDMDL
MODEL 9
REMARK VINA RESULT:      -6.8      6.252      8.765
REMARK  Name = 
REMARK  7 active torsions:
REMARK  status: ('A' for Active; 'I' for Inactive)
REMARK    1  A    between atoms: C_1  and  C_2
REMARK    2  A    between atoms: C_2  and  C_3
REMARK    3  A    between atoms: C_2  and  C_4
REMARK    4  A    between atoms: C_7  and  C_8
REMARK    5  A    between atoms: N_10  and  N_11
REMARK    6  A    between atoms: C_12  and  C_13
REMARK    7  A    between atoms: C_16  and  N_17
REMARK                            x       y       z     vdW  Elec       q    Type
REMARK                         _______ _______ _______ _____ _____    ______ ____
ROOT
ATOM      1  C   UNL     1       8.432   9.190  18.209  0.00  0.00    +0.000 C 
ATOM      2  O   UNL     1       8.876   8.488  19.117  0.00  0.00    +0.000 OA
ATOM      3  N   UNL     1       7.507   8.735  17.274  0.00  0.00    +0.000 N 
ATOM      4  H   UNL     1       7.150   9.317  16.529  0.00  0.00    +0.000 HD
ENDROOT
BRANCH   1   8
ATOM      5  C   UNL     1       9.929  13.253  18.052  0.00  0.00    +0.000 A 
ATOM      6  C   UNL     1      10.722  12.188  18.494  0.00  0.00    +0.000 A 
ATOM      7  C   UNL     1      10.213  10.886  18.519  0.00  0.00    +0.000 A 
ATOM      8  C   UNL     1       8.900  10.611  18.107  0.00  0.00    +0.000 A 
ATOM      9  C   UNL     1       8.111  11.669  17.644  0.00  0.00    +0.000 A 
ATOM     10  C   UNL     1       8.622  12.975  17.620  0.00  0.00    +0.000 A 
BRANCH   5  12
ATOM     11  C   UNL     1      11.229  14.973  19.370  0.00  0.00    +0.000 C 
ATOM     12  C   UNL     1      10.486  14.666  18.067  0.00  0.00    +0.000 C 
ATOM     13  C   UNL     1      11.383  14.924  16.854  0.00  0.00    +0.000 C 
ENDBRANCH   5  12
ENDBRANCH   1   8
BRANCH   3  14
ATOM     14  N   UNL     1       7.069   7.446  17.388  0.00  0.00    +0.000 NA
ATOM     15  C   UNL     1       5.804   7.218  17.241  0.00  0.00    +0.000 C 
BRANCH  15  16
ATOM     16  C   UNL     1       5.326   5.858  17.339  0.00  0.00    +0.000 A 
ATOM     17  C   UNL     1       4.863   5.040  16.324  0.00  0.00    +0.000 A 
ATOM     18  C   UNL     1       4.421   3.771  16.804  0.00  0.00    +0.000 A 
ATOM     19  C   UNL     1       4.575   3.675  18.170  0.00  0.00    +0.000 A 
ATOM     20  S   UNL     1       5.264   5.072  18.857  0.00  0.00    +0.000 S 
BRANCH  19  21
ATOM     21  N   UNL     1       4.208   2.550  18.991  0.00  0.00    +0.000 N 
ATOM     22  O   UNL     1       4.849   2.397  20.039  0.00  0.00    +0.000 OA
ATOM     23  O   UNL     1       3.289   1.815  18.601  0.00  0.00    +0.000 OA
ENDBRANCH  19  21
ENDBRANCH  15  16
ENDBRANCH   3  14
TORSDOF 5
ENDMDL
