MODEL 1
REMARK VINA RESULT:      -7.8      0.000      0.000
REMARK  Name = 
REMARK  7 active torsions:
REMARK  status: ('A' for Active; 'I' for Inactive)
REMARK    1  A    between atoms: C_1  and  N_2
REMARK    2  A    between atoms: N_2  and  C_3
REMARK    3  A    between atoms: N_2  and  C_4
REMARK    4  A    between atoms: C_4  and  C_5
REMARK    5  A    between atoms: C_5  and  C_6
REMARK    6  A    between atoms: N_8  and  C_9
REMARK    7  A    between atoms: C_19  and  C_20
REMARK                            x       y       z     vdW  Elec       q    Type
REMARK                         _______ _______ _______ _____ _____    ______ ____
ROOT
ATOM      1  C   UNL     1       4.330   4.150  16.975  0.00  0.00    +0.000 A 
ATOM      2  C   UNL     1       3.983   2.960  17.494  0.00  0.00    +0.000 A 
ATOM      3  C   UNL     1       2.983   2.870  18.559  0.00  0.00    +0.000 A 
ATOM      4  N   UNL     1       2.564   1.774  19.118  0.00  0.00    +0.000 NA
ATOM      5  N   UNL     1       1.648   2.213  20.027  0.00  0.00    +0.000 N 
ATOM      6  C   UNL     1       1.535   3.604  19.991  0.00  0.00    +0.000 A 
ATOM      7  O   UNL     1       0.786   4.256  20.699  0.00  0.00    +0.000 OA
ATOM      8  N   UNL     1       2.421   4.008  19.022  0.00  0.00    +0.000 N 
ATOM      9  C   UNL     1       2.732   5.290  18.546  0.00  0.00    +0.000 A 
ATOM     10  C   UNL     1       2.089   6.436  19.043  0.00  0.00    +0.000 A 
ATOM     11  C   UNL     1       2.389   7.712  18.550  0.00  0.00    +0.000 A 
ATOM     12  C   UNL     1       3.354   7.822  17.546  0.00  0.00    +0.000 A 
ATOM     13  C   UNL     1       3.997   6.684  17.043  0.00  0.00    +0.000 A 
ATOM     14  C   UNL     1       3.703   5.396  17.525  0.00  0.00    +0.000 A 
ATOM     15  H   UNL     1       1.117   1.587  20.618  0.00  0.00    +0.000 HD
ENDROOT
BRANCH  11  16
ATOM     16  C   UNL     1       1.698   8.906  19.042  0.00  0.00    +0.000 A 
ATOM     17  C   UNL     1       1.491  10.144  18.343  0.00  0.00    +0.000 A 
ATOM     18  C   UNL     1       0.792  11.069  19.087  0.00  0.00    +0.000 A 
ATOM     19  S   UNL     1       0.380  10.468  20.630  0.00  0.00    +0.000 S 
ATOM     20  C   UNL     1       1.141   8.969  20.307  0.00  0.00    +0.000 A 
ENDBRANCH  11  16
BRANCH   1  23
ATOM     21  C   UNL     1       6.625   4.421  16.051  0.00  0.00    +0.000 C 
ATOM     22  O   UNL     1       7.270   4.448  17.096  0.00  0.00    +0.000 OA
ATOM     23  N   UNL     1       5.254   4.250  15.952  0.00  0.00    +0.000 N 
ATOM     24  H   UNL     1       4.944   4.023  15.009  0.00  0.00    +0.000 HD
BRANCH  21  25
ATOM     25  C   UNL     1       7.312   4.637  14.714  0.00  0.00    +0.000 C 
BRANCH  25  26
ATOM     26  C   UNL     1       6.351   4.746  13.528  0.00  0.00    +0.000 C 
BRANCH  26  28
ATOM     27  C   UNL     1       4.778   3.433  12.180  0.00  0.00    +0.000 C 
ATOM     28  N   UNL     1       6.097   3.467  12.827  0.00  0.00    +0.000 NA
ATOM     29  C   UNL     1       7.143   3.241  11.821  0.00  0.00    +0.000 C 
ENDBRANCH  26  28
ENDBRANCH  25  26
ENDBRANCH  21  25
ENDBRANCH   1  23
TORSDOF 5
ENDMDL
MODEL 2
REMARK VINA RESULT:      -7.6      0.890      1.101
REMARK  Name = 
REMARK  7 active torsions:
REMARK  status: ('A' for Active; 'I' for Inactive)
REMARK    1  A    between atoms: C_1  and  N_2
REMARK    2  A    between atoms: N_2  and  C_3
REMARK    3  A    between atoms: N_2  and  C_4
REMARK    4  A    between atoms: C_4  and  C_5
REMARK    5  A    between atoms: C_5  and  C_6
REMARK    6  A    between atoms: N_8  and  C_9
REMARK    7  A    between atoms: C_19  and  C_20
REMARK                            x       y       z     vdW  Elec       q    Type
REMARK                         _______ _______ _______ _____ _____    ______ ____
ROOT
ATOM      1  C   UNL     1       4.693   4.294  17.313  0.00  0.00    +0.000 A 
ATOM      2  C   UNL     1       4.683   3.179  18.063  0.00  0.00    +0.000 A 
ATOM      3  C   UNL     1       3.930   3.127  19.317  0.00  0.00    +0.000 A 
ATOM      4  N   UNL     1       3.840   2.099  20.108  0.00  0.00    +0.000 NA
ATOM      5  N   UNL     1       3.037   2.544  21.116  0.00  0.00    +0.000 N 
ATOM      6  C   UNL     1       2.652   3.869  20.899  0.00  0.00    +0.000 A 
ATOM      7  O   UNL     1       1.932   4.511  21.646  0.00  0.00    +0.000 OA
ATOM      8  N   UNL     1       3.252   4.225  19.716  0.00  0.00    +0.000 N 
ATOM      9  C   UNL     1       3.217   5.431  19.001  0.00  0.00    +0.000 A 
ATOM     10  C   UNL     1       2.465   6.531  19.448  0.00  0.00    +0.000 A 
ATOM     11  C   UNL     1       2.417   7.726  18.720  0.00  0.00    +0.000 A 
ATOM     12  C   UNL     1       3.143   7.803  17.530  0.00  0.00    +0.000 A 
ATOM     13  C   UNL     1       3.892   6.710  17.075  0.00  0.00    +0.000 A 
ATOM     14  C   UNL     1       3.946   5.503  17.793  0.00  0.00    +0.000 A 
ATOM     15  H   UNL     1       2.754   1.960  21.891  0.00  0.00    +0.000 HD
ENDROOT
BRANCH  11  16
ATOM     16  C   UNL     1       1.609   8.863  19.166  0.00  0.00    +0.000 A 
ATOM     17  C   UNL     1       1.007   9.051  20.457  0.00  0.00    +0.000 A 
ATOM     18  C   UNL     1       0.316  10.238  20.559  0.00  0.00    +0.000 A 
ATOM     19  S   UNL     1       0.374  11.137  19.109  0.00  0.00    +0.000 S 
ATOM     20  C   UNL     1       1.323   9.936  18.342  0.00  0.00    +0.000 A 
ENDBRANCH  11  16
BRANCH   1  23
ATOM     21  C   UNL     1       6.737   4.524  15.913  0.00  0.00    +0.000 C 
ATOM     22  O   UNL     1       7.589   4.592  16.795  0.00  0.00    +0.000 OA
ATOM     23  N   UNL     1       5.378   4.351  16.114  0.00  0.00    +0.000 N 
ATOM     24  H   UNL     1       4.877   4.088  15.268  0.00  0.00    +0.000 HD
BRANCH  21  25
ATOM     25  C   UNL     1       7.124   4.686  14.454  0.00  0.00    +0.000 C 
BRANCH  25  26
ATOM     26  C   UNL     1       5.947   4.580  13.481  0.00  0.00    +0.000 C 
BRANCH  26  28
ATOM     27  C   UNL     1       4.749   3.243  11.809  0.00  0.00    +0.000 C 
ATOM     28  N   UNL     1       5.956   3.362  12.638  0.00  0.00    +0.000 NA
ATOM     29  C   UNL     1       7.146   3.369  11.777  0.00  0.00    +0.000 C 
ENDBRANCH  26  28
ENDBRANCH  25  26
ENDBRANCH  21  25
ENDBRANCH   1  23
TORSDOF 5
ENDMDL
MODEL 3
REMARK VINA RESULT:      -7.5      3.271      7.199
REMARK  Name = 
REMARK  7 active torsions:
REMARK  status: ('A' for Active; 'I' for Inactive)
REMARK    1  A    between atoms: C_1  and  N_2
REMARK    2  A    between atoms: N_2  and  C_3
REMARK    3  A    between atoms: N_2  and  C_4
REMARK    4  A    between atoms: C_4  and  C_5
REMARK    5  A    between atoms: C_5  and  C_6
REMARK    6  A    between atoms: N_8  and  C_9
REMARK    7  A    between atoms: C_19  and  C_20
REMARK                            x       y       z     vdW  Elec       q    Type
REMARK                         _______ _______ _______ _____ _____    ______ ____
ROOT
ATOM      1  C   UNL     1       2.097   6.619  20.110  0.00  0.00    +0.000 A 
ATOM      2  C   UNL     1       1.515   5.649  20.834  0.00  0.00    +0.000 A 
ATOM      3  C   UNL     1       1.710   4.239  20.493  0.00  0.00    +0.000 A 
ATOM      4  N   UNL     1       1.207   3.225  21.134  0.00  0.00    +0.000 NA
ATOM      5  N   UNL     1       1.678   2.149  20.442  0.00  0.00    +0.000 N 
ATOM      6  C   UNL     1       2.476   2.555  19.370  0.00  0.00    +0.000 A 
ATOM      7  O   UNL     1       3.024   1.795  18.589  0.00  0.00    +0.000 OA
ATOM      8  N   UNL     1       2.478   3.928  19.427  0.00  0.00    +0.000 N 
ATOM      9  C   UNL     1       3.113   4.875  18.611  0.00  0.00    +0.000 A 
ATOM     10  C   UNL     1       3.930   4.489  17.534  0.00  0.00    +0.000 A 
ATOM     11  C   UNL     1       4.579   5.439  16.735  0.00  0.00    +0.000 A 
ATOM     12  C   UNL     1       4.391   6.791  17.032  0.00  0.00    +0.000 A 
ATOM     13  C   UNL     1       3.582   7.183  18.106  0.00  0.00    +0.000 A 
ATOM     14  C   UNL     1       2.928   6.241  18.919  0.00  0.00    +0.000 A 
ATOM     15  H   UNL     1       1.479   1.195  20.710  0.00  0.00    +0.000 HD
ENDROOT
BRANCH  11  16
ATOM     16  C   UNL     1       5.456   5.041  15.632  0.00  0.00    +0.000 A 
ATOM     17  C   UNL     1       6.847   5.357  15.467  0.00  0.00    +0.000 A 
ATOM     18  C   UNL     1       7.387   4.820  14.319  0.00  0.00    +0.000 A 
ATOM     19  S   UNL     1       6.234   3.937  13.424  0.00  0.00    +0.000 S 
ATOM     20  C   UNL     1       5.008   4.274  14.570  0.00  0.00    +0.000 A 
ENDBRANCH  11  16
BRANCH   1  23
ATOM     21  C   UNL     1       0.858   8.569  21.035  0.00  0.00    +0.000 C 
ATOM     22  O   UNL     1      -0.148   8.001  21.451  0.00  0.00    +0.000 OA
ATOM     23  N   UNL     1       1.943   7.954  20.433  0.00  0.00    +0.000 N 
ATOM     24  H   UNL     1       2.764   8.554  20.373  0.00  0.00    +0.000 HD
BRANCH  21  25
ATOM     25  C   UNL     1       0.975  10.081  21.106  0.00  0.00    +0.000 C 
BRANCH  25  26
ATOM     26  C   UNL     1       0.601  10.798  19.806  0.00  0.00    +0.000 C 
BRANCH  26  28
ATOM     27  C   UNL     1      -1.592  11.867  19.556  0.00  0.00    +0.000 C 
ATOM     28  N   UNL     1      -0.813  10.631  19.400  0.00  0.00    +0.000 NA
ATOM     29  C   UNL     1      -0.873  10.185  18.001  0.00  0.00    +0.000 C 
ENDBRANCH  26  28
ENDBRANCH  25  26
ENDBRANCH  21  25
ENDBRANCH   1  23
TORSDOF 5
ENDMDL
MODEL 4
REMARK VINA RESULT:      -7.4      3.208      7.137
REMARK  Name = 
REMARK  7 active torsions:
REMARK  status: ('A' for Active; 'I' for Inactive)
REMARK    1  A    between atoms: C_1  and  N_2
REMARK    2  A    between atoms: N_2  and  C_3
REMARK    3  A    between atoms: N_2  and  C_4
REMARK    4  A    between atoms: C_4  and  C_5
REMARK    5  A    between atoms: C_5  and  C_6
REMARK    6  A    between atoms: N_8  and  C_9
REMARK    7  A    between atoms: C_19  and  C_20
REMARK                            x       y       z     vdW  Elec       q    Type
REMARK                         _______ _______ _______ _____ _____    ______ ____
ROOT
ATOM      1  C   UNL     1       2.109   6.570  20.108  0.00  0.00    +0.000 A 
ATOM      2  C   UNL     1       1.536   5.599  20.840  0.00  0.00    +0.000 A 
ATOM      3  C   UNL     1       1.732   4.189  20.499  0.00  0.00    +0.000 A 
ATOM      4  N   UNL     1       1.239   3.175  21.147  0.00  0.00    +0.000 NA
ATOM      5  N   UNL     1       1.706   2.099  20.451  0.00  0.00    +0.000 N 
ATOM      6  C   UNL     1       2.491   2.505  19.371  0.00  0.00    +0.000 A 
ATOM      7  O   UNL     1       3.034   1.745  18.586  0.00  0.00    +0.000 OA
ATOM      8  N   UNL     1       2.490   3.878  19.426  0.00  0.00    +0.000 N 
ATOM      9  C   UNL     1       3.115   4.825  18.602  0.00  0.00    +0.000 A 
ATOM     10  C   UNL     1       3.921   4.440  17.517  0.00  0.00    +0.000 A 
ATOM     11  C   UNL     1       4.560   5.390  16.710  0.00  0.00    +0.000 A 
ATOM     12  C   UNL     1       4.372   6.742  17.007  0.00  0.00    +0.000 A 
ATOM     13  C   UNL     1       3.572   7.134  18.088  0.00  0.00    +0.000 A 
ATOM     14  C   UNL     1       2.929   6.192  18.910  0.00  0.00    +0.000 A 
ATOM     15  H   UNL     1       1.512   1.145  20.723  0.00  0.00    +0.000 HD
ENDROOT
BRANCH  11  16
ATOM     16  C   UNL     1       5.427   4.993  15.599  0.00  0.00    +0.000 A 
ATOM     17  C   UNL     1       5.122   4.066  14.545  0.00  0.00    +0.000 A 
ATOM     18  C   UNL     1       6.155   3.919  13.645  0.00  0.00    +0.000 A 
ATOM     19  S   UNL     1       7.502   4.883  14.056  0.00  0.00    +0.000 S 
ATOM     20  C   UNL     1       6.705   5.497  15.441  0.00  0.00    +0.000 A 
ENDBRANCH  11  16
BRANCH   1  23
ATOM     21  C   UNL     1       0.876   8.517  21.047  0.00  0.00    +0.000 C 
ATOM     22  O   UNL     1      -0.122   7.946  21.477  0.00  0.00    +0.000 OA
ATOM     23  N   UNL     1       1.955   7.904  20.431  0.00  0.00    +0.000 N 
ATOM     24  H   UNL     1       2.772   8.507  20.359  0.00  0.00    +0.000 HD
BRANCH  21  25
ATOM     25  C   UNL     1       0.988  10.030  21.113  0.00  0.00    +0.000 C 
BRANCH  25  26
ATOM     26  C   UNL     1      -0.242  10.771  20.582  0.00  0.00    +0.000 C 
BRANCH  26  28
ATOM     27  C   UNL     1       1.301  11.475  18.809  0.00  0.00    +0.000 C 
ATOM     28  N   UNL     1      -0.102  11.273  19.195  0.00  0.00    +0.000 NA
ATOM     29  C   UNL     1      -0.738  10.331  18.265  0.00  0.00    +0.000 C 
ENDBRANCH  26  28
ENDBRANCH  25  26
ENDBRANCH  21  25
ENDBRANCH   1  23
TORSDOF 5
ENDMDL
MODEL 5
REMARK VINA RESULT:      -7.3      3.350      7.683
REMARK  Name = 
REMARK  7 active torsions:
REMARK  status: ('A' for Active; 'I' for Inactive)
REMARK    1  A    between atoms: C_1  and  N_2
REMARK    2  A    between atoms: N_2  and  C_3
REMARK    3  A    between atoms: N_2  and  C_4
REMARK    4  A    between atoms: C_4  and  C_5
REMARK    5  A    between atoms: C_5  and  C_6
REMARK    6  A    between atoms: N_8  and  C_9
REMARK    7  A    between atoms: C_19  and  C_20
REMARK                            x       y       z     vdW  Elec       q    Type
REMARK                         _______ _______ _______ _____ _____    ______ ____
ROOT
ATOM      1  C   UNL     1       2.068   6.599  20.145  0.00  0.00    +0.000 A 
ATOM      2  C   UNL     1       1.487   5.624  20.863  0.00  0.00    +0.000 A 
ATOM      3  C   UNL     1       1.690   4.216  20.518  0.00  0.00    +0.000 A 
ATOM      4  N   UNL     1       1.190   3.197  21.153  0.00  0.00    +0.000 NA
ATOM      5  N   UNL     1       1.669   2.126  20.459  0.00  0.00    +0.000 N 
ATOM      6  C   UNL     1       2.469   2.539  19.392  0.00  0.00    +0.000 A 
ATOM      7  O   UNL     1       3.024   1.785  18.611  0.00  0.00    +0.000 OA
ATOM      8  N   UNL     1       2.464   3.912  19.454  0.00  0.00    +0.000 N 
ATOM      9  C   UNL     1       3.099   4.865  18.644  0.00  0.00    +0.000 A 
ATOM     10  C   UNL     1       3.922   4.487  17.569  0.00  0.00    +0.000 A 
ATOM     11  C   UNL     1       4.569   5.443  16.776  0.00  0.00    +0.000 A 
ATOM     12  C   UNL     1       4.374   6.792  17.078  0.00  0.00    +0.000 A 
ATOM     13  C   UNL     1       3.558   7.177  18.149  0.00  0.00    +0.000 A 
ATOM     14  C   UNL     1       2.906   6.229  18.957  0.00  0.00    +0.000 A 
ATOM     15  H   UNL     1       1.473   1.170  20.723  0.00  0.00    +0.000 HD
ENDROOT
BRANCH  11  16
ATOM     16  C   UNL     1       5.453   5.053  15.676  0.00  0.00    +0.000 A 
ATOM     17  C   UNL     1       6.840   5.388  15.512  0.00  0.00    +0.000 A 
ATOM     18  C   UNL     1       7.389   4.854  14.366  0.00  0.00    +0.000 A 
ATOM     19  S   UNL     1       6.249   3.951  13.473  0.00  0.00    +0.000 S 
ATOM     20  C   UNL     1       5.017   4.276  14.616  0.00  0.00    +0.000 A 
ENDBRANCH  11  16
BRANCH   1  23
ATOM     21  C   UNL     1       0.812   8.541  21.063  0.00  0.00    +0.000 C 
ATOM     22  O   UNL     1      -0.198   7.968  21.463  0.00  0.00    +0.000 OA
ATOM     23  N   UNL     1       1.906   7.932  20.472  0.00  0.00    +0.000 N 
ATOM     24  H   UNL     1       2.726   8.534  20.426  0.00  0.00    +0.000 HD
BRANCH  21  25
ATOM     25  C   UNL     1       0.923  10.054  21.143  0.00  0.00    +0.000 C 
BRANCH  25  26
ATOM     26  C   UNL     1      -0.173  10.801  20.380  0.00  0.00    +0.000 C 
BRANCH  26  28
ATOM     27  C   UNL     1      -0.898  11.312  22.667  0.00  0.00    +0.000 C 
ATOM     28  N   UNL     1      -1.083  11.596  21.237  0.00  0.00    +0.000 NA
ATOM     29  C   UNL     1      -0.867  13.028  20.988  0.00  0.00    +0.000 C 
ENDBRANCH  26  28
ENDBRANCH  25  26
ENDBRANCH  21  25
ENDBRANCH   1  23
TORSDOF 5
ENDMDL
MODEL 6
REMARK VINA RESULT:      -7.3      3.390      7.775
REMARK  Name = 
REMARK  7 active torsions:
REMARK  status: ('A' for Active; 'I' for Inactive)
REMARK    1  A    between atoms: C_1  and  N_2
REMARK    2  A    between atoms: N_2  and  C_3
REMARK    3  A    between atoms: N_2  and  C_4
REMARK    4  A    between atoms: C_4  and  C_5
REMARK    5  A    between atoms: C_5  and  C_6
REMARK    6  A    between atoms: N_8  and  C_9
REMARK    7  A    between atoms: C_19  and  C_20
REMARK                            x       y       z     vdW  Elec       q    Type
REMARK                         _______ _______ _______ _____ _____    ______ ____
ROOT
ATOM      1  C   UNL     1       2.102   6.550  20.113  0.00  0.00    +0.000 A 
ATOM      2  C   UNL     1       1.530   5.576  20.840  0.00  0.00    +0.000 A 
ATOM      3  C   UNL     1       1.726   4.167  20.492  0.00  0.00    +0.000 A 
ATOM      4  N   UNL     1       1.233   3.150  21.135  0.00  0.00    +0.000 NA
ATOM      5  N   UNL     1       1.701   2.077  20.434  0.00  0.00    +0.000 N 
ATOM      6  C   UNL     1       2.486   2.489  19.356  0.00  0.00    +0.000 A 
ATOM      7  O   UNL     1       3.029   1.733  18.567  0.00  0.00    +0.000 OA
ATOM      8  N   UNL     1       2.484   3.862  19.417  0.00  0.00    +0.000 N 
ATOM      9  C   UNL     1       3.109   4.813  18.598  0.00  0.00    +0.000 A 
ATOM     10  C   UNL     1       3.915   4.433  17.511  0.00  0.00    +0.000 A 
ATOM     11  C   UNL     1       4.553   5.388  16.709  0.00  0.00    +0.000 A 
ATOM     12  C   UNL     1       4.365   6.738  17.012  0.00  0.00    +0.000 A 
ATOM     13  C   UNL     1       3.565   7.124  18.095  0.00  0.00    +0.000 A 
ATOM     14  C   UNL     1       2.923   6.178  18.913  0.00  0.00    +0.000 A 
ATOM     15  H   UNL     1       1.507   1.121  20.701  0.00  0.00    +0.000 HD
ENDROOT
BRANCH  11  16
ATOM     16  C   UNL     1       5.420   4.996  15.596  0.00  0.00    +0.000 A 
ATOM     17  C   UNL     1       5.126   4.054  14.552  0.00  0.00    +0.000 A 
ATOM     18  C   UNL     1       6.155   3.917  13.647  0.00  0.00    +0.000 A 
ATOM     19  S   UNL     1       7.487   4.910  14.039  0.00  0.00    +0.000 S 
ATOM     20  C   UNL     1       6.688   5.522  15.424  0.00  0.00    +0.000 A 
ENDBRANCH  11  16
BRANCH   1  23
ATOM     21  C   UNL     1       0.842   8.504  20.998  0.00  0.00    +0.000 C 
ATOM     22  O   UNL     1      -0.189   7.944  21.360  0.00  0.00    +0.000 OA
ATOM     23  N   UNL     1       1.948   7.883  20.442  0.00  0.00    +0.000 N 
ATOM     24  H   UNL     1       2.777   8.474  20.427  0.00  0.00    +0.000 HD
BRANCH  21  25
ATOM     25  C   UNL     1       0.972  10.015  21.090  0.00  0.00    +0.000 C 
BRANCH  25  26
ATOM     26  C   UNL     1      -0.072  10.677  21.993  0.00  0.00    +0.000 C 
BRANCH  26  28
ATOM     27  C   UNL     1       0.409  12.773  20.814  0.00  0.00    +0.000 C 
ATOM     28  N   UNL     1       0.051  12.149  22.095  0.00  0.00    +0.000 NA
ATOM     29  C   UNL     1      -1.213  12.716  22.582  0.00  0.00    +0.000 C 
ENDBRANCH  26  28
ENDBRANCH  25  26
ENDBRANCH  21  25
ENDBRANCH   1  23
TORSDOF 5
ENDMDL
MODEL 7
REMARK VINA RESULT:      -7.2      3.331      7.184
REMARK  Name = 
REMARK  7 active torsions:
REMARK  status: ('A' for Active; 'I' for Inactive)
REMARK    1  A    between atoms: C_1  and  N_2
REMARK    2  A    between atoms: N_2  and  C_3
REMARK    3  A    between atoms: N_2  and  C_4
REMARK    4  A    between atoms: C_4  and  C_5
REMARK    5  A    between atoms: C_5  and  C_6
REMARK    6  A    between atoms: N_8  and  C_9
REMARK    7  A    between atoms: C_19  and  C_20
REMARK                            x       y       z     vdW  Elec       q    Type
REMARK                         _______ _______ _______ _____ _____    ______ ____
ROOT
ATOM      1  C   UNL     1       1.978   6.819  20.046  0.00  0.00    +0.000 A 
ATOM      2  C   UNL     1       1.688   5.933  21.012  0.00  0.00    +0.000 A 
ATOM      3  C   UNL     1       2.242   4.578  20.979  0.00  0.00    +0.000 A 
ATOM      4  N   UNL     1       2.038   3.651  21.868  0.00  0.00    +0.000 NA
ATOM      5  N   UNL     1       2.763   2.597  21.397  0.00  0.00    +0.000 N 
ATOM      6  C   UNL     1       3.404   2.926  20.201  0.00  0.00    +0.000 A 
ATOM      7  O   UNL     1       4.119   2.167  19.567  0.00  0.00    +0.000 OA
ATOM      8  N   UNL     1       3.044   4.229  19.951  0.00  0.00    +0.000 N 
ATOM      9  C   UNL     1       3.390   5.085  18.896  0.00  0.00    +0.000 A 
ATOM     10  C   UNL     1       4.258   4.675  17.869  0.00  0.00    +0.000 A 
ATOM     11  C   UNL     1       4.617   5.542  16.829  0.00  0.00    +0.000 A 
ATOM     12  C   UNL     1       4.085   6.833  16.832  0.00  0.00    +0.000 A 
ATOM     13  C   UNL     1       3.222   7.250  17.853  0.00  0.00    +0.000 A 
ATOM     14  C   UNL     1       2.856   6.393  18.906  0.00  0.00    +0.000 A 
ATOM     15  H   UNL     1       2.829   1.714  21.886  0.00  0.00    +0.000 HD
ENDROOT
BRANCH  11  16
ATOM     16  C   UNL     1       5.546   5.129  15.775  0.00  0.00    +0.000 A 
ATOM     17  C   UNL     1       6.959   5.382  15.712  0.00  0.00    +0.000 A 
ATOM     18  C   UNL     1       7.549   4.848  14.587  0.00  0.00    +0.000 A 
ATOM     19  S   UNL     1       6.418   4.045  13.592  0.00  0.00    +0.000 S 
ATOM     20  C   UNL     1       5.136   4.413  14.664  0.00  0.00    +0.000 A 
ENDBRANCH  11  16
BRANCH   1  23
ATOM     21  C   UNL     1       1.301   8.930  21.175  0.00  0.00    +0.000 C 
ATOM     22  O   UNL     1       1.618   8.662  22.331  0.00  0.00    +0.000 OA
ATOM     23  N   UNL     1       1.483   8.109  20.075  0.00  0.00    +0.000 N 
ATOM     24  H   UNL     1       1.373   8.595  19.188  0.00  0.00    +0.000 HD
BRANCH  21  25
ATOM     25  C   UNL     1       0.596  10.236  20.853  0.00  0.00    +0.000 C 
BRANCH  25  26
ATOM     26  C   UNL     1       0.792  10.712  19.412  0.00  0.00    +0.000 C 
BRANCH  26  28
ATOM     27  C   UNL     1       1.539  12.739  20.574  0.00  0.00    +0.000 C 
ATOM     28  N   UNL     1       1.173  12.138  19.284  0.00  0.00    +0.000 NA
ATOM     29  C   UNL     1       2.296  12.265  18.346  0.00  0.00    +0.000 C 
ENDBRANCH  26  28
ENDBRANCH  25  26
ENDBRANCH  21  25
ENDBRANCH   1  23
TORSDOF 5
ENDMDL
MODEL 8
REMARK VINA RESULT:      -7.0      1.099      1.287
REMARK  Name = 
REMARK  7 active torsions:
REMARK  status: ('A' for Active; 'I' for Inactive)
REMARK    1  A    between atoms: C_1  and  N_2
REMARK    2  A    between atoms: N_2  and  C_3
REMARK    3  A    between atoms: N_2  and  C_4
REMARK    4  A    between atoms: C_4  and  C_5
REMARK    5  A    between atoms: C_5  and  C_6
REMARK    6  A    between atoms: N_8  and  C_9
REMARK    7  A    between atoms: C_19  and  C_20
REMARK                            x       y       z     vdW  Elec       q    Type
REMARK                         _______ _______ _______ _____ _____    ______ ____
ROOT
ATOM      1  C   UNL     1       4.669   4.021  17.003  0.00  0.00    +0.000 A 
ATOM      2  C   UNL     1       4.265   2.829  17.474  0.00  0.00    +0.000 A 
ATOM      3  C   UNL     1       3.162   2.737  18.432  0.00  0.00    +0.000 A 
ATOM      4  N   UNL     1       2.683   1.638  18.937  0.00  0.00    +0.000 NA
ATOM      5  N   UNL     1       1.682   2.076  19.753  0.00  0.00    +0.000 N 
ATOM      6  C   UNL     1       1.582   3.468  19.718  0.00  0.00    +0.000 A 
ATOM      7  O   UNL     1       0.768   4.119  20.352  0.00  0.00    +0.000 OA
ATOM      8  N   UNL     1       2.563   3.874  18.846  0.00  0.00    +0.000 N 
ATOM      9  C   UNL     1       2.927   5.158  18.415  0.00  0.00    +0.000 A 
ATOM     10  C   UNL     1       2.243   6.304  18.855  0.00  0.00    +0.000 A 
ATOM     11  C   UNL     1       2.598   7.582  18.405  0.00  0.00    +0.000 A 
ATOM     12  C   UNL     1       3.659   7.694  17.505  0.00  0.00    +0.000 A 
ATOM     13  C   UNL     1       4.344   6.556  17.059  0.00  0.00    +0.000 A 
ATOM     14  C   UNL     1       3.996   5.267  17.498  0.00  0.00    +0.000 A 
ATOM     15  H   UNL     1       1.092   1.448  20.282  0.00  0.00    +0.000 HD
ENDROOT
BRANCH  11  16
ATOM     16  C   UNL     1       1.867   8.776  18.836  0.00  0.00    +0.000 A 
ATOM     17  C   UNL     1       1.132   8.954  20.058  0.00  0.00    +0.000 A 
ATOM     18  C   UNL     1       0.565  10.205  20.164  0.00  0.00    +0.000 A 
ATOM     19  S   UNL     1       0.900  11.177  18.802  0.00  0.00    +0.000 S 
ATOM     20  C   UNL     1       1.804   9.923  18.065  0.00  0.00    +0.000 A 
ENDBRANCH  11  16
BRANCH   1  23
ATOM     21  C   UNL     1       5.594   4.324  14.713  0.00  0.00    +0.000 C 
ATOM     22  O   UNL     1       4.554   4.514  14.089  0.00  0.00    +0.000 OA
ATOM     23  N   UNL     1       5.692   4.123  16.080  0.00  0.00    +0.000 N 
ATOM     24  H   UNL     1       6.642   4.218  16.433  0.00  0.00    +0.000 HD
BRANCH  21  25
ATOM     25  C   UNL     1       6.925   4.238  13.985  0.00  0.00    +0.000 C 
BRANCH  25  26
ATOM     26  C   UNL     1       6.797   4.027  12.475  0.00  0.00    +0.000 C 
BRANCH  26  28
ATOM     27  C   UNL     1       4.998   2.736  11.419  0.00  0.00    +0.000 C 
ATOM     28  N   UNL     1       6.308   2.685  12.083  0.00  0.00    +0.000 NA
ATOM     29  C   UNL     1       7.286   2.045  11.193  0.00  0.00    +0.000 C 
ENDBRANCH  26  28
ENDBRANCH  25  26
ENDBRANCH  21  25
ENDBRANCH   1  23
TORSDOF 5
ENDMDL
MODEL 9
REMARK VINA RESULT:      -7.0      3.309      7.464
REMARK  Name = 
REMARK  7 active torsions:
REMARK  status: ('A' for Active; 'I' for Inactive)
REMARK    1  A    between atoms: C_1  and  N_2
REMARK    2  A    between atoms: N_2  and  C_3
REMARK    3  A    between atoms: N_2  and  C_4
REMARK    4  A    between atoms: C_4  and  C_5
REMARK    5  A    between atoms: C_5  and  C_6
REMARK    6  A    between atoms: N_8  and  C_9
REMARK    7  A    between atoms: C_19  and  C_20
REMARK                            x       y       z     vdW  Elec       q    Type
REMARK                         _______ _______ _______ _____ _____    ______ ____
ROOT
ATOM      1  C   UNL     1       2.056   7.043  19.784  0.00  0.00    +0.000 A 
ATOM      2  C   UNL     1       1.482   6.133  20.589  0.00  0.00    +0.000 A 
ATOM      3  C   UNL     1       1.717   4.702  20.390  0.00  0.00    +0.000 A 
ATOM      4  N   UNL     1       1.226   3.742  21.117  0.00  0.00    +0.000 NA
ATOM      5  N   UNL     1       1.736   2.616  20.540  0.00  0.00    +0.000 N 
ATOM      6  C   UNL     1       2.545   2.937  19.449  0.00  0.00    +0.000 A 
ATOM      7  O   UNL     1       3.128   2.119  18.756  0.00  0.00    +0.000 OA
ATOM      8  N   UNL     1       2.514   4.309  19.373  0.00  0.00    +0.000 N 
ATOM      9  C   UNL     1       3.144   5.188  18.480  0.00  0.00    +0.000 A 
ATOM     10  C   UNL     1       3.991   4.721  17.461  0.00  0.00    +0.000 A 
ATOM     11  C   UNL     1       4.633   5.606  16.585  0.00  0.00    +0.000 A 
ATOM     12  C   UNL     1       4.408   6.975  16.746  0.00  0.00    +0.000 A 
ATOM     13  C   UNL     1       3.567   7.448  17.762  0.00  0.00    +0.000 A 
ATOM     14  C   UNL     1       2.920   6.573  18.651  0.00  0.00    +0.000 A 
ATOM     15  H   UNL     1       1.555   1.687  20.896  0.00  0.00    +0.000 HD
ENDROOT
BRANCH  11  16
ATOM     16  C   UNL     1       5.542   5.126  15.542  0.00  0.00    +0.000 A 
ATOM     17  C   UNL     1       6.954   5.370  15.436  0.00  0.00    +0.000 A 
ATOM     18  C   UNL     1       7.521   4.765  14.336  0.00  0.00    +0.000 A 
ATOM     19  S   UNL     1       6.370   3.905  13.415  0.00  0.00    +0.000 S 
ATOM     20  C   UNL     1       5.109   4.343  14.486  0.00  0.00    +0.000 A 
ENDBRANCH  11  16
BRANCH   1  23
ATOM     21  C   UNL     1       1.161   9.283  19.174  0.00  0.00    +0.000 C 
ATOM     22  O   UNL     1       0.519   8.987  18.170  0.00  0.00    +0.000 OA
ATOM     23  N   UNL     1       1.864   8.398  19.974  0.00  0.00    +0.000 N 
ATOM     24  H   UNL     1       2.129   8.793  20.874  0.00  0.00    +0.000 HD
BRANCH  21  25
ATOM     25  C   UNL     1       1.282  10.732  19.612  0.00  0.00    +0.000 C 
BRANCH  25  26
ATOM     26  C   UNL     1       0.973  10.964  21.094  0.00  0.00    +0.000 C 
BRANCH  26  28
ATOM     27  C   UNL     1      -0.331   9.891  22.873  0.00  0.00    +0.000 C 
ATOM     28  N   UNL     1      -0.357  10.477  21.525  0.00  0.00    +0.000 NA
ATOM     29  C   UNL     1      -1.322  11.585  21.489  0.00  0.00    +0.000 C 
ENDBRANCH  26  28
ENDBRANCH  25  26
ENDBRANCH  21  25
ENDBRANCH   1  23
TORSDOF 5
ENDMDL
