MODEL 1
REMARK VINA RESULT:      -7.3      0.000      0.000
REMARK  Name = 
REMARK  0 active torsions:
REMARK  status: ('A' for Active; 'I' for Inactive)
REMARK                            x       y       z     vdW  Elec       q    Type
REMARK                         _______ _______ _______ _____ _____    ______ ____
ROOT
ATOM      1  O   UNL     1       1.928   2.764  22.015  0.00  0.00    +0.000 OA
ATOM      2  C   UNL     1       2.260   3.461  21.061  0.00  0.00    +0.000 A 
ATOM      3  C   UNL     1       1.932   4.896  21.028  0.00  0.00    +0.000 A 
ATOM      4  C   UNL     1       2.308   5.695  20.025  0.00  0.00    +0.000 A 
ATOM      5  C   UNL     1       3.105   5.155  18.935  0.00  0.00    +0.000 A 
ATOM      6  C   UNL     1       3.608   5.984  17.920  0.00  0.00    +0.000 A 
ATOM      7  C   UNL     1       4.453   5.418  16.945  0.00  0.00    +0.000 A 
ATOM      8  C   UNL     1       5.200   5.911  15.842  0.00  0.00    +0.000 A 
ATOM      9  C   UNL     1       5.877   4.835  15.309  0.00  0.00    +0.000 A 
ATOM     10 CL   UNL     1       6.982   4.868  13.994  0.00  0.00    +0.000 Cl
ATOM     11  O   UNL     1       5.567   3.698  15.994  0.00  0.00    +0.000 OA
ATOM     12  C   UNL     1       4.715   4.052  16.994  0.00  0.00    +0.000 A 
ATOM     13  C   UNL     1       4.194   3.188  17.950  0.00  0.00    +0.000 A 
ATOM     14  C   UNL     1       3.404   3.790  18.931  0.00  0.00    +0.000 A 
ATOM     15  O   UNL     1       2.944   2.949  19.968  0.00  0.00    +0.000 OA
ENDROOT
TORSDOF 0
ENDMDL
MODEL 2
REMARK VINA RESULT:      -7.1      1.544      1.720
REMARK  Name = 
REMARK  0 active torsions:
REMARK  status: ('A' for Active; 'I' for Inactive)
REMARK                            x       y       z     vdW  Elec       q    Type
REMARK                         _______ _______ _______ _____ _____    ______ ____
ROOT
ATOM      1  O   UNL     1       1.451   2.763  22.393  0.00  0.00    +0.000 OA
ATOM      2  C   UNL     1       1.783   2.875  21.217  0.00  0.00    +0.000 A 
ATOM      3  C   UNL     1       0.780   2.801  20.142  0.00  0.00    +0.000 A 
ATOM      4  C   UNL     1       1.096   2.955  18.852  0.00  0.00    +0.000 A 
ATOM      5  C   UNL     1       2.472   3.244  18.480  0.00  0.00    +0.000 A 
ATOM      6  C   UNL     1       2.824   3.518  17.149  0.00  0.00    +0.000 A 
ATOM      7  C   UNL     1       4.155   3.886  16.865  0.00  0.00    +0.000 A 
ATOM      8  C   UNL     1       4.867   4.299  15.708  0.00  0.00    +0.000 A 
ATOM      9  C   UNL     1       6.156   4.571  16.112  0.00  0.00    +0.000 A 
ATOM     10 CL   UNL     1       7.434   5.169  15.132  0.00  0.00    +0.000 Cl
ATOM     11  O   UNL     1       6.295   4.315  17.444  0.00  0.00    +0.000 OA
ATOM     12  C   UNL     1       5.079   3.914  17.904  0.00  0.00    +0.000 A 
ATOM     13  C   UNL     1       4.784   3.599  19.225  0.00  0.00    +0.000 A 
ATOM     14  C   UNL     1       3.446   3.290  19.480  0.00  0.00    +0.000 A 
ATOM     15  O   UNL     1       3.102   3.063  20.831  0.00  0.00    +0.000 OA
ENDROOT
TORSDOF 0
ENDMDL
MODEL 3
REMARK VINA RESULT:      -7.0      3.093      5.739
REMARK  Name = 
REMARK  0 active torsions:
REMARK  status: ('A' for Active; 'I' for Inactive)
REMARK                            x       y       z     vdW  Elec       q    Type
REMARK                         _______ _______ _______ _____ _____    ______ ____
ROOT
ATOM      1  O   UNL     1       7.792   6.789  16.381  0.00  0.00    +0.000 OA
ATOM      2  C   UNL     1       6.871   6.012  16.615  0.00  0.00    +0.000 A 
ATOM      3  C   UNL     1       6.564   4.909  15.689  0.00  0.00    +0.000 A 
ATOM      4  C   UNL     1       5.594   4.021  15.926  0.00  0.00    +0.000 A 
ATOM      5  C   UNL     1       4.826   4.108  17.159  0.00  0.00    +0.000 A 
ATOM      6  C   UNL     1       3.874   3.133  17.494  0.00  0.00    +0.000 A 
ATOM      7  C   UNL     1       3.232   3.219  18.745  0.00  0.00    +0.000 A 
ATOM      8  C   UNL     1       2.301   2.423  19.464  0.00  0.00    +0.000 A 
ATOM      9  C   UNL     1       2.108   3.040  20.681  0.00  0.00    +0.000 A 
ATOM     10 CL   UNL     1       1.128   2.473  21.973  0.00  0.00    +0.000 Cl
ATOM     11  O   UNL     1       2.835   4.190  20.745  0.00  0.00    +0.000 OA
ATOM     12  C   UNL     1       3.527   4.293  19.578  0.00  0.00    +0.000 A 
ATOM     13  C   UNL     1       4.424   5.307  19.262  0.00  0.00    +0.000 A 
ATOM     14  C   UNL     1       5.081   5.163  18.039  0.00  0.00    +0.000 A 
ATOM     15  O   UNL     1       6.068   6.127  17.740  0.00  0.00    +0.000 OA
ENDROOT
TORSDOF 0
ENDMDL
MODEL 4
REMARK VINA RESULT:      -6.9      2.898      5.494
REMARK  Name = 
REMARK  0 active torsions:
REMARK  status: ('A' for Active; 'I' for Inactive)
REMARK                            x       y       z     vdW  Elec       q    Type
REMARK                         _______ _______ _______ _____ _____    ______ ____
ROOT
ATOM      1  O   UNL     1       7.464   5.349  15.332  0.00  0.00    +0.000 OA
ATOM      2  C   UNL     1       6.520   5.486  16.103  0.00  0.00    +0.000 A 
ATOM      3  C   UNL     1       5.581   6.609  15.950  0.00  0.00    +0.000 A 
ATOM      4  C   UNL     1       4.520   6.772  16.747  0.00  0.00    +0.000 A 
ATOM      5  C   UNL     1       4.245   5.793  17.787  0.00  0.00    +0.000 A 
ATOM      6  C   UNL     1       3.084   5.871  18.572  0.00  0.00    +0.000 A 
ATOM      7  C   UNL     1       2.826   4.840  19.497  0.00  0.00    +0.000 A 
ATOM      8  C   UNL     1       1.768   4.521  20.389  0.00  0.00    +0.000 A 
ATOM      9  C   UNL     1       2.102   3.324  20.988  0.00  0.00    +0.000 A 
ATOM     10 CL   UNL     1       1.149   2.439  22.111  0.00  0.00    +0.000 Cl
ATOM     11  O   UNL     1       3.320   2.902  20.548  0.00  0.00    +0.000 OA
ATOM     12  C   UNL     1       3.754   3.812  19.634  0.00  0.00    +0.000 A 
ATOM     13  C   UNL     1       4.940   3.726  18.913  0.00  0.00    +0.000 A 
ATOM     14  C   UNL     1       5.139   4.735  17.969  0.00  0.00    +0.000 A 
ATOM     15  O   UNL     1       6.288   4.615  17.157  0.00  0.00    +0.000 OA
ENDROOT
TORSDOF 0
ENDMDL
MODEL 5
REMARK VINA RESULT:      -6.9      3.424      5.378
REMARK  Name = 
REMARK  0 active torsions:
REMARK  status: ('A' for Active; 'I' for Inactive)
REMARK                            x       y       z     vdW  Elec       q    Type
REMARK                         _______ _______ _______ _____ _____    ______ ____
ROOT
ATOM      1  O   UNL     1       7.830   8.440  17.093  0.00  0.00    +0.000 OA
ATOM      2  C   UNL     1       7.302   7.429  17.547  0.00  0.00    +0.000 A 
ATOM      3  C   UNL     1       7.955   6.655  18.615  0.00  0.00    +0.000 A 
ATOM      4  C   UNL     1       7.395   5.570  19.160  0.00  0.00    +0.000 A 
ATOM      5  C   UNL     1       6.074   5.145  18.721  0.00  0.00    +0.000 A 
ATOM      6  C   UNL     1       5.409   4.077  19.343  0.00  0.00    +0.000 A 
ATOM      7  C   UNL     1       4.094   3.775  18.937  0.00  0.00    +0.000 A 
ATOM      8  C   UNL     1       3.091   2.859  19.352  0.00  0.00    +0.000 A 
ATOM      9  C   UNL     1       1.982   3.105  18.572  0.00  0.00    +0.000 A 
ATOM     10 CL   UNL     1       0.454   2.328  18.688  0.00  0.00    +0.000 Cl
ATOM     11  O   UNL     1       2.250   4.094  17.674  0.00  0.00    +0.000 OA
ATOM     12  C   UNL     1       3.524   4.510  17.903  0.00  0.00    +0.000 A 
ATOM     13  C   UNL     1       4.168   5.540  17.227  0.00  0.00    +0.000 A 
ATOM     14  C   UNL     1       5.449   5.848  17.688  0.00  0.00    +0.000 A 
ATOM     15  O   UNL     1       6.085   6.954  17.082  0.00  0.00    +0.000 OA
ENDROOT
TORSDOF 0
ENDMDL
MODEL 6
REMARK VINA RESULT:      -6.8      3.337      5.929
REMARK  Name = 
REMARK  0 active torsions:
REMARK  status: ('A' for Active; 'I' for Inactive)
REMARK                            x       y       z     vdW  Elec       q    Type
REMARK                         _______ _______ _______ _____ _____    ______ ____
ROOT
ATOM      1  O   UNL     1       7.826   5.475  14.066  0.00  0.00    +0.000 OA
ATOM      2  C   UNL     1       6.871   5.219  14.794  0.00  0.00    +0.000 A 
ATOM      3  C   UNL     1       6.428   3.829  14.991  0.00  0.00    +0.000 A 
ATOM      4  C   UNL     1       5.417   3.506  15.804  0.00  0.00    +0.000 A 
ATOM      5  C   UNL     1       4.741   4.550  16.560  0.00  0.00    +0.000 A 
ATOM      6  C   UNL     1       3.749   4.239  17.503  0.00  0.00    +0.000 A 
ATOM      7  C   UNL     1       3.200   5.284  18.272  0.00  0.00    +0.000 A 
ATOM      8  C   UNL     1       2.267   5.374  19.339  0.00  0.00    +0.000 A 
ATOM      9  C   UNL     1       2.199   6.705  19.694  0.00  0.00    +0.000 A 
ATOM     10 CL   UNL     1       1.270   7.378  20.974  0.00  0.00    +0.000 Cl
ATOM     11  O   UNL     1       3.005   7.449  18.887  0.00  0.00    +0.000 OA
ATOM     12  C   UNL     1       3.623   6.588  18.033  0.00  0.00    +0.000 A 
ATOM     13  C   UNL     1       4.565   6.943  17.074  0.00  0.00    +0.000 A 
ATOM     14  C   UNL     1       5.126   5.879  16.366  0.00  0.00    +0.000 A 
ATOM     15  O   UNL     1       6.155   6.205  15.456  0.00  0.00    +0.000 OA
ENDROOT
TORSDOF 0
ENDMDL
MODEL 7
REMARK VINA RESULT:      -6.8      1.990      2.093
REMARK  Name = 
REMARK  0 active torsions:
REMARK  status: ('A' for Active; 'I' for Inactive)
REMARK                            x       y       z     vdW  Elec       q    Type
REMARK                         _______ _______ _______ _____ _____    ______ ____
ROOT
ATOM      1  O   UNL     1       1.472   2.153  22.009  0.00  0.00    +0.000 OA
ATOM      2  C   UNL     1       1.849   2.813  21.045  0.00  0.00    +0.000 A 
ATOM      3  C   UNL     1       0.889   3.280  20.031  0.00  0.00    +0.000 A 
ATOM      4  C   UNL     1       1.255   4.032  18.989  0.00  0.00    +0.000 A 
ATOM      5  C   UNL     1       2.643   4.446  18.853  0.00  0.00    +0.000 A 
ATOM      6  C   UNL     1       3.046   5.322  17.833  0.00  0.00    +0.000 A 
ATOM      7  C   UNL     1       4.384   5.763  17.812  0.00  0.00    +0.000 A 
ATOM      8  C   UNL     1       5.138   6.673  17.025  0.00  0.00    +0.000 A 
ATOM      9  C   UNL     1       6.409   6.699  17.558  0.00  0.00    +0.000 A 
ATOM     10 CL   UNL     1       7.720   7.679  17.036  0.00  0.00    +0.000 Cl
ATOM     11  O   UNL     1       6.497   5.832  18.606  0.00  0.00    +0.000 OA
ATOM     12  C   UNL     1       5.267   5.275  18.769  0.00  0.00    +0.000 A 
ATOM     13  C   UNL     1       4.921   4.366  19.764  0.00  0.00    +0.000 A 
ATOM     14  C   UNL     1       3.577   3.991  19.787  0.00  0.00    +0.000 A 
ATOM     15  O   UNL     1       3.181   3.146  20.847  0.00  0.00    +0.000 OA
ENDROOT
TORSDOF 0
ENDMDL
MODEL 8
REMARK VINA RESULT:      -6.8      1.812      2.422
REMARK  Name = 
REMARK  0 active torsions:
REMARK  status: ('A' for Active; 'I' for Inactive)
REMARK                            x       y       z     vdW  Elec       q    Type
REMARK                         _______ _______ _______ _____ _____    ______ ____
ROOT
ATOM      1  O   UNL     1       1.645   6.512  20.698  0.00  0.00    +0.000 OA
ATOM      2  C   UNL     1       2.272   5.853  19.874  0.00  0.00    +0.000 A 
ATOM      3  C   UNL     1       1.898   4.459  19.584  0.00  0.00    +0.000 A 
ATOM      4  C   UNL     1       2.532   3.721  18.668  0.00  0.00    +0.000 A 
ATOM      5  C   UNL     1       3.611   4.311  17.890  0.00  0.00    +0.000 A 
ATOM      6  C   UNL     1       4.228   3.603  16.847  0.00  0.00    +0.000 A 
ATOM      7  C   UNL     1       5.200   4.263  16.068  0.00  0.00    +0.000 A 
ATOM      8  C   UNL     1       5.971   3.936  14.922  0.00  0.00    +0.000 A 
ATOM      9  C   UNL     1       6.713   5.056  14.611  0.00  0.00    +0.000 A 
ATOM     10 CL   UNL     1       7.777   5.242  13.275  0.00  0.00    +0.000 Cl
ATOM     11  O   UNL     1       6.475   6.044  15.518  0.00  0.00    +0.000 OA
ATOM     12  C   UNL     1       5.548   5.570  16.394  0.00  0.00    +0.000 A 
ATOM     13  C   UNL     1       4.998   6.287  17.450  0.00  0.00    +0.000 A 
ATOM     14  C   UNL     1       4.002   5.623  18.168  0.00  0.00    +0.000 A 
ATOM     15  O   UNL     1       3.360   6.366  19.183  0.00  0.00    +0.000 OA
ENDROOT
TORSDOF 0
ENDMDL
MODEL 9
REMARK VINA RESULT:      -6.8      2.724      5.508
REMARK  Name = 
REMARK  0 active torsions:
REMARK  status: ('A' for Active; 'I' for Inactive)
REMARK                            x       y       z     vdW  Elec       q    Type
REMARK                         _______ _______ _______ _____ _____    ______ ____
ROOT
ATOM      1  O   UNL     1       6.365   4.272  13.874  0.00  0.00    +0.000 OA
ATOM      2  C   UNL     1       5.811   4.587  14.922  0.00  0.00    +0.000 A 
ATOM      3  C   UNL     1       5.525   5.999  15.228  0.00  0.00    +0.000 A 
ATOM      4  C   UNL     1       4.891   6.378  16.341  0.00  0.00    +0.000 A 
ATOM      5  C   UNL     1       4.423   5.371  17.281  0.00  0.00    +0.000 A 
ATOM      6  C   UNL     1       3.660   5.722  18.406  0.00  0.00    +0.000 A 
ATOM      7  C   UNL     1       3.155   4.694  19.226  0.00  0.00    +0.000 A 
ATOM      8  C   UNL     1       2.312   4.630  20.366  0.00  0.00    +0.000 A 
ATOM      9  C   UNL     1       2.152   3.294  20.667  0.00  0.00    +0.000 A 
ATOM     10 CL   UNL     1       1.177   2.634  21.917  0.00  0.00    +0.000 Cl
ATOM     11  O   UNL     1       2.876   2.528  19.803  0.00  0.00    +0.000 OA
ATOM     12  C   UNL     1       3.473   3.375  18.921  0.00  0.00    +0.000 A 
ATOM     13  C   UNL     1       4.268   2.988  17.847  0.00  0.00    +0.000 A 
ATOM     14  C   UNL     1       4.708   4.027  17.026  0.00  0.00    +0.000 A 
ATOM     15  O   UNL     1       5.435   3.651  15.875  0.00  0.00    +0.000 OA
ENDROOT
TORSDOF 0
ENDMDL
