MODEL 1
REMARK VINA RESULT:      -7.9      0.000      0.000
REMARK  Name = 
REMARK  10 active torsions:
REMARK  status: ('A' for Active; 'I' for Inactive)
REMARK    1  A    between atoms: C_1  and  O_2
REMARK    2  A    between atoms: O_2  and  C_3
REMARK    3  A    between atoms: C_8  and  C_9
REMARK    4  A    between atoms: N_12  and  C_13
REMARK    5  A    between atoms: C_13  and  C_14
REMARK    6  A    between atoms: C_14  and  C_15
REMARK    7  A    between atoms: C_15  and  N_16
REMARK    8  A    between atoms: N_16  and  C_17
REMARK    9  A    between atoms: N_16  and  C_18
REMARK   10  A    between atoms: C_26  and  C_27
REMARK                            x       y       z     vdW  Elec       q    Type
REMARK                         _______ _______ _______ _____ _____    ______ ____
ROOT
ATOM      1  C   UNL     1       2.574   5.962  19.643  0.00  0.00    +0.000 A 
ATOM      2  N   UNL     1       3.899   5.935  19.444  0.00  0.00    +0.000 NA
ATOM      3  C   UNL     1       4.433   4.739  19.124  0.00  0.00    +0.000 A 
ATOM      4  N   UNL     1       5.832   4.612  19.029  0.00  0.00    +0.000 N 
ATOM      5  C   UNL     1       3.634   3.588  18.947  0.00  0.00    +0.000 A 
ATOM      6  C   UNL     1       4.108   2.295  18.585  0.00  0.00    +0.000 A 
ATOM      7  C   UNL     1       3.235   1.217  18.449  0.00  0.00    +0.000 A 
ATOM      8  C   UNL     1       1.879   1.402  18.690  0.00  0.00    +0.000 A 
ATOM      9  C   UNL     1       1.415   2.670  19.052  0.00  0.00    +0.000 A 
ATOM     10  C   UNL     1       2.264   3.760  19.181  0.00  0.00    +0.000 A 
ATOM     11  N   UNL     1       1.733   4.931  19.539  0.00  0.00    +0.000 NA
ATOM     12  H   UNL     1       6.098   4.267  18.112  0.00  0.00    +0.000 HD
ENDROOT
BRANCH   1  18
ATOM     13  C   UNL     1       0.040  11.333  21.071  0.00  0.00    +0.000 A 
ATOM     14  C   UNL     1       0.014  10.730  22.326  0.00  0.00    +0.000 A 
ATOM     15  C   UNL     1       0.521   9.435  22.519  0.00  0.00    +0.000 A 
ATOM     16  C   UNL     1       1.047   8.764  21.409  0.00  0.00    +0.000 A 
ATOM     17  N   UNL     1       1.550   7.490  21.292  0.00  0.00    +0.000 N 
ATOM     18  C   UNL     1       1.981   7.240  20.008  0.00  0.00    +0.000 A 
ATOM     19  C   UNL     1       1.735   8.395  19.266  0.00  0.00    +0.000 A 
ATOM     20  C   UNL     1       1.122   9.349  20.147  0.00  0.00    +0.000 A 
ATOM     21  C   UNL     1       0.614  10.657  19.986  0.00  0.00    +0.000 A 
ATOM     22  H   UNL     1       1.602   6.815  22.045  0.00  0.00    +0.000 HD
BRANCH  13  24
ATOM     23  C   UNL     1      -1.751  12.887  21.277  0.00  0.00    +0.000 C 
ATOM     24  O   UNL     1      -0.460  12.573  20.768  0.00  0.00    +0.000 OA
ENDBRANCH  13  24
BRANCH  19  25
ATOM     25  C   UNL     1       2.021   8.568  17.849  0.00  0.00    +0.000 C 
ATOM     26  O   UNL     1       2.297   9.648  17.333  0.00  0.00    +0.000 OA
ENDBRANCH  19  25
ENDBRANCH   1  18
BRANCH   4  27
ATOM     27  C   UNL     1       6.653   5.733  19.483  0.00  0.00    +0.000 C 
BRANCH  27  28
ATOM     28  C   UNL     1       7.626   6.146  18.374  0.00  0.00    +0.000 C 
BRANCH  28  29
ATOM     29  C   UNL     1       6.993   7.136  17.390  0.00  0.00    +0.000 C 
BRANCH  29  30
ATOM     30  N   UNL     1       6.556   6.524  16.126  0.00  0.00    +0.000 NA
ATOM     31  C   UNL     1       7.067   5.156  15.970  0.00  0.00    +0.000 C 
ATOM     32  C   UNL     1       5.094   6.513  16.047  0.00  0.00    +0.000 C 
ENDBRANCH  29  30
ENDBRANCH  28  29
ENDBRANCH  27  28
ENDBRANCH   4  27
TORSDOF 7
ENDMDL
MODEL 2
REMARK VINA RESULT:      -7.9      1.569      4.074
REMARK  Name = 
REMARK  10 active torsions:
REMARK  status: ('A' for Active; 'I' for Inactive)
REMARK    1  A    between atoms: C_1  and  O_2
REMARK    2  A    between atoms: O_2  and  C_3
REMARK    3  A    between atoms: C_8  and  C_9
REMARK    4  A    between atoms: N_12  and  C_13
REMARK    5  A    between atoms: C_13  and  C_14
REMARK    6  A    between atoms: C_14  and  C_15
REMARK    7  A    between atoms: C_15  and  N_16
REMARK    8  A    between atoms: N_16  and  C_17
REMARK    9  A    between atoms: N_16  and  C_18
REMARK   10  A    between atoms: C_26  and  C_27
REMARK                            x       y       z     vdW  Elec       q    Type
REMARK                         _______ _______ _______ _____ _____    ______ ____
ROOT
ATOM      1  C   UNL     1       2.850   6.872  18.676  0.00  0.00    +0.000 A 
ATOM      2  N   UNL     1       2.315   5.654  18.517  0.00  0.00    +0.000 NA
ATOM      3  C   UNL     1       3.042   4.766  17.809  0.00  0.00    +0.000 A 
ATOM      4  N   UNL     1       2.483   3.513  17.493  0.00  0.00    +0.000 N 
ATOM      5  C   UNL     1       4.326   5.079  17.314  0.00  0.00    +0.000 A 
ATOM      6  C   UNL     1       5.173   4.199  16.582  0.00  0.00    +0.000 A 
ATOM      7  C   UNL     1       6.422   4.613  16.123  0.00  0.00    +0.000 A 
ATOM      8  C   UNL     1       6.843   5.914  16.367  0.00  0.00    +0.000 A 
ATOM      9  C   UNL     1       6.009   6.782  17.080  0.00  0.00    +0.000 A 
ATOM     10  C   UNL     1       4.766   6.388  17.557  0.00  0.00    +0.000 A 
ATOM     11  N   UNL     1       4.035   7.285  18.220  0.00  0.00    +0.000 NA
ATOM     12  H   UNL     1       3.071   2.761  17.842  0.00  0.00    +0.000 HD
ENDROOT
BRANCH   1  18
ATOM     13  C   UNL     1      -0.473  11.004  21.705  0.00  0.00    +0.000 A 
ATOM     14  C   UNL     1      -0.277  10.079  22.728  0.00  0.00    +0.000 A 
ATOM     15  C   UNL     1       0.471   8.911  22.514  0.00  0.00    +0.000 A 
ATOM     16  C   UNL     1       1.008   8.698  21.239  0.00  0.00    +0.000 A 
ATOM     17  N   UNL     1       1.720   7.636  20.735  0.00  0.00    +0.000 N 
ATOM     18  C   UNL     1       2.072   7.850  19.420  0.00  0.00    +0.000 A 
ATOM     19  C   UNL     1       1.555   9.095  19.061  0.00  0.00    +0.000 A 
ATOM     20  C   UNL     1       0.862   9.618  20.203  0.00  0.00    +0.000 A 
ATOM     21  C   UNL     1       0.113  10.791  20.451  0.00  0.00    +0.000 A 
ATOM     22  H   UNL     1       1.961   6.801  21.253  0.00  0.00    +0.000 HD
BRANCH  13  24
ATOM     23  C   UNL     1      -1.225  12.812  23.059  0.00  0.00    +0.000 C 
ATOM     24  O   UNL     1      -1.214  12.154  21.798  0.00  0.00    +0.000 OA
ENDBRANCH  13  24
BRANCH  19  25
ATOM     25  C   UNL     1       1.676   9.713  17.748  0.00  0.00    +0.000 C 
ATOM     26  O   UNL     1       2.321  10.736  17.530  0.00  0.00    +0.000 OA
ENDBRANCH  19  25
ENDBRANCH   1  18
BRANCH   4  27
ATOM     27  C   UNL     1       1.063   3.308  17.771  0.00  0.00    +0.000 C 
BRANCH  27  28
ATOM     28  C   UNL     1       0.897   2.293  18.906  0.00  0.00    +0.000 C 
BRANCH  28  29
ATOM     29  C   UNL     1       2.242   1.735  19.383  0.00  0.00    +0.000 C 
BRANCH  29  30
ATOM     30  N   UNL     1       2.975   2.634  20.288  0.00  0.00    +0.000 NA
ATOM     31  C   UNL     1       2.332   2.734  21.604  0.00  0.00    +0.000 C 
ATOM     32  C   UNL     1       4.356   2.175  20.450  0.00  0.00    +0.000 C 
ENDBRANCH  29  30
ENDBRANCH  28  29
ENDBRANCH  27  28
ENDBRANCH   4  27
TORSDOF 7
ENDMDL
MODEL 3
REMARK VINA RESULT:      -7.7      1.567      3.703
REMARK  Name = 
REMARK  10 active torsions:
REMARK  status: ('A' for Active; 'I' for Inactive)
REMARK    1  A    between atoms: C_1  and  O_2
REMARK    2  A    between atoms: O_2  and  C_3
REMARK    3  A    between atoms: C_8  and  C_9
REMARK    4  A    between atoms: N_12  and  C_13
REMARK    5  A    between atoms: C_13  and  C_14
REMARK    6  A    between atoms: C_14  and  C_15
REMARK    7  A    between atoms: C_15  and  N_16
REMARK    8  A    between atoms: N_16  and  C_17
REMARK    9  A    between atoms: N_16  and  C_18
REMARK   10  A    between atoms: C_26  and  C_27
REMARK                            x       y       z     vdW  Elec       q    Type
REMARK                         _______ _______ _______ _____ _____    ______ ____
ROOT
ATOM      1  C   UNL     1       2.802   6.953  19.313  0.00  0.00    +0.000 A 
ATOM      2  N   UNL     1       2.957   5.803  19.983  0.00  0.00    +0.000 NA
ATOM      3  C   UNL     1       3.753   4.878  19.410  0.00  0.00    +0.000 A 
ATOM      4  N   UNL     1       3.857   3.601  19.993  0.00  0.00    +0.000 N 
ATOM      5  C   UNL     1       4.437   5.128  18.201  0.00  0.00    +0.000 A 
ATOM      6  C   UNL     1       5.316   4.223  17.539  0.00  0.00    +0.000 A 
ATOM      7  C   UNL     1       5.932   4.562  16.336  0.00  0.00    +0.000 A 
ATOM      8  C   UNL     1       5.671   5.800  15.761  0.00  0.00    +0.000 A 
ATOM      9  C   UNL     1       4.803   6.686  16.406  0.00  0.00    +0.000 A 
ATOM     10  C   UNL     1       4.187   6.374  17.610  0.00  0.00    +0.000 A 
ATOM     11  N   UNL     1       3.368   7.278  18.150  0.00  0.00    +0.000 NA
ATOM     12  H   UNL     1       4.826   3.384  20.209  0.00  0.00    +0.000 HD
ENDROOT
BRANCH   1  18
ATOM     13  C   UNL     1      -0.912  11.171  21.705  0.00  0.00    +0.000 A 
ATOM     14  C   UNL     1      -0.634  10.437  22.855  0.00  0.00    +0.000 A 
ATOM     15  C   UNL     1       0.221   9.325  22.816  0.00  0.00    +0.000 A 
ATOM     16  C   UNL     1       0.782   8.970  21.583  0.00  0.00    +0.000 A 
ATOM     17  N   UNL     1       1.594   7.915  21.242  0.00  0.00    +0.000 N 
ATOM     18  C   UNL     1       1.930   7.957  19.907  0.00  0.00    +0.000 A 
ATOM     19  C   UNL     1       1.301   9.077  19.365  0.00  0.00    +0.000 A 
ATOM     20  C   UNL     1       0.555   9.703  20.420  0.00  0.00    +0.000 A 
ATOM     21  C   UNL     1      -0.302  10.824  20.493  0.00  0.00    +0.000 A 
ATOM     22  H   UNL     1       1.910   7.196  21.880  0.00  0.00    +0.000 HD
BRANCH  13  24
ATOM     23  C   UNL     1      -2.250  12.585  20.335  0.00  0.00    +0.000 C 
ATOM     24  O   UNL     1      -1.759  12.247  21.626  0.00  0.00    +0.000 OA
ENDBRANCH  13  24
BRANCH  19  25
ATOM     25  C   UNL     1       1.369   9.495  17.972  0.00  0.00    +0.000 C 
ATOM     26  O   UNL     1       2.120  10.375  17.557  0.00  0.00    +0.000 OA
ENDBRANCH  19  25
ENDBRANCH   1  18
BRANCH   4  27
ATOM     27  C   UNL     1       2.938   3.268  21.080  0.00  0.00    +0.000 C 
BRANCH  27  28
ATOM     28  C   UNL     1       1.867   2.295  20.576  0.00  0.00    +0.000 C 
BRANCH  28  29
ATOM     29  C   UNL     1       0.816   2.994  19.707  0.00  0.00    +0.000 C 
BRANCH  29  30
ATOM     30  N   UNL     1       0.980   2.757  18.264  0.00  0.00    +0.000 NA
ATOM     31  C   UNL     1       1.152   4.008  17.516  0.00  0.00    +0.000 C 
ATOM     32  C   UNL     1       2.127   1.879  18.022  0.00  0.00    +0.000 C 
ENDBRANCH  29  30
ENDBRANCH  28  29
ENDBRANCH  27  28
ENDBRANCH   4  27
TORSDOF 7
ENDMDL
MODEL 4
REMARK VINA RESULT:      -7.7      1.385      1.998
REMARK  Name = 
REMARK  10 active torsions:
REMARK  status: ('A' for Active; 'I' for Inactive)
REMARK    1  A    between atoms: C_1  and  O_2
REMARK    2  A    between atoms: O_2  and  C_3
REMARK    3  A    between atoms: C_8  and  C_9
REMARK    4  A    between atoms: N_12  and  C_13
REMARK    5  A    between atoms: C_13  and  C_14
REMARK    6  A    between atoms: C_14  and  C_15
REMARK    7  A    between atoms: C_15  and  N_16
REMARK    8  A    between atoms: N_16  and  C_17
REMARK    9  A    between atoms: N_16  and  C_18
REMARK   10  A    between atoms: C_26  and  C_27
REMARK                            x       y       z     vdW  Elec       q    Type
REMARK                         _______ _______ _______ _____ _____    ______ ____
ROOT
ATOM      1  C   UNL     1       1.929   6.962  20.035  0.00  0.00    +0.000 A 
ATOM      2  N   UNL     1       2.656   6.866  18.913  0.00  0.00    +0.000 NA
ATOM      3  C   UNL     1       3.266   5.685  18.693  0.00  0.00    +0.000 A 
ATOM      4  N   UNL     1       4.149   5.557  17.604  0.00  0.00    +0.000 N 
ATOM      5  C   UNL     1       3.100   4.585  19.563  0.00  0.00    +0.000 A 
ATOM      6  C   UNL     1       3.683   3.297  19.397  0.00  0.00    +0.000 A 
ATOM      7  C   UNL     1       3.468   2.280  20.325  0.00  0.00    +0.000 A 
ATOM      8  C   UNL     1       2.685   2.532  21.445  0.00  0.00    +0.000 A 
ATOM      9  C   UNL     1       2.118   3.800  21.613  0.00  0.00    +0.000 A 
ATOM     10  C   UNL     1       2.309   4.823  20.695  0.00  0.00    +0.000 A 
ATOM     11  N   UNL     1       1.736   6.003  20.942  0.00  0.00    +0.000 NA
ATOM     12  H   UNL     1       3.855   4.802  16.992  0.00  0.00    +0.000 HD
ENDROOT
BRANCH   1  18
ATOM     13  C   UNL     1      -0.847  12.309  21.042  0.00  0.00    +0.000 A 
ATOM     14  C   UNL     1      -0.879  11.791  22.334  0.00  0.00    +0.000 A 
ATOM     15  C   UNL     1      -0.326  10.534  22.626  0.00  0.00    +0.000 A 
ATOM     16  C   UNL     1       0.252   9.812  21.575  0.00  0.00    +0.000 A 
ATOM     17  N   UNL     1       0.807   8.554  21.555  0.00  0.00    +0.000 N 
ATOM     18  C   UNL     1       1.278   8.237  20.300  0.00  0.00    +0.000 A 
ATOM     19  C   UNL     1       1.004   9.329  19.477  0.00  0.00    +0.000 A 
ATOM     20  C   UNL     1       0.333  10.313  20.278  0.00  0.00    +0.000 A 
ATOM     21  C   UNL     1      -0.222  11.586  20.018  0.00  0.00    +0.000 A 
ATOM     22  H   UNL     1       0.869   7.934  22.353  0.00  0.00    +0.000 HD
BRANCH  13  24
ATOM     23  C   UNL     1      -0.570  14.344  19.839  0.00  0.00    +0.000 C 
ATOM     24  O   UNL     1      -1.388  13.504  20.645  0.00  0.00    +0.000 OA
ENDBRANCH  13  24
BRANCH  19  25
ATOM     25  C   UNL     1       1.316   9.417  18.057  0.00  0.00    +0.000 C 
ATOM     26  O   UNL     1       2.282  10.027  17.605  0.00  0.00    +0.000 OA
ENDBRANCH  19  25
ENDBRANCH   1  18
BRANCH   4  27
ATOM     27  C   UNL     1       4.522   6.771  16.880  0.00  0.00    +0.000 C 
BRANCH  27  28
ATOM     28  C   UNL     1       5.675   6.468  15.918  0.00  0.00    +0.000 C 
BRANCH  28  29
ATOM     29  C   UNL     1       6.947   6.041  16.659  0.00  0.00    +0.000 C 
BRANCH  29  30
ATOM     30  N   UNL     1       7.119   6.685  17.970  0.00  0.00    +0.000 NA
ATOM     31  C   UNL     1       7.764   5.792  18.942  0.00  0.00    +0.000 C 
ATOM     32  C   UNL     1       7.907   7.912  17.833  0.00  0.00    +0.000 C 
ENDBRANCH  29  30
ENDBRANCH  28  29
ENDBRANCH  27  28
ENDBRANCH   4  27
TORSDOF 7
ENDMDL
MODEL 5
REMARK VINA RESULT:      -7.6      1.985      4.348
REMARK  Name = 
REMARK  10 active torsions:
REMARK  status: ('A' for Active; 'I' for Inactive)
REMARK    1  A    between atoms: C_1  and  O_2
REMARK    2  A    between atoms: O_2  and  C_3
REMARK    3  A    between atoms: C_8  and  C_9
REMARK    4  A    between atoms: N_12  and  C_13
REMARK    5  A    between atoms: C_13  and  C_14
REMARK    6  A    between atoms: C_14  and  C_15
REMARK    7  A    between atoms: C_15  and  N_16
REMARK    8  A    between atoms: N_16  and  C_17
REMARK    9  A    between atoms: N_16  and  C_18
REMARK   10  A    between atoms: C_26  and  C_27
REMARK                            x       y       z     vdW  Elec       q    Type
REMARK                         _______ _______ _______ _____ _____    ______ ____
ROOT
ATOM      1  C   UNL     1       2.297   7.761  18.968  0.00  0.00    +0.000 A 
ATOM      2  N   UNL     1       2.378   6.737  19.829  0.00  0.00    +0.000 NA
ATOM      3  C   UNL     1       3.228   5.744  19.501  0.00  0.00    +0.000 A 
ATOM      4  N   UNL     1       3.266   4.579  20.291  0.00  0.00    +0.000 N 
ATOM      5  C   UNL     1       4.038   5.805  18.346  0.00  0.00    +0.000 A 
ATOM      6  C   UNL     1       4.980   4.818  17.937  0.00  0.00    +0.000 A 
ATOM      7  C   UNL     1       5.722   4.967  16.767  0.00  0.00    +0.000 A 
ATOM      8  C   UNL     1       5.526   6.091  15.973  0.00  0.00    +0.000 A 
ATOM      9  C   UNL     1       4.596   7.057  16.371  0.00  0.00    +0.000 A 
ATOM     10  C   UNL     1       3.855   6.935  17.538  0.00  0.00    +0.000 A 
ATOM     11  N   UNL     1       2.986   7.902  17.834  0.00  0.00    +0.000 NA
ATOM     12  H   UNL     1       4.206   4.414  20.641  0.00  0.00    +0.000 HD
ENDROOT
BRANCH   1  18
ATOM     13  C   UNL     1      -1.533  12.287  20.433  0.00  0.00    +0.000 A 
ATOM     14  C   UNL     1      -1.614  12.363  19.045  0.00  0.00    +0.000 A 
ATOM     15  C   UNL     1      -0.890  11.482  18.227  0.00  0.00    +0.000 A 
ATOM     16  C   UNL     1      -0.077  10.527  18.849  0.00  0.00    +0.000 A 
ATOM     17  N   UNL     1       0.772   9.590  18.311  0.00  0.00    +0.000 N 
ATOM     18  C   UNL     1       1.370   8.834  19.295  0.00  0.00    +0.000 A 
ATOM     19  C   UNL     1       0.895   9.312  20.516  0.00  0.00    +0.000 A 
ATOM     20  C   UNL     1       0.000  10.398  20.234  0.00  0.00    +0.000 A 
ATOM     21  C   UNL     1      -0.749  11.292  21.031  0.00  0.00    +0.000 A 
ATOM     22  H   UNL     1       0.943   9.462  17.321  0.00  0.00    +0.000 HD
BRANCH  13  24
ATOM     23  C   UNL     1      -1.617  13.202  22.629  0.00  0.00    +0.000 C 
ATOM     24  O   UNL     1      -2.167  13.119  21.319  0.00  0.00    +0.000 OA
ENDBRANCH  13  24
BRANCH  19  25
ATOM     25  C   UNL     1       1.281   8.811  21.828  0.00  0.00    +0.000 C 
ATOM     26  O   UNL     1       1.610   9.532  22.767  0.00  0.00    +0.000 OA
ENDBRANCH  19  25
ENDBRANCH   1  18
BRANCH   4  27
ATOM     27  C   UNL     1       2.235   4.413  21.315  0.00  0.00    +0.000 C 
BRANCH  27  28
ATOM     28  C   UNL     1       1.565   3.044  21.160  0.00  0.00    +0.000 C 
BRANCH  28  29
ATOM     29  C   UNL     1       2.352   2.119  20.225  0.00  0.00    +0.000 C 
BRANCH  29  30
ATOM     30  N   UNL     1       1.693   1.875  18.933  0.00  0.00    +0.000 NA
ATOM     31  C   UNL     1       0.503   2.717  18.754  0.00  0.00    +0.000 C 
ATOM     32  C   UNL     1       2.630   2.112  17.833  0.00  0.00    +0.000 C 
ENDBRANCH  29  30
ENDBRANCH  28  29
ENDBRANCH  27  28
ENDBRANCH   4  27
TORSDOF 7
ENDMDL
MODEL 6
REMARK VINA RESULT:      -7.6      1.093      1.351
REMARK  Name = 
REMARK  10 active torsions:
REMARK  status: ('A' for Active; 'I' for Inactive)
REMARK    1  A    between atoms: C_1  and  O_2
REMARK    2  A    between atoms: O_2  and  C_3
REMARK    3  A    between atoms: C_8  and  C_9
REMARK    4  A    between atoms: N_12  and  C_13
REMARK    5  A    between atoms: C_13  and  C_14
REMARK    6  A    between atoms: C_14  and  C_15
REMARK    7  A    between atoms: C_15  and  N_16
REMARK    8  A    between atoms: N_16  and  C_17
REMARK    9  A    between atoms: N_16  and  C_18
REMARK   10  A    between atoms: C_26  and  C_27
REMARK                            x       y       z     vdW  Elec       q    Type
REMARK                         _______ _______ _______ _____ _____    ______ ____
ROOT
ATOM      1  C   UNL     1       2.258   6.382  19.385  0.00  0.00    +0.000 A 
ATOM      2  N   UNL     1       3.268   6.545  18.520  0.00  0.00    +0.000 NA
ATOM      3  C   UNL     1       3.826   5.420  18.031  0.00  0.00    +0.000 A 
ATOM      4  N   UNL     1       4.973   5.515  17.220  0.00  0.00    +0.000 N 
ATOM      5  C   UNL     1       3.335   4.138  18.363  0.00  0.00    +0.000 A 
ATOM      6  C   UNL     1       3.844   2.900  17.875  0.00  0.00    +0.000 A 
ATOM      7  C   UNL     1       3.296   1.684  18.278  0.00  0.00    +0.000 A 
ATOM      8  C   UNL     1       2.245   1.677  19.187  0.00  0.00    +0.000 A 
ATOM      9  C   UNL     1       1.749   2.892  19.671  0.00  0.00    +0.000 A 
ATOM     10  C   UNL     1       2.272   4.114  19.275  0.00  0.00    +0.000 A 
ATOM     11  N   UNL     1       1.742   5.222  19.795  0.00  0.00    +0.000 NA
ATOM     12  H   UNL     1       4.812   5.073  16.320  0.00  0.00    +0.000 HD
ENDROOT
BRANCH   1  18
ATOM     13  C   UNL     1      -0.325  11.450  21.610  0.00  0.00    +0.000 A 
ATOM     14  C   UNL     1      -0.259  10.699  22.780  0.00  0.00    +0.000 A 
ATOM     15  C   UNL     1       0.293   9.408  22.782  0.00  0.00    +0.000 A 
ATOM     16  C   UNL     1       0.768   8.895  21.569  0.00  0.00    +0.000 A 
ATOM     17  N   UNL     1       1.297   7.662  21.267  0.00  0.00    +0.000 N 
ATOM     18  C   UNL     1       1.655   7.586  19.939  0.00  0.00    +0.000 A 
ATOM     19  C   UNL     1       1.334   8.814  19.361  0.00  0.00    +0.000 A 
ATOM     20  C   UNL     1       0.750   9.631  20.387  0.00  0.00    +0.000 A 
ATOM     21  C   UNL     1       0.199  10.932  20.419  0.00  0.00    +0.000 A 
ATOM     22  H   UNL     1       1.413   6.903  21.926  0.00  0.00    +0.000 HD
BRANCH  13  24
ATOM     23  C   UNL     1      -0.932  13.492  22.672  0.00  0.00    +0.000 C 
ATOM     24  O   UNL     1      -0.876  12.700  21.491  0.00  0.00    +0.000 OA
ENDBRANCH  13  24
BRANCH  19  25
ATOM     25  C   UNL     1       1.527   9.167  17.962  0.00  0.00    +0.000 C 
ATOM     26  O   UNL     1       2.379   9.960  17.568  0.00  0.00    +0.000 OA
ENDBRANCH  19  25
ENDBRANCH   1  18
BRANCH   4  27
ATOM     27  C   UNL     1       5.628   6.817  17.112  0.00  0.00    +0.000 C 
BRANCH  27  28
ATOM     28  C   UNL     1       7.108   6.627  16.762  0.00  0.00    +0.000 C 
BRANCH  28  29
ATOM     29  C   UNL     1       7.368   5.289  16.063  0.00  0.00    +0.000 C 
BRANCH  29  30
ATOM     30  N   UNL     1       6.736   5.174  14.739  0.00  0.00    +0.000 NA
ATOM     31  C   UNL     1       7.702   5.364  13.649  0.00  0.00    +0.000 C 
ATOM     32  C   UNL     1       6.087   3.869  14.597  0.00  0.00    +0.000 C 
ENDBRANCH  29  30
ENDBRANCH  28  29
ENDBRANCH  27  28
ENDBRANCH   4  27
TORSDOF 7
ENDMDL
MODEL 7
REMARK VINA RESULT:      -7.5      1.426      1.898
REMARK  Name = 
REMARK  10 active torsions:
REMARK  status: ('A' for Active; 'I' for Inactive)
REMARK    1  A    between atoms: C_1  and  O_2
REMARK    2  A    between atoms: O_2  and  C_3
REMARK    3  A    between atoms: C_8  and  C_9
REMARK    4  A    between atoms: N_12  and  C_13
REMARK    5  A    between atoms: C_13  and  C_14
REMARK    6  A    between atoms: C_14  and  C_15
REMARK    7  A    between atoms: C_15  and  N_16
REMARK    8  A    between atoms: N_16  and  C_17
REMARK    9  A    between atoms: N_16  and  C_18
REMARK   10  A    between atoms: C_26  and  C_27
REMARK                            x       y       z     vdW  Elec       q    Type
REMARK                         _______ _______ _______ _____ _____    ______ ____
ROOT
ATOM      1  C   UNL     1       1.884   7.023  20.062  0.00  0.00    +0.000 A 
ATOM      2  N   UNL     1       2.616   6.964  18.941  0.00  0.00    +0.000 NA
ATOM      3  C   UNL     1       3.241   5.796  18.695  0.00  0.00    +0.000 A 
ATOM      4  N   UNL     1       4.130   5.705  17.607  0.00  0.00    +0.000 N 
ATOM      5  C   UNL     1       3.086   4.673  19.538  0.00  0.00    +0.000 A 
ATOM      6  C   UNL     1       3.686   3.397  19.342  0.00  0.00    +0.000 A 
ATOM      7  C   UNL     1       3.481   2.355  20.245  0.00  0.00    +0.000 A 
ATOM      8  C   UNL     1       2.691   2.570  21.368  0.00  0.00    +0.000 A 
ATOM      9  C   UNL     1       2.107   3.826  21.564  0.00  0.00    +0.000 A 
ATOM     10  C   UNL     1       2.289   4.874  20.672  0.00  0.00    +0.000 A 
ATOM     11  N   UNL     1       1.700   6.040  20.945  0.00  0.00    +0.000 NA
ATOM     12  H   UNL     1       3.848   4.961  16.975  0.00  0.00    +0.000 HD
ENDROOT
BRANCH   1  18
ATOM     13  C   UNL     1      -0.965  12.308  21.188  0.00  0.00    +0.000 A 
ATOM     14  C   UNL     1      -0.971  11.770  22.472  0.00  0.00    +0.000 A 
ATOM     15  C   UNL     1      -0.395  10.517  22.737  0.00  0.00    +0.000 A 
ATOM     16  C   UNL     1       0.181   9.821  21.668  0.00  0.00    +0.000 A 
ATOM     17  N   UNL     1       0.756   8.573  21.621  0.00  0.00    +0.000 N 
ATOM     18  C   UNL     1       1.216   8.283  20.355  0.00  0.00    +0.000 A 
ATOM     19  C   UNL     1       0.914   9.383  19.553  0.00  0.00    +0.000 A 
ATOM     20  C   UNL     1       0.238  10.344  20.378  0.00  0.00    +0.000 A 
ATOM     21  C   UNL     1      -0.341  11.612  20.145  0.00  0.00    +0.000 A 
ATOM     22  H   UNL     1       0.838   7.942  22.408  0.00  0.00    +0.000 HD
BRANCH  13  24
ATOM     23  C   UNL     1      -2.570  14.005  21.647  0.00  0.00    +0.000 C 
ATOM     24  O   UNL     1      -1.530  13.500  20.817  0.00  0.00    +0.000 OA
ENDBRANCH  13  24
BRANCH  19  25
ATOM     25  C   UNL     1       1.206   9.499  18.131  0.00  0.00    +0.000 C 
ATOM     26  O   UNL     1       2.181  10.093  17.679  0.00  0.00    +0.000 OA
ENDBRANCH  19  25
ENDBRANCH   1  18
BRANCH   4  27
ATOM     27  C   UNL     1       4.490   6.941  16.913  0.00  0.00    +0.000 C 
BRANCH  27  28
ATOM     28  C   UNL     1       5.675   6.684  15.976  0.00  0.00    +0.000 C 
BRANCH  28  29
ATOM     29  C   UNL     1       6.995   6.541  16.742  0.00  0.00    +0.000 C 
BRANCH  29  30
ATOM     30  N   UNL     1       7.581   5.193  16.675  0.00  0.00    +0.000 NA
ATOM     31  C   UNL     1       7.593   4.533  17.987  0.00  0.00    +0.000 C 
ATOM     32  C   UNL     1       6.844   4.367  15.717  0.00  0.00    +0.000 C 
ENDBRANCH  29  30
ENDBRANCH  28  29
ENDBRANCH  27  28
ENDBRANCH   4  27
TORSDOF 7
ENDMDL
MODEL 8
REMARK VINA RESULT:      -7.5      1.023      1.578
REMARK  Name = 
REMARK  10 active torsions:
REMARK  status: ('A' for Active; 'I' for Inactive)
REMARK    1  A    between atoms: C_1  and  O_2
REMARK    2  A    between atoms: O_2  and  C_3
REMARK    3  A    between atoms: C_8  and  C_9
REMARK    4  A    between atoms: N_12  and  C_13
REMARK    5  A    between atoms: C_13  and  C_14
REMARK    6  A    between atoms: C_14  and  C_15
REMARK    7  A    between atoms: C_15  and  N_16
REMARK    8  A    between atoms: N_16  and  C_17
REMARK    9  A    between atoms: N_16  and  C_18
REMARK   10  A    between atoms: C_26  and  C_27
REMARK                            x       y       z     vdW  Elec       q    Type
REMARK                         _______ _______ _______ _____ _____    ______ ____
ROOT
ATOM      1  C   UNL     1       2.298   6.386  19.205  0.00  0.00    +0.000 A 
ATOM      2  N   UNL     1       3.122   6.575  18.165  0.00  0.00    +0.000 NA
ATOM      3  C   UNL     1       3.681   5.470  17.634  0.00  0.00    +0.000 A 
ATOM      4  N   UNL     1       4.655   5.606  16.626  0.00  0.00    +0.000 N 
ATOM      5  C   UNL     1       3.369   4.175  18.104  0.00  0.00    +0.000 A 
ATOM      6  C   UNL     1       3.890   2.955  17.587  0.00  0.00    +0.000 A 
ATOM      7  C   UNL     1       3.528   1.725  18.135  0.00  0.00    +0.000 A 
ATOM      8  C   UNL     1       2.657   1.689  19.217  0.00  0.00    +0.000 A 
ATOM      9  C   UNL     1       2.151   2.889  19.729  0.00  0.00    +0.000 A 
ATOM     10  C   UNL     1       2.489   4.123  19.193  0.00  0.00    +0.000 A 
ATOM     11  N   UNL     1       1.964   5.215  19.751  0.00  0.00    +0.000 NA
ATOM     12  H   UNL     1       4.378   5.101  15.790  0.00  0.00    +0.000 HD
ENDROOT
BRANCH   1  18
ATOM     13  C   UNL     1      -0.263  11.375  21.624  0.00  0.00    +0.000 A 
ATOM     14  C   UNL     1      -0.224  10.569  22.759  0.00  0.00    +0.000 A 
ATOM     15  C   UNL     1       0.313   9.273  22.709  0.00  0.00    +0.000 A 
ATOM     16  C   UNL     1       0.802   8.811  21.481  0.00  0.00    +0.000 A 
ATOM     17  N   UNL     1       1.321   7.588  21.129  0.00  0.00    +0.000 N 
ATOM     18  C   UNL     1       1.700   7.569  19.805  0.00  0.00    +0.000 A 
ATOM     19  C   UNL     1       1.401   8.827  19.281  0.00  0.00    +0.000 A 
ATOM     20  C   UNL     1       0.811   9.602  20.335  0.00  0.00    +0.000 A 
ATOM     21  C   UNL     1       0.274  10.906  20.418  0.00  0.00    +0.000 A 
ATOM     22  H   UNL     1       1.419   6.797  21.754  0.00  0.00    +0.000 HD
BRANCH  13  24
ATOM     23  C   UNL     1      -2.100  12.812  22.102  0.00  0.00    +0.000 C 
ATOM     24  O   UNL     1      -0.798  12.635  21.556  0.00  0.00    +0.000 OA
ENDBRANCH  13  24
BRANCH  19  25
ATOM     25  C   UNL     1       1.621   9.242  17.902  0.00  0.00    +0.000 C 
ATOM     26  O   UNL     1       2.275  10.232  17.582  0.00  0.00    +0.000 OA
ENDBRANCH  19  25
ENDBRANCH   1  18
BRANCH   4  27
ATOM     27  C   UNL     1       5.166   6.946  16.345  0.00  0.00    +0.000 C 
BRANCH  27  28
ATOM     28  C   UNL     1       6.110   7.389  17.467  0.00  0.00    +0.000 C 
BRANCH  28  29
ATOM     29  C   UNL     1       7.508   6.777  17.319  0.00  0.00    +0.000 C 
BRANCH  29  30
ATOM     30  N   UNL     1       7.761   5.641  18.219  0.00  0.00    +0.000 NA
ATOM     31  C   UNL     1       6.830   5.620  19.354  0.00  0.00    +0.000 C 
ATOM     32  C   UNL     1       7.665   4.379  17.482  0.00  0.00    +0.000 C 
ENDBRANCH  29  30
ENDBRANCH  28  29
ENDBRANCH  27  28
ENDBRANCH   4  27
TORSDOF 7
ENDMDL
MODEL 9
REMARK VINA RESULT:      -7.3      1.519      3.924
REMARK  Name = 
REMARK  10 active torsions:
REMARK  status: ('A' for Active; 'I' for Inactive)
REMARK    1  A    between atoms: C_1  and  O_2
REMARK    2  A    between atoms: O_2  and  C_3
REMARK    3  A    between atoms: C_8  and  C_9
REMARK    4  A    between atoms: N_12  and  C_13
REMARK    5  A    between atoms: C_13  and  C_14
REMARK    6  A    between atoms: C_14  and  C_15
REMARK    7  A    between atoms: C_15  and  N_16
REMARK    8  A    between atoms: N_16  and  C_17
REMARK    9  A    between atoms: N_16  and  C_18
REMARK   10  A    between atoms: C_26  and  C_27
REMARK                            x       y       z     vdW  Elec       q    Type
REMARK                         _______ _______ _______ _____ _____    ______ ____
ROOT
ATOM      1  C   UNL     1       3.474   6.474  18.666  0.00  0.00    +0.000 A 
ATOM      2  N   UNL     1       3.853   5.377  19.336  0.00  0.00    +0.000 NA
ATOM      3  C   UNL     1       4.677   4.532  18.686  0.00  0.00    +0.000 A 
ATOM      4  N   UNL     1       5.009   3.299  19.278  0.00  0.00    +0.000 N 
ATOM      5  C   UNL     1       5.168   4.815  17.392  0.00  0.00    +0.000 A 
ATOM      6  C   UNL     1       6.060   3.996  16.642  0.00  0.00    +0.000 A 
ATOM      7  C   UNL     1       6.473   4.360  15.362  0.00  0.00    +0.000 A 
ATOM      8  C   UNL     1       5.992   5.535  14.798  0.00  0.00    +0.000 A 
ATOM      9  C   UNL     1       5.110   6.337  15.531  0.00  0.00    +0.000 A 
ATOM     10  C   UNL     1       4.695   5.999  16.811  0.00  0.00    +0.000 A 
ATOM     11  N   UNL     1       3.846   6.820  17.432  0.00  0.00    +0.000 NA
ATOM     12  H   UNL     1       6.016   3.206  19.372  0.00  0.00    +0.000 HD
ENDROOT
BRANCH   1  18
ATOM     13  C   UNL     1      -0.384  10.328  21.417  0.00  0.00    +0.000 A 
ATOM     14  C   UNL     1      -0.086   9.499  22.495  0.00  0.00    +0.000 A 
ATOM     15  C   UNL     1       0.806   8.424  22.359  0.00  0.00    +0.000 A 
ATOM     16  C   UNL     1       1.382   8.205  21.102  0.00  0.00    +0.000 A 
ATOM     17  N   UNL     1       2.229   7.212  20.669  0.00  0.00    +0.000 N 
ATOM     18  C   UNL     1       2.569   7.389  19.345  0.00  0.00    +0.000 A 
ATOM     19  C   UNL     1       1.904   8.534  18.906  0.00  0.00    +0.000 A 
ATOM     20  C   UNL     1       1.135   9.034  20.010  0.00  0.00    +0.000 A 
ATOM     21  C   UNL     1       0.241  10.115  20.182  0.00  0.00    +0.000 A 
ATOM     22  H   UNL     1       2.567   6.448  21.239  0.00  0.00    +0.000 HD
BRANCH  13  24
ATOM     23  C   UNL     1      -1.689  11.841  22.711  0.00  0.00    +0.000 C 
ATOM     24  O   UNL     1      -1.265  11.378  21.434  0.00  0.00    +0.000 OA
ENDBRANCH  13  24
BRANCH  19  25
ATOM     25  C   UNL     1       1.964   9.083  17.558  0.00  0.00    +0.000 C 
ATOM     26  O   UNL     1       2.269  10.245  17.306  0.00  0.00    +0.000 OA
ENDBRANCH  19  25
ENDBRANCH   1  18
BRANCH   4  27
ATOM     27  C   UNL     1       4.282   2.901  20.483  0.00  0.00    +0.000 C 
BRANCH  27  28
ATOM     28  C   UNL     1       3.116   1.982  20.106  0.00  0.00    +0.000 C 
BRANCH  28  29
ATOM     29  C   UNL     1       1.847   2.303  20.903  0.00  0.00    +0.000 C 
BRANCH  29  30
ATOM     30  N   UNL     1       0.770   2.899  20.098  0.00  0.00    +0.000 NA
ATOM     31  C   UNL     1       0.686   4.354  20.281  0.00  0.00    +0.000 C 
ATOM     32  C   UNL     1       0.970   2.595  18.679  0.00  0.00    +0.000 C 
ENDBRANCH  29  30
ENDBRANCH  28  29
ENDBRANCH  27  28
ENDBRANCH   4  27
TORSDOF 7
ENDMDL
