MODEL 1
REMARK VINA RESULT:      -7.8      0.000      0.000
REMARK  Name = 
REMARK  8 active torsions:
REMARK  status: ('A' for Active; 'I' for Inactive)
REMARK    1  A    between atoms: C_2  and  C_3
REMARK    2  A    between atoms: C_3  and  O_4
REMARK    3  A    between atoms: O_4  and  C_5
REMARK    4  A    between atoms: C_9  and  O_10
REMARK    5  A    between atoms: O_10  and  C_11
REMARK    6  A    between atoms: N_18  and  C_19
REMARK    7  A    between atoms: C_22  and  S_23
REMARK    8  A    between atoms: S_23  and  C_24
REMARK                            x       y       z     vdW  Elec       q    Type
REMARK                         _______ _______ _______ _____ _____    ______ ____
ROOT
ATOM      1  C   UNL     1       7.981   7.458  18.289  0.00  0.00    +0.000 C 
ENDROOT
BRANCH   1   3
ATOM      2  O   UNL     1       7.695   9.712  17.522  0.00  0.00    +0.000 OA
ATOM      3  C   UNL     1       8.320   8.946  18.254  0.00  0.00    +0.000 C 
ATOM      4  N   UNL     1       9.329   9.317  19.129  0.00  0.00    +0.000 N 
ATOM      5  H   UNL     1       9.959   8.581  19.439  0.00  0.00    +0.000 HD
BRANCH   4   6
ATOM      6  C   UNL     1       9.627  10.635  19.532  0.00  0.00    +0.000 A 
ATOM      7  C   UNL     1       9.272  11.150  20.781  0.00  0.00    +0.000 A 
ATOM      8  C   UNL     1       9.604  12.463  21.138  0.00  0.00    +0.000 A 
ATOM      9  C   UNL     1      10.305  13.283  20.252  0.00  0.00    +0.000 A 
ATOM     10  C   UNL     1      10.668  12.770  19.003  0.00  0.00    +0.000 A 
ATOM     11  C   UNL     1      10.343  11.451  18.651  0.00  0.00    +0.000 A 
BRANCH   9  12
ATOM     12  S   UNL     1      10.635  14.973  20.707  0.00  0.00    +0.000 S 
BRANCH  12  13
ATOM     13  C   UNL     1       9.389  15.820  19.714  0.00  0.00    +0.000 C 
ATOM     14  F   UNL     1       8.349  14.994  19.434  0.00  0.00    +0.000 F 
ATOM     15  F   UNL     1       8.870  16.860  20.419  0.00  0.00    +0.000 F 
ENDBRANCH  12  13
ENDBRANCH   9  12
ENDBRANCH   4   6
ENDBRANCH   1   3
BRANCH   1  16
ATOM     16  O   UNL     1       7.630   6.924  17.021  0.00  0.00    +0.000 OA
BRANCH  16  17
ATOM     17  C   UNL     1       6.732   5.884  17.049  0.00  0.00    +0.000 A 
ATOM     18  C   UNL     1       6.113   5.584  15.832  0.00  0.00    +0.000 A 
ATOM     19  C   UNL     1       5.189   4.537  15.745  0.00  0.00    +0.000 A 
ATOM     20  C   UNL     1       4.829   3.822  16.888  0.00  0.00    +0.000 A 
ATOM     21  C   UNL     1       5.389   4.162  18.117  0.00  0.00    +0.000 A 
ATOM     22  C   UNL     1       6.379   5.149  18.184  0.00  0.00    +0.000 A 
BRANCH  21  23
ATOM     23  O   UNL     1       4.950   3.460  19.221  0.00  0.00    +0.000 OA
BRANCH  23  24
ATOM     24  C   UNL     1       3.634   3.599  19.615  0.00  0.00    +0.000 A 
ATOM     25  C   UNL     1       2.715   2.544  19.653  0.00  0.00    +0.000 A 
ATOM     26  C   UNL     1       1.387   2.783  20.013  0.00  0.00    +0.000 A 
ATOM     27  C   UNL     1       0.988   4.062  20.394  0.00  0.00    +0.000 A 
ATOM     28  C   UNL     1       1.917   5.103  20.420  0.00  0.00    +0.000 A 
ATOM     29  C   UNL     1       3.239   4.871  20.030  0.00  0.00    +0.000 A 
ENDBRANCH  23  24
ENDBRANCH  21  23
ENDBRANCH  16  17
ENDBRANCH   1  16
TORSDOF 8
ENDMDL
MODEL 2
REMARK VINA RESULT:      -7.7      4.988     11.022
REMARK  Name = 
REMARK  8 active torsions:
REMARK  status: ('A' for Active; 'I' for Inactive)
REMARK    1  A    between atoms: C_2  and  C_3
REMARK    2  A    between atoms: C_3  and  O_4
REMARK    3  A    between atoms: O_4  and  C_5
REMARK    4  A    between atoms: C_9  and  O_10
REMARK    5  A    between atoms: O_10  and  C_11
REMARK    6  A    between atoms: N_18  and  C_19
REMARK    7  A    between atoms: C_22  and  S_23
REMARK    8  A    between atoms: S_23  and  C_24
REMARK                            x       y       z     vdW  Elec       q    Type
REMARK                         _______ _______ _______ _____ _____    ______ ____
ROOT
ATOM      1  C   UNL     1       8.432   9.367  17.911  0.00  0.00    +0.000 C 
ENDROOT
BRANCH   1   3
ATOM      2  O   UNL     1       8.390   7.106  18.710  0.00  0.00    +0.000 OA
ATOM      3  C   UNL     1       7.899   7.937  17.946  0.00  0.00    +0.000 C 
ATOM      4  N   UNL     1       6.829   7.710  17.095  0.00  0.00    +0.000 N 
ATOM      5  H   UNL     1       6.719   8.356  16.318  0.00  0.00    +0.000 HD
BRANCH   4   6
ATOM      6  C   UNL     1       5.954   6.605  17.146  0.00  0.00    +0.000 A 
ATOM      7  C   UNL     1       4.682   6.664  17.720  0.00  0.00    +0.000 A 
ATOM      8  C   UNL     1       3.847   5.540  17.732  0.00  0.00    +0.000 A 
ATOM      9  C   UNL     1       4.268   4.337  17.164  0.00  0.00    +0.000 A 
ATOM     10  C   UNL     1       5.538   4.275  16.584  0.00  0.00    +0.000 A 
ATOM     11  C   UNL     1       6.371   5.405  16.563  0.00  0.00    +0.000 A 
BRANCH   9  12
ATOM     12  S   UNL     1       3.213   2.907  17.275  0.00  0.00    +0.000 S 
BRANCH  12  13
ATOM     13  C   UNL     1       3.481   2.444  18.998  0.00  0.00    +0.000 C 
ATOM     14  F   UNL     1       4.751   2.730  19.383  0.00  0.00    +0.000 F 
ATOM     15  F   UNL     1       2.666   3.176  19.802  0.00  0.00    +0.000 F 
ENDBRANCH  12  13
ENDBRANCH   9  12
ENDBRANCH   4   6
ENDBRANCH   1   3
BRANCH   1  16
ATOM     16  O   UNL     1       8.925   9.822  19.163  0.00  0.00    +0.000 OA
BRANCH  16  17
ATOM     17  C   UNL     1       9.762  10.911  19.104  0.00  0.00    +0.000 A 
ATOM     18  C   UNL     1      10.501  11.172  20.261  0.00  0.00    +0.000 A 
ATOM     19  C   UNL     1      11.391  12.250  20.308  0.00  0.00    +0.000 A 
ATOM     20  C   UNL     1      11.503  13.114  19.218  0.00  0.00    +0.000 A 
ATOM     21  C   UNL     1      10.717  12.902  18.088  0.00  0.00    +0.000 A 
ATOM     22  C   UNL     1       9.895  11.771  18.012  0.00  0.00    +0.000 A 
BRANCH  21  23
ATOM     23  O   UNL     1      10.826  13.824  17.067  0.00  0.00    +0.000 OA
BRANCH  23  24
ATOM     24  C   UNL     1      10.559  15.150  17.339  0.00  0.00    +0.000 A 
ATOM     25  C   UNL     1       9.365  15.606  17.911  0.00  0.00    +0.000 A 
ATOM     26  C   UNL     1       9.156  16.973  18.102  0.00  0.00    +0.000 A 
ATOM     27  C   UNL     1      10.160  17.884  17.779  0.00  0.00    +0.000 A 
ATOM     28  C   UNL     1      11.376  17.428  17.269  0.00  0.00    +0.000 A 
ATOM     29  C   UNL     1      11.575  16.063  17.049  0.00  0.00    +0.000 A 
ENDBRANCH  23  24
ENDBRANCH  21  23
ENDBRANCH  16  17
ENDBRANCH   1  16
TORSDOF 8
ENDMDL
MODEL 3
REMARK VINA RESULT:      -7.6      1.383      1.622
REMARK  Name = 
REMARK  8 active torsions:
REMARK  status: ('A' for Active; 'I' for Inactive)
REMARK    1  A    between atoms: C_2  and  C_3
REMARK    2  A    between atoms: C_3  and  O_4
REMARK    3  A    between atoms: O_4  and  C_5
REMARK    4  A    between atoms: C_9  and  O_10
REMARK    5  A    between atoms: O_10  and  C_11
REMARK    6  A    between atoms: N_18  and  C_19
REMARK    7  A    between atoms: C_22  and  S_23
REMARK    8  A    between atoms: S_23  and  C_24
REMARK                            x       y       z     vdW  Elec       q    Type
REMARK                         _______ _______ _______ _____ _____    ______ ____
ROOT
ATOM      1  C   UNL     1       7.881   6.874  18.524  0.00  0.00    +0.000 C 
ENDROOT
BRANCH   1   3
ATOM      2  O   UNL     1       7.614   8.906  17.280  0.00  0.00    +0.000 OA
ATOM      3  C   UNL     1       8.179   8.338  18.213  0.00  0.00    +0.000 C 
ATOM      4  N   UNL     1       9.079   8.931  19.086  0.00  0.00    +0.000 N 
ATOM      5  H   UNL     1       9.693   8.306  19.603  0.00  0.00    +0.000 HD
BRANCH   4   6
ATOM      6  C   UNL     1       9.295  10.316  19.233  0.00  0.00    +0.000 A 
ATOM      7  C   UNL     1       9.297  10.962  20.472  0.00  0.00    +0.000 A 
ATOM      8  C   UNL     1       9.530  12.339  20.563  0.00  0.00    +0.000 A 
ATOM      9  C   UNL     1       9.773  13.096  19.415  0.00  0.00    +0.000 A 
ATOM     10  C   UNL     1       9.777  12.453  18.174  0.00  0.00    +0.000 A 
ATOM     11  C   UNL     1       9.553  11.070  18.084  0.00  0.00    +0.000 A 
BRANCH   9  12
ATOM     12  S   UNL     1       9.980  14.858  19.564  0.00  0.00    +0.000 S 
BRANCH  12  13
ATOM     13  C   UNL     1      10.058  15.319  17.821  0.00  0.00    +0.000 C 
ATOM     14  F   UNL     1       9.523  16.551  17.623  0.00  0.00    +0.000 F 
ATOM     15  F   UNL     1      11.356  15.399  17.426  0.00  0.00    +0.000 F 
ENDBRANCH  12  13
ENDBRANCH   9  12
ENDBRANCH   4   6
ENDBRANCH   1   3
BRANCH   1  16
ATOM     16  O   UNL     1       7.850   6.042  17.373  0.00  0.00    +0.000 OA
BRANCH  16  17
ATOM     17  C   UNL     1       6.662   5.387  17.152  0.00  0.00    +0.000 A 
ATOM     18  C   UNL     1       6.666   4.458  16.108  0.00  0.00    +0.000 A 
ATOM     19  C   UNL     1       5.512   3.728  15.804  0.00  0.00    +0.000 A 
ATOM     20  C   UNL     1       4.327   3.966  16.501  0.00  0.00    +0.000 A 
ATOM     21  C   UNL     1       4.298   4.940  17.495  0.00  0.00    +0.000 A 
ATOM     22  C   UNL     1       5.475   5.605  17.857  0.00  0.00    +0.000 A 
BRANCH  21  23
ATOM     23  O   UNL     1       3.083   5.174  18.107  0.00  0.00    +0.000 OA
BRANCH  23  24
ATOM     24  C   UNL     1       2.695   4.355  19.148  0.00  0.00    +0.000 A 
ATOM     25  C   UNL     1       1.397   4.318  19.672  0.00  0.00    +0.000 A 
ATOM     26  C   UNL     1       1.104   3.497  20.762  0.00  0.00    +0.000 A 
ATOM     27  C   UNL     1       2.088   2.667  21.294  0.00  0.00    +0.000 A 
ATOM     28  C   UNL     1       3.366   2.653  20.733  0.00  0.00    +0.000 A 
ATOM     29  C   UNL     1       3.669   3.497  19.661  0.00  0.00    +0.000 A 
ENDBRANCH  23  24
ENDBRANCH  21  23
ENDBRANCH  16  17
ENDBRANCH   1  16
TORSDOF 8
ENDMDL
MODEL 4
REMARK VINA RESULT:      -7.6      5.741      8.035
REMARK  Name = 
REMARK  8 active torsions:
REMARK  status: ('A' for Active; 'I' for Inactive)
REMARK    1  A    between atoms: C_2  and  C_3
REMARK    2  A    between atoms: C_3  and  O_4
REMARK    3  A    between atoms: O_4  and  C_5
REMARK    4  A    between atoms: C_9  and  O_10
REMARK    5  A    between atoms: O_10  and  C_11
REMARK    6  A    between atoms: N_18  and  C_19
REMARK    7  A    between atoms: C_22  and  S_23
REMARK    8  A    between atoms: S_23  and  C_24
REMARK                            x       y       z     vdW  Elec       q    Type
REMARK                         _______ _______ _______ _____ _____    ______ ____
ROOT
ATOM      1  C   UNL     1       3.500   3.957  19.463  0.00  0.00    +0.000 C 
ENDROOT
BRANCH   1   3
ATOM      2  O   UNL     1       2.027   5.017  17.895  0.00  0.00    +0.000 OA
ATOM      3  C   UNL     1       2.765   5.156  18.870  0.00  0.00    +0.000 C 
ATOM      4  N   UNL     1       2.980   6.346  19.549  0.00  0.00    +0.000 N 
ATOM      5  H   UNL     1       3.818   6.399  20.122  0.00  0.00    +0.000 HD
BRANCH   4   6
ATOM      6  C   UNL     1       2.206   7.518  19.424  0.00  0.00    +0.000 A 
ATOM      7  C   UNL     1       2.027   8.190  18.212  0.00  0.00    +0.000 A 
ATOM      8  C   UNL     1       1.237   9.343  18.141  0.00  0.00    +0.000 A 
ATOM      9  C   UNL     1       0.604   9.841  19.281  0.00  0.00    +0.000 A 
ATOM     10  C   UNL     1       0.775   9.169  20.494  0.00  0.00    +0.000 A 
ATOM     11  C   UNL     1       1.560   8.007  20.563  0.00  0.00    +0.000 A 
BRANCH   9  12
ATOM     12  S   UNL     1      -0.323  11.357  19.167  0.00  0.00    +0.000 S 
BRANCH  12  13
ATOM     13  C   UNL     1      -1.548  10.892  17.927  0.00  0.00    +0.000 C 
ATOM     14  F   UNL     1      -2.311   9.858  18.365  0.00  0.00    +0.000 F 
ATOM     15  F   UNL     1      -2.400  11.929  17.712  0.00  0.00    +0.000 F 
ENDBRANCH  12  13
ENDBRANCH   9  12
ENDBRANCH   4   6
ENDBRANCH   1   3
BRANCH   1  16
ATOM     16  O   UNL     1       4.458   3.385  18.585  0.00  0.00    +0.000 OA
BRANCH  16  17
ATOM     17  C   UNL     1       5.491   4.215  18.220  0.00  0.00    +0.000 A 
ATOM     18  C   UNL     1       6.121   4.895  19.265  0.00  0.00    +0.000 A 
ATOM     19  C   UNL     1       7.191   5.758  19.007  0.00  0.00    +0.000 A 
ATOM     20  C   UNL     1       7.600   5.996  17.695  0.00  0.00    +0.000 A 
ATOM     21  C   UNL     1       6.931   5.376  16.643  0.00  0.00    +0.000 A 
ATOM     22  C   UNL     1       5.920   4.445  16.910  0.00  0.00    +0.000 A 
BRANCH  21  23
ATOM     23  O   UNL     1       7.340   5.697  15.364  0.00  0.00    +0.000 OA
BRANCH  23  24
ATOM     24  C   UNL     1       6.849   4.959  14.306  0.00  0.00    +0.000 A 
ATOM     25  C   UNL     1       5.593   4.340  14.300  0.00  0.00    +0.000 A 
ATOM     26  C   UNL     1       5.198   3.566  13.207  0.00  0.00    +0.000 A 
ATOM     27  C   UNL     1       6.028   3.458  12.093  0.00  0.00    +0.000 A 
ATOM     28  C   UNL     1       7.252   4.126  12.069  0.00  0.00    +0.000 A 
ATOM     29  C   UNL     1       7.663   4.876  13.174  0.00  0.00    +0.000 A 
ENDBRANCH  23  24
ENDBRANCH  21  23
ENDBRANCH  16  17
ENDBRANCH   1  16
TORSDOF 8
ENDMDL
MODEL 5
REMARK VINA RESULT:      -7.6      5.306      9.777
REMARK  Name = 
REMARK  8 active torsions:
REMARK  status: ('A' for Active; 'I' for Inactive)
REMARK    1  A    between atoms: C_2  and  C_3
REMARK    2  A    between atoms: C_3  and  O_4
REMARK    3  A    between atoms: O_4  and  C_5
REMARK    4  A    between atoms: C_9  and  O_10
REMARK    5  A    between atoms: O_10  and  C_11
REMARK    6  A    between atoms: N_18  and  C_19
REMARK    7  A    between atoms: C_22  and  S_23
REMARK    8  A    between atoms: S_23  and  C_24
REMARK                            x       y       z     vdW  Elec       q    Type
REMARK                         _______ _______ _______ _____ _____    ______ ____
ROOT
ATOM      1  C   UNL     1       8.211   8.666  17.793  0.00  0.00    +0.000 C 
ENDROOT
BRANCH   1   3
ATOM      2  O   UNL     1       7.834   6.448  18.622  0.00  0.00    +0.000 OA
ATOM      3  C   UNL     1       7.427   7.361  17.906  0.00  0.00    +0.000 C 
ATOM      4  N   UNL     1       6.246   7.345  17.180  0.00  0.00    +0.000 N 
ATOM      5  H   UNL     1       6.174   8.006  16.410  0.00  0.00    +0.000 HD
BRANCH   4   6
ATOM      6  C   UNL     1       5.191   6.423  17.341  0.00  0.00    +0.000 A 
ATOM      7  C   UNL     1       5.318   5.062  17.055  0.00  0.00    +0.000 A 
ATOM      8  C   UNL     1       4.243   4.185  17.245  0.00  0.00    +0.000 A 
ATOM      9  C   UNL     1       3.022   4.655  17.734  0.00  0.00    +0.000 A 
ATOM     10  C   UNL     1       2.893   6.015  18.027  0.00  0.00    +0.000 A 
ATOM     11  C   UNL     1       3.975   6.892  17.845  0.00  0.00    +0.000 A 
BRANCH   9  12
ATOM     12  S   UNL     1       1.653   3.526  17.883  0.00  0.00    +0.000 S 
BRANCH  12  13
ATOM     13  C   UNL     1       1.603   3.318  19.674  0.00  0.00    +0.000 C 
ATOM     14  F   UNL     1       0.497   3.905  20.199  0.00  0.00    +0.000 F 
ATOM     15  F   UNL     1       1.513   1.996  19.980  0.00  0.00    +0.000 F 
ENDBRANCH  12  13
ENDBRANCH   9  12
ENDBRANCH   4   6
ENDBRANCH   1   3
BRANCH   1  16
ATOM     16  O   UNL     1       9.057   8.921  18.905  0.00  0.00    +0.000 OA
BRANCH  16  17
ATOM     17  C   UNL     1       9.227  10.247  19.223  0.00  0.00    +0.000 A 
ATOM     18  C   UNL     1       9.481  11.101  18.147  0.00  0.00    +0.000 A 
ATOM     19  C   UNL     1       9.660  12.473  18.357  0.00  0.00    +0.000 A 
ATOM     20  C   UNL     1       9.647  12.992  19.652  0.00  0.00    +0.000 A 
ATOM     21  C   UNL     1       9.465  12.136  20.734  0.00  0.00    +0.000 A 
ATOM     22  C   UNL     1       9.198  10.780  20.515  0.00  0.00    +0.000 A 
BRANCH  21  23
ATOM     23  O   UNL     1       9.524  12.697  21.994  0.00  0.00    +0.000 OA
BRANCH  23  24
ATOM     24  C   UNL     1       8.433  12.571  22.829  0.00  0.00    +0.000 A 
ATOM     25  C   UNL     1       8.419  11.778  23.983  0.00  0.00    +0.000 A 
ATOM     26  C   UNL     1       7.252  11.665  24.742  0.00  0.00    +0.000 A 
ATOM     27  C   UNL     1       6.116  12.388  24.386  0.00  0.00    +0.000 A 
ATOM     28  C   UNL     1       6.146  13.229  23.273  0.00  0.00    +0.000 A 
ATOM     29  C   UNL     1       7.303  13.320  22.495  0.00  0.00    +0.000 A 
ENDBRANCH  23  24
ENDBRANCH  21  23
ENDBRANCH  16  17
ENDBRANCH   1  16
TORSDOF 8
ENDMDL
MODEL 6
REMARK VINA RESULT:      -7.6      1.307      1.885
REMARK  Name = 
REMARK  8 active torsions:
REMARK  status: ('A' for Active; 'I' for Inactive)
REMARK    1  A    between atoms: C_2  and  C_3
REMARK    2  A    between atoms: C_3  and  O_4
REMARK    3  A    between atoms: O_4  and  C_5
REMARK    4  A    between atoms: C_9  and  O_10
REMARK    5  A    between atoms: O_10  and  C_11
REMARK    6  A    between atoms: N_18  and  C_19
REMARK    7  A    between atoms: C_22  and  S_23
REMARK    8  A    between atoms: S_23  and  C_24
REMARK                            x       y       z     vdW  Elec       q    Type
REMARK                         _______ _______ _______ _____ _____    ______ ____
ROOT
ATOM      1  C   UNL     1       8.145   8.000  18.208  0.00  0.00    +0.000 C 
ENDROOT
BRANCH   1   3
ATOM      2  O   UNL     1       8.032  10.308  17.568  0.00  0.00    +0.000 OA
ATOM      3  C   UNL     1       8.514   9.476  18.335  0.00  0.00    +0.000 C 
ATOM      4  N   UNL     1       9.373   9.756  19.386  0.00  0.00    +0.000 N 
ATOM      5  H   UNL     1       9.928   8.982  19.741  0.00  0.00    +0.000 HD
BRANCH   4   6
ATOM      6  C   UNL     1       9.625  11.035  19.926  0.00  0.00    +0.000 A 
ATOM      7  C   UNL     1      10.416  11.991  19.284  0.00  0.00    +0.000 A 
ATOM      8  C   UNL     1      10.624  13.252  19.856  0.00  0.00    +0.000 A 
ATOM      9  C   UNL     1      10.038  13.581  21.080  0.00  0.00    +0.000 A 
ATOM     10  C   UNL     1       9.242  12.629  21.723  0.00  0.00    +0.000 A 
ATOM     11  C   UNL     1       9.026  11.369  21.143  0.00  0.00    +0.000 A 
BRANCH   9  12
ATOM     12  S   UNL     1      10.396  15.162  21.817  0.00  0.00    +0.000 S 
BRANCH  12  13
ATOM     13  C   UNL     1       9.726  16.263  20.555  0.00  0.00    +0.000 C 
ATOM     14  F   UNL     1       9.157  17.358  21.120  0.00  0.00    +0.000 F 
ATOM     15  F   UNL     1      10.733  16.721  19.765  0.00  0.00    +0.000 F 
ENDBRANCH  12  13
ENDBRANCH   9  12
ENDBRANCH   4   6
ENDBRANCH   1   3
BRANCH   1  16
ATOM     16  O   UNL     1       7.499   7.677  16.984  0.00  0.00    +0.000 OA
BRANCH  16  17
ATOM     17  C   UNL     1       6.578   6.660  17.057  0.00  0.00    +0.000 A 
ATOM     18  C   UNL     1       7.056   5.385  16.745  0.00  0.00    +0.000 A 
ATOM     19  C   UNL     1       6.206   4.275  16.797  0.00  0.00    +0.000 A 
ATOM     20  C   UNL     1       4.854   4.441  17.100  0.00  0.00    +0.000 A 
ATOM     21  C   UNL     1       4.355   5.719  17.341  0.00  0.00    +0.000 A 
ATOM     22  C   UNL     1       5.226   6.813  17.377  0.00  0.00    +0.000 A 
BRANCH  21  23
ATOM     23  O   UNL     1       2.999   5.828  17.575  0.00  0.00    +0.000 OA
BRANCH  23  24
ATOM     24  C   UNL     1       2.444   5.111  18.615  0.00  0.00    +0.000 A 
ATOM     25  C   UNL     1       2.670   5.395  19.968  0.00  0.00    +0.000 A 
ATOM     26  C   UNL     1       2.111   4.583  20.957  0.00  0.00    +0.000 A 
ATOM     27  C   UNL     1       1.279   3.524  20.602  0.00  0.00    +0.000 A 
ATOM     28  C   UNL     1       1.000   3.277  19.257  0.00  0.00    +0.000 A 
ATOM     29  C   UNL     1       1.582   4.070  18.265  0.00  0.00    +0.000 A 
ENDBRANCH  23  24
ENDBRANCH  21  23
ENDBRANCH  16  17
ENDBRANCH   1  16
TORSDOF 8
ENDMDL
MODEL 7
REMARK VINA RESULT:      -7.5      6.566      7.596
REMARK  Name = 
REMARK  8 active torsions:
REMARK  status: ('A' for Active; 'I' for Inactive)
REMARK    1  A    between atoms: C_2  and  C_3
REMARK    2  A    between atoms: C_3  and  O_4
REMARK    3  A    between atoms: O_4  and  C_5
REMARK    4  A    between atoms: C_9  and  O_10
REMARK    5  A    between atoms: O_10  and  C_11
REMARK    6  A    between atoms: N_18  and  C_19
REMARK    7  A    between atoms: C_22  and  S_23
REMARK    8  A    between atoms: S_23  and  C_24
REMARK                            x       y       z     vdW  Elec       q    Type
REMARK                         _______ _______ _______ _____ _____    ______ ____
ROOT
ATOM      1  C   UNL     1       2.366   7.847  17.808  0.00  0.00    +0.000 C 
ENDROOT
BRANCH   1   3
ATOM      2  O   UNL     1       2.222  10.230  17.578  0.00  0.00    +0.000 OA
ATOM      3  C   UNL     1       1.912   9.240  18.238  0.00  0.00    +0.000 C 
ATOM      4  N   UNL     1       1.115   9.250  19.373  0.00  0.00    +0.000 N 
ATOM      5  H   UNL     1       1.184   8.442  19.986  0.00  0.00    +0.000 HD
BRANCH   4   6
ATOM      6  C   UNL     1       0.313  10.325  19.807  0.00  0.00    +0.000 A 
ATOM      7  C   UNL     1      -0.914  10.648  19.221  0.00  0.00    +0.000 A 
ATOM      8  C   UNL     1      -1.679  11.718  19.699  0.00  0.00    +0.000 A 
ATOM      9  C   UNL     1      -1.234  12.482  20.780  0.00  0.00    +0.000 A 
ATOM     10  C   UNL     1      -0.010  12.159  21.373  0.00  0.00    +0.000 A 
ATOM     11  C   UNL     1       0.752  11.079  20.900  0.00  0.00    +0.000 A 
BRANCH   9  12
ATOM     12  S   UNL     1      -2.193  13.887  21.305  0.00  0.00    +0.000 S 
BRANCH  12  13
ATOM     13  C   UNL     1      -3.823  13.127  21.446  0.00  0.00    +0.000 C 
ATOM     14  F   UNL     1      -3.867  12.266  22.494  0.00  0.00    +0.000 F 
ATOM     15  F   UNL     1      -4.755  14.083  21.700  0.00  0.00    +0.000 F 
ENDBRANCH  12  13
ENDBRANCH   9  12
ENDBRANCH   4   6
ENDBRANCH   1   3
BRANCH   1  16
ATOM     16  O   UNL     1       3.767   7.744  17.600  0.00  0.00    +0.000 OA
BRANCH  16  17
ATOM     17  C   UNL     1       4.217   6.497  17.237  0.00  0.00    +0.000 A 
ATOM     18  C   UNL     1       5.025   6.451  16.098  0.00  0.00    +0.000 A 
ATOM     19  C   UNL     1       5.546   5.234  15.646  0.00  0.00    +0.000 A 
ATOM     20  C   UNL     1       5.213   4.044  16.294  0.00  0.00    +0.000 A 
ATOM     21  C   UNL     1       4.351   4.075  17.388  0.00  0.00    +0.000 A 
ATOM     22  C   UNL     1       3.904   5.302  17.891  0.00  0.00    +0.000 A 
BRANCH  21  23
ATOM     23  O   UNL     1       4.009   2.861  17.950  0.00  0.00    +0.000 OA
BRANCH  23  24
ATOM     24  C   UNL     1       3.133   2.847  19.017  0.00  0.00    +0.000 A 
ATOM     25  C   UNL     1       3.534   2.755  20.356  0.00  0.00    +0.000 A 
ATOM     26  C   UNL     1       2.579   2.692  21.371  0.00  0.00    +0.000 A 
ATOM     27  C   UNL     1       1.224   2.782  21.060  0.00  0.00    +0.000 A 
ATOM     28  C   UNL     1       0.823   2.939  19.733  0.00  0.00    +0.000 A 
ATOM     29  C   UNL     1       1.777   2.971  18.712  0.00  0.00    +0.000 A 
ENDBRANCH  23  24
ENDBRANCH  21  23
ENDBRANCH  16  17
ENDBRANCH   1  16
TORSDOF 8
ENDMDL
MODEL 8
REMARK VINA RESULT:      -7.5      6.419      7.480
REMARK  Name = 
REMARK  8 active torsions:
REMARK  status: ('A' for Active; 'I' for Inactive)
REMARK    1  A    between atoms: C_2  and  C_3
REMARK    2  A    between atoms: C_3  and  O_4
REMARK    3  A    between atoms: O_4  and  C_5
REMARK    4  A    between atoms: C_9  and  O_10
REMARK    5  A    between atoms: O_10  and  C_11
REMARK    6  A    between atoms: N_18  and  C_19
REMARK    7  A    between atoms: C_22  and  S_23
REMARK    8  A    between atoms: S_23  and  C_24
REMARK                            x       y       z     vdW  Elec       q    Type
REMARK                         _______ _______ _______ _____ _____    ______ ____
ROOT
ATOM      1  C   UNL     1       2.063   7.836  18.194  0.00  0.00    +0.000 C 
ENDROOT
BRANCH   1   3
ATOM      2  O   UNL     1       1.233  10.069  17.917  0.00  0.00    +0.000 OA
ATOM      3  C   UNL     1       1.566   9.186  18.706  0.00  0.00    +0.000 C 
ATOM      4  N   UNL     1       1.496   9.277  20.088  0.00  0.00    +0.000 N 
ATOM      5  H   UNL     1       2.069   8.626  20.618  0.00  0.00    +0.000 HD
BRANCH   4   6
ATOM      6  C   UNL     1       0.793  10.260  20.815  0.00  0.00    +0.000 A 
ATOM      7  C   UNL     1       0.880  11.626  20.532  0.00  0.00    +0.000 A 
ATOM      8  C   UNL     1       0.151  12.561  21.276  0.00  0.00    +0.000 A 
ATOM      9  C   UNL     1      -0.686  12.144  22.313  0.00  0.00    +0.000 A 
ATOM     10  C   UNL     1      -0.781  10.779  22.596  0.00  0.00    +0.000 A 
ATOM     11  C   UNL     1      -0.057   9.841  21.842  0.00  0.00    +0.000 A 
BRANCH   9  12
ATOM     12  S   UNL     1      -1.532  13.369  23.292  0.00  0.00    +0.000 S 
BRANCH  12  13
ATOM     13  C   UNL     1      -3.235  12.801  23.112  0.00  0.00    +0.000 C 
ATOM     14  F   UNL     1      -3.455  12.320  21.862  0.00  0.00    +0.000 F 
ATOM     15  F   UNL     1      -3.467  11.768  23.965  0.00  0.00    +0.000 F 
ENDBRANCH  12  13
ENDBRANCH   9  12
ENDBRANCH   4   6
ENDBRANCH   1   3
BRANCH   1  16
ATOM     16  O   UNL     1       3.397   7.869  17.707  0.00  0.00    +0.000 OA
BRANCH  16  17
ATOM     17  C   UNL     1       3.923   6.649  17.352  0.00  0.00    +0.000 A 
ATOM     18  C   UNL     1       4.870   6.673  16.325  0.00  0.00    +0.000 A 
ATOM     19  C   UNL     1       5.476   5.489  15.891  0.00  0.00    +0.000 A 
ATOM     20  C   UNL     1       5.095   4.264  16.439  0.00  0.00    +0.000 A 
ATOM     21  C   UNL     1       4.101   4.226  17.414  0.00  0.00    +0.000 A 
ATOM     22  C   UNL     1       3.561   5.419  17.907  0.00  0.00    +0.000 A 
BRANCH  21  23
ATOM     23  O   UNL     1       3.722   2.981  17.874  0.00  0.00    +0.000 OA
BRANCH  23  24
ATOM     24  C   UNL     1       2.892   2.904  18.974  0.00  0.00    +0.000 A 
ATOM     25  C   UNL     1       1.496   2.994  18.908  0.00  0.00    +0.000 A 
ATOM     26  C   UNL     1       0.735   2.961  20.078  0.00  0.00    +0.000 A 
ATOM     27  C   UNL     1       1.359   2.778  21.310  0.00  0.00    +0.000 A 
ATOM     28  C   UNL     1       2.744   2.623  21.374  0.00  0.00    +0.000 A 
ATOM     29  C   UNL     1       3.510   2.687  20.207  0.00  0.00    +0.000 A 
ENDBRANCH  23  24
ENDBRANCH  21  23
ENDBRANCH  16  17
ENDBRANCH   1  16
TORSDOF 8
ENDMDL
MODEL 9
REMARK VINA RESULT:      -7.4      6.092      7.086
REMARK  Name = 
REMARK  8 active torsions:
REMARK  status: ('A' for Active; 'I' for Inactive)
REMARK    1  A    between atoms: C_2  and  C_3
REMARK    2  A    between atoms: C_3  and  O_4
REMARK    3  A    between atoms: O_4  and  C_5
REMARK    4  A    between atoms: C_9  and  O_10
REMARK    5  A    between atoms: O_10  and  C_11
REMARK    6  A    between atoms: N_18  and  C_19
REMARK    7  A    between atoms: C_22  and  S_23
REMARK    8  A    between atoms: S_23  and  C_24
REMARK                            x       y       z     vdW  Elec       q    Type
REMARK                         _______ _______ _______ _____ _____    ______ ____
ROOT
ATOM      1  C   UNL     1       2.351   8.024  17.616  0.00  0.00    +0.000 C 
ENDROOT
BRANCH   1   3
ATOM      2  O   UNL     1       2.013  10.352  18.079  0.00  0.00    +0.000 OA
ATOM      3  C   UNL     1       1.877   9.195  18.473  0.00  0.00    +0.000 C 
ATOM      4  N   UNL     1       1.269   8.818  19.661  0.00  0.00    +0.000 N 
ATOM      5  H   UNL     1       1.487   7.888  20.010  0.00  0.00    +0.000 HD
BRANCH   4   6
ATOM      6  C   UNL     1       0.474   9.646  20.479  0.00  0.00    +0.000 A 
ATOM      7  C   UNL     1       0.491   9.584  21.874  0.00  0.00    +0.000 A 
ATOM      8  C   UNL     1      -0.309  10.440  22.641  0.00  0.00    +0.000 A 
ATOM      9  C   UNL     1      -1.136  11.380  22.024  0.00  0.00    +0.000 A 
ATOM     10  C   UNL     1      -1.153  11.450  20.629  0.00  0.00    +0.000 A 
ATOM     11  C   UNL     1      -0.342  10.598  19.861  0.00  0.00    +0.000 A 
BRANCH   9  12
ATOM     12  S   UNL     1      -2.202  12.392  23.030  0.00  0.00    +0.000 S 
BRANCH  12  13
ATOM     13  C   UNL     1      -1.402  13.996  22.831  0.00  0.00    +0.000 C 
ATOM     14  F   UNL     1      -0.057  13.854  22.704  0.00  0.00    +0.000 F 
ATOM     15  F   UNL     1      -1.832  14.584  21.683  0.00  0.00    +0.000 F 
ENDBRANCH  12  13
ENDBRANCH   9  12
ENDBRANCH   4   6
ENDBRANCH   1   3
BRANCH   1  16
ATOM     16  O   UNL     1       3.762   7.865  17.598  0.00  0.00    +0.000 OA
BRANCH  16  17
ATOM     17  C   UNL     1       4.209   6.619  17.228  0.00  0.00    +0.000 A 
ATOM     18  C   UNL     1       4.957   6.568  16.049  0.00  0.00    +0.000 A 
ATOM     19  C   UNL     1       5.470   5.352  15.586  0.00  0.00    +0.000 A 
ATOM     20  C   UNL     1       5.186   4.167  16.266  0.00  0.00    +0.000 A 
ATOM     21  C   UNL     1       4.383   4.201  17.402  0.00  0.00    +0.000 A 
ATOM     22  C   UNL     1       3.946   5.429  17.912  0.00  0.00    +0.000 A 
BRANCH  21  23
ATOM     23  O   UNL     1       4.086   2.991  17.997  0.00  0.00    +0.000 OA
BRANCH  23  24
ATOM     24  C   UNL     1       3.092   2.947  18.954  0.00  0.00    +0.000 A 
ATOM     25  C   UNL     1       1.725   3.037  18.666  0.00  0.00    +0.000 A 
ATOM     26  C   UNL     1       0.789   3.039  19.702  0.00  0.00    +0.000 A 
ATOM     27  C   UNL     1       1.209   2.891  21.021  0.00  0.00    +0.000 A 
ATOM     28  C   UNL     1       2.566   2.737  21.307  0.00  0.00    +0.000 A 
ATOM     29  C   UNL     1       3.507   2.765  20.274  0.00  0.00    +0.000 A 
ENDBRANCH  23  24
ENDBRANCH  21  23
ENDBRANCH  16  17
ENDBRANCH   1  16
TORSDOF 8
ENDMDL
