MODEL 1
REMARK VINA RESULT:      -7.4      0.000      0.000
REMARK  Name = 
REMARK  7 active torsions:
REMARK  status: ('A' for Active; 'I' for Inactive)
REMARK    1  A    between atoms: C_1  and  O_2
REMARK    2  A    between atoms: O_2  and  C_3
REMARK    3  A    between atoms: C_5  and  O_6
REMARK    4  A    between atoms: C_7  and  C_8
REMARK    5  A    between atoms: C_13  and  O_14
REMARK    6  A    between atoms: C_16  and  O_17
REMARK    7  A    between atoms: C_22  and  O_23
REMARK                            x       y       z     vdW  Elec       q    Type
REMARK                         _______ _______ _______ _____ _____    ______ ____
ROOT
ATOM      1  C   UNL     1       2.978   6.738  18.677  0.00  0.00    +0.000 A 
ATOM      2  C   UNL     1       2.678   6.251  19.887  0.00  0.00    +0.000 A 
ATOM      3  O   UNL     1       1.878   6.847  20.825  0.00  0.00    +0.000 OA
ATOM      4  C   UNL     1       1.380   8.094  20.536  0.00  0.00    +0.000 A 
ATOM      5  C   UNL     1       0.660   8.713  21.564  0.00  0.00    +0.000 A 
ATOM      6  C   UNL     1       0.140   9.984  21.357  0.00  0.00    +0.000 A 
ATOM      7  C   UNL     1       0.312  10.636  20.142  0.00  0.00    +0.000 A 
ATOM      8  C   UNL     1       1.028  10.013  19.117  0.00  0.00    +0.000 A 
ATOM      9  C   UNL     1       1.576   8.737  19.307  0.00  0.00    +0.000 A 
ATOM     10  C   UNL     1       2.383   8.040  18.272  0.00  0.00    +0.000 A 
ATOM     11  O   UNL     1       2.590   8.500  17.157  0.00  0.00    +0.000 OA
ENDROOT
BRANCH   1  15
ATOM     12  C   UNL     1       5.721   4.620  16.153  0.00  0.00    +0.000 A 
ATOM     13  C   UNL     1       4.458   4.082  16.422  0.00  0.00    +0.000 A 
ATOM     14  C   UNL     1       3.561   4.768  17.244  0.00  0.00    +0.000 A 
ATOM     15  C   UNL     1       3.896   6.009  17.795  0.00  0.00    +0.000 A 
ATOM     16  C   UNL     1       5.150   6.564  17.507  0.00  0.00    +0.000 A 
ATOM     17  C   UNL     1       6.051   5.872  16.695  0.00  0.00    +0.000 A 
BRANCH  12  19
ATOM     18  C   UNL     1       6.447   3.968  13.985  0.00  0.00    +0.000 C 
ATOM     19  O   UNL     1       6.676   4.006  15.387  0.00  0.00    +0.000 OA
ENDBRANCH  12  19
BRANCH  14  20
ATOM     20  O   UNL     1       2.345   4.209  17.532  0.00  0.00    +0.000 OA
ATOM     21  H   UNL     1       2.375   3.261  17.322  0.00  0.00    +0.000 HD
ENDBRANCH  14  20
BRANCH  17  22
ATOM     22  O   UNL     1       7.283   6.416  16.434  0.00  0.00    +0.000 OA
ATOM     23  H   UNL     1       7.337   7.292  16.851  0.00  0.00    +0.000 HD
ENDBRANCH  17  22
ENDBRANCH   1  15
BRANCH   6  24
ATOM     24  O   UNL     1      -0.549  10.640  22.333  0.00  0.00    +0.000 OA
ATOM     25  H   UNL     1      -1.376  10.990  21.961  0.00  0.00    +0.000 HD
ENDBRANCH   6  24
BRANCH   8  26
ATOM     26  O   UNL     1       1.194  10.681  17.938  0.00  0.00    +0.000 OA
ATOM     27  H   UNL     1       0.342  11.022  17.619  0.00  0.00    +0.000 HD
ENDBRANCH   8  26
TORSDOF 6
ENDMDL
MODEL 2
REMARK VINA RESULT:      -6.7      3.344      4.864
REMARK  Name = 
REMARK  7 active torsions:
REMARK  status: ('A' for Active; 'I' for Inactive)
REMARK    1  A    between atoms: C_1  and  O_2
REMARK    2  A    between atoms: O_2  and  C_3
REMARK    3  A    between atoms: C_5  and  O_6
REMARK    4  A    between atoms: C_7  and  C_8
REMARK    5  A    between atoms: C_13  and  O_14
REMARK    6  A    between atoms: C_16  and  O_17
REMARK    7  A    between atoms: C_22  and  O_23
REMARK                            x       y       z     vdW  Elec       q    Type
REMARK                         _______ _______ _______ _____ _____    ______ ____
ROOT
ATOM      1  C   UNL     1       4.541   3.656  17.098  0.00  0.00    +0.000 A 
ATOM      2  C   UNL     1       4.274   2.375  17.375  0.00  0.00    +0.000 A 
ATOM      3  O   UNL     1       3.520   1.913  18.422  0.00  0.00    +0.000 OA
ATOM      4  C   UNL     1       3.041   2.837  19.317  0.00  0.00    +0.000 A 
ATOM      5  C   UNL     1       2.372   2.314  20.429  0.00  0.00    +0.000 A 
ATOM      6  C   UNL     1       1.873   3.183  21.390  0.00  0.00    +0.000 A 
ATOM      7  C   UNL     1       2.017   4.558  21.252  0.00  0.00    +0.000 A 
ATOM      8  C   UNL     1       2.681   5.077  20.138  0.00  0.00    +0.000 A 
ATOM      9  C   UNL     1       3.207   4.219  19.161  0.00  0.00    +0.000 A 
ATOM     10  C   UNL     1       3.961   4.707  17.978  0.00  0.00    +0.000 A 
ATOM     11  O   UNL     1       4.138   5.892  17.733  0.00  0.00    +0.000 OA
ENDROOT
BRANCH   1  15
ATOM     12  C   UNL     1       7.017   4.694  13.755  0.00  0.00    +0.000 A 
ATOM     13  C   UNL     1       7.427   5.008  15.055  0.00  0.00    +0.000 A 
ATOM     14  C   UNL     1       6.624   4.672  16.147  0.00  0.00    +0.000 A 
ATOM     15  C   UNL     1       5.411   4.001  15.967  0.00  0.00    +0.000 A 
ATOM     16  C   UNL     1       5.008   3.661  14.669  0.00  0.00    +0.000 A 
ATOM     17  C   UNL     1       5.806   4.008  13.576  0.00  0.00    +0.000 A 
BRANCH  12  19
ATOM     18  C   UNL     1       8.756   5.976  12.762  0.00  0.00    +0.000 C 
ATOM     19  O   UNL     1       7.722   5.011  12.623  0.00  0.00    +0.000 OA
ENDBRANCH  12  19
BRANCH  14  20
ATOM     20  O   UNL     1       7.019   5.024  17.410  0.00  0.00    +0.000 OA
ATOM     21  H   UNL     1       7.528   4.293  17.797  0.00  0.00    +0.000 HD
ENDBRANCH  14  20
BRANCH  17  22
ATOM     22  O   UNL     1       5.394   3.686  12.308  0.00  0.00    +0.000 OA
ATOM     23  H   UNL     1       6.087   3.939  11.676  0.00  0.00    +0.000 HD
ENDBRANCH  17  22
ENDBRANCH   1  15
BRANCH   6  24
ATOM     24  O   UNL     1       1.234   2.725  22.504  0.00  0.00    +0.000 OA
ATOM     25  H   UNL     1       0.303   3.005  22.476  0.00  0.00    +0.000 HD
ENDBRANCH   6  24
BRANCH   8  26
ATOM     26  O   UNL     1       2.820   6.431  20.032  0.00  0.00    +0.000 OA
ATOM     27  H   UNL     1       1.986   6.834  19.737  0.00  0.00    +0.000 HD
ENDBRANCH   8  26
TORSDOF 6
ENDMDL
MODEL 3
REMARK VINA RESULT:      -6.7      1.507      7.677
REMARK  Name = 
REMARK  7 active torsions:
REMARK  status: ('A' for Active; 'I' for Inactive)
REMARK    1  A    between atoms: C_1  and  O_2
REMARK    2  A    between atoms: O_2  and  C_3
REMARK    3  A    between atoms: C_5  and  O_6
REMARK    4  A    between atoms: C_7  and  C_8
REMARK    5  A    between atoms: C_13  and  O_14
REMARK    6  A    between atoms: C_16  and  O_17
REMARK    7  A    between atoms: C_22  and  O_23
REMARK                            x       y       z     vdW  Elec       q    Type
REMARK                         _______ _______ _______ _____ _____    ______ ____
ROOT
ATOM      1  C   UNL     1       1.993   7.924  19.378  0.00  0.00    +0.000 A 
ATOM      2  C   UNL     1       2.604   8.383  18.279  0.00  0.00    +0.000 A 
ATOM      3  O   UNL     1       3.445   7.674  17.464  0.00  0.00    +0.000 OA
ATOM      4  C   UNL     1       3.753   6.387  17.832  0.00  0.00    +0.000 A 
ATOM      5  C   UNL     1       4.701   5.737  17.033  0.00  0.00    +0.000 A 
ATOM      6  C   UNL     1       5.080   4.440  17.351  0.00  0.00    +0.000 A 
ATOM      7  C   UNL     1       4.519   3.779  18.437  0.00  0.00    +0.000 A 
ATOM      8  C   UNL     1       3.570   4.429  19.230  0.00  0.00    +0.000 A 
ATOM      9  C   UNL     1       3.182   5.745  18.938  0.00  0.00    +0.000 A 
ATOM     10  C   UNL     1       2.211   6.504  19.767  0.00  0.00    +0.000 A 
ATOM     11  O   UNL     1       1.634   6.028  20.736  0.00  0.00    +0.000 OA
ENDROOT
BRANCH   1  15
ATOM     12  C   UNL     1      -0.385  10.559  21.781  0.00  0.00    +0.000 A 
ATOM     13  C   UNL     1      -0.509  10.579  20.388  0.00  0.00    +0.000 A 
ATOM     14  C   UNL     1       0.264   9.722  19.600  0.00  0.00    +0.000 A 
ATOM     15  C   UNL     1       1.156   8.818  20.186  0.00  0.00    +0.000 A 
ATOM     16  C   UNL     1       1.264   8.778  21.582  0.00  0.00    +0.000 A 
ATOM     17  C   UNL     1       0.500   9.643  22.368  0.00  0.00    +0.000 A 
BRANCH  12  19
ATOM     18  C   UNL     1      -0.839  12.779  22.503  0.00  0.00    +0.000 C 
ATOM     19  O   UNL     1      -1.077  11.383  22.631  0.00  0.00    +0.000 OA
ENDBRANCH  12  19
BRANCH  14  20
ATOM     20  O   UNL     1       0.163   9.782  18.236  0.00  0.00    +0.000 OA
ATOM     21  H   UNL     1       0.855   9.225  17.843  0.00  0.00    +0.000 HD
ENDBRANCH  14  20
BRANCH  17  22
ATOM     22  O   UNL     1       0.626   9.606  23.733  0.00  0.00    +0.000 OA
ATOM     23  H   UNL     1       0.810  10.503  24.058  0.00  0.00    +0.000 HD
ENDBRANCH  17  22
ENDBRANCH   1  15
BRANCH   6  24
ATOM     24  O   UNL     1       6.015   3.771  16.620  0.00  0.00    +0.000 OA
ATOM     25  H   UNL     1       6.834   4.293  16.592  0.00  0.00    +0.000 HD
ENDBRANCH   6  24
BRANCH   8  26
ATOM     26  O   UNL     1       3.043   3.761  20.298  0.00  0.00    +0.000 OA
ATOM     27  H   UNL     1       3.573   2.972  20.498  0.00  0.00    +0.000 HD
ENDBRANCH   8  26
TORSDOF 6
ENDMDL
MODEL 4
REMARK VINA RESULT:      -6.7      2.266      7.481
REMARK  Name = 
REMARK  7 active torsions:
REMARK  status: ('A' for Active; 'I' for Inactive)
REMARK    1  A    between atoms: C_1  and  O_2
REMARK    2  A    between atoms: O_2  and  C_3
REMARK    3  A    between atoms: C_5  and  O_6
REMARK    4  A    between atoms: C_7  and  C_8
REMARK    5  A    between atoms: C_13  and  O_14
REMARK    6  A    between atoms: C_16  and  O_17
REMARK    7  A    between atoms: C_22  and  O_23
REMARK                            x       y       z     vdW  Elec       q    Type
REMARK                         _______ _______ _______ _____ _____    ______ ____
ROOT
ATOM      1  C   UNL     1       2.218   6.723  19.599  0.00  0.00    +0.000 A 
ATOM      2  C   UNL     1       3.317   6.678  18.835  0.00  0.00    +0.000 A 
ATOM      3  O   UNL     1       3.915   5.548  18.344  0.00  0.00    +0.000 OA
ATOM      4  C   UNL     1       3.388   4.336  18.715  0.00  0.00    +0.000 A 
ATOM      5  C   UNL     1       4.094   3.208  18.282  0.00  0.00    +0.000 A 
ATOM      6  C   UNL     1       3.637   1.946  18.632  0.00  0.00    +0.000 A 
ATOM      7  C   UNL     1       2.481   1.791  19.389  0.00  0.00    +0.000 A 
ATOM      8  C   UNL     1       1.776   2.918  19.816  0.00  0.00    +0.000 A 
ATOM      9  C   UNL     1       2.227   4.205  19.488  0.00  0.00    +0.000 A 
ATOM     10  C   UNL     1       1.546   5.443  19.948  0.00  0.00    +0.000 A 
ATOM     11  O   UNL     1       0.513   5.440  20.603  0.00  0.00    +0.000 OA
ENDROOT
BRANCH   1  15
ATOM     12  C   UNL     1       0.822  10.485  21.107  0.00  0.00    +0.000 A 
ATOM     13  C   UNL     1       0.910  10.273  19.728  0.00  0.00    +0.000 A 
ATOM     14  C   UNL     1       1.365   9.049  19.231  0.00  0.00    +0.000 A 
ATOM     15  C   UNL     1       1.719   8.010  20.097  0.00  0.00    +0.000 A 
ATOM     16  C   UNL     1       1.607   8.209  21.479  0.00  0.00    +0.000 A 
ATOM     17  C   UNL     1       1.164   9.437  21.975  0.00  0.00    +0.000 A 
BRANCH  12  19
ATOM     18  C   UNL     1      -0.967  11.970  21.609  0.00  0.00    +0.000 C 
ATOM     19  O   UNL     1       0.418  11.661  21.685  0.00  0.00    +0.000 OA
ENDBRANCH  12  19
BRANCH  14  20
ATOM     20  O   UNL     1       1.486   8.871  17.879  0.00  0.00    +0.000 OA
ATOM     21  H   UNL     1       0.658   8.497  17.534  0.00  0.00    +0.000 HD
ENDBRANCH  14  20
BRANCH  17  22
ATOM     22  O   UNL     1       1.075   9.627  23.331  0.00  0.00    +0.000 OA
ATOM     23  H   UNL     1       0.502  10.391  23.506  0.00  0.00    +0.000 HD
ENDBRANCH  17  22
ENDBRANCH   1  15
BRANCH   6  24
ATOM     24  O   UNL     1       4.300   0.816  18.256  0.00  0.00    +0.000 OA
ATOM     25  H   UNL     1       4.161   0.125  18.925  0.00  0.00    +0.000 HD
ENDBRANCH   6  24
BRANCH   8  26
ATOM     26  O   UNL     1       0.651   2.739  20.569  0.00  0.00    +0.000 OA
ATOM     27  H   UNL     1      -0.107   3.185  20.156  0.00  0.00    +0.000 HD
ENDBRANCH   8  26
TORSDOF 6
ENDMDL
MODEL 5
REMARK VINA RESULT:      -6.6      0.997      1.065
REMARK  Name = 
REMARK  7 active torsions:
REMARK  status: ('A' for Active; 'I' for Inactive)
REMARK    1  A    between atoms: C_1  and  O_2
REMARK    2  A    between atoms: O_2  and  C_3
REMARK    3  A    between atoms: C_5  and  O_6
REMARK    4  A    between atoms: C_7  and  C_8
REMARK    5  A    between atoms: C_13  and  O_14
REMARK    6  A    between atoms: C_16  and  O_17
REMARK    7  A    between atoms: C_22  and  O_23
REMARK                            x       y       z     vdW  Elec       q    Type
REMARK                         _______ _______ _______ _____ _____    ______ ____
ROOT
ATOM      1  C   UNL     1       2.348   7.363  19.003  0.00  0.00    +0.000 A 
ATOM      2  C   UNL     1       2.076   6.921  20.237  0.00  0.00    +0.000 A 
ATOM      3  O   UNL     1       1.326   7.570  21.182  0.00  0.00    +0.000 OA
ATOM      4  C   UNL     1       0.856   8.822  20.872  0.00  0.00    +0.000 A 
ATOM      5  C   UNL     1       0.190   9.493  21.904  0.00  0.00    +0.000 A 
ATOM      6  C   UNL     1      -0.298  10.772  21.676  0.00  0.00    +0.000 A 
ATOM      7  C   UNL     1      -0.149  11.382  20.436  0.00  0.00    +0.000 A 
ATOM      8  C   UNL     1       0.513  10.708  19.407  0.00  0.00    +0.000 A 
ATOM      9  C   UNL     1       1.029   9.421  19.618  0.00  0.00    +0.000 A 
ATOM     10  C   UNL     1       1.778   8.670  18.578  0.00  0.00    +0.000 A 
ATOM     11  O   UNL     1       1.960   9.090  17.443  0.00  0.00    +0.000 OA
ENDROOT
BRANCH   1  15
ATOM     12  C   UNL     1       4.941   5.100  16.447  0.00  0.00    +0.000 A 
ATOM     13  C   UNL     1       3.780   4.515  16.961  0.00  0.00    +0.000 A 
ATOM     14  C   UNL     1       2.932   5.248  17.795  0.00  0.00    +0.000 A 
ATOM     15  C   UNL     1       3.213   6.580  18.113  0.00  0.00    +0.000 A 
ATOM     16  C   UNL     1       4.362   7.178  17.579  0.00  0.00    +0.000 A 
ATOM     17  C   UNL     1       5.216   6.441  16.756  0.00  0.00    +0.000 A 
BRANCH  12  19
ATOM     18  C   UNL     1       7.110   4.152  16.228  0.00  0.00    +0.000 C 
ATOM     19  O   UNL     1       5.847   4.451  15.649  0.00  0.00    +0.000 OA
ENDBRANCH  12  19
BRANCH  14  20
ATOM     20  O   UNL     1       1.821   4.648  18.325  0.00  0.00    +0.000 OA
ATOM     21  H   UNL     1       1.157   5.330  18.522  0.00  0.00    +0.000 HD
ENDBRANCH  14  20
BRANCH  17  22
ATOM     22  O   UNL     1       6.347   7.032  16.252  0.00  0.00    +0.000 OA
ATOM     23  H   UNL     1       6.135   7.445  15.399  0.00  0.00    +0.000 HD
ENDBRANCH  17  22
ENDBRANCH   1  15
BRANCH   6  24
ATOM     24  O   UNL     1      -0.934  11.478  22.653  0.00  0.00    +0.000 OA
ATOM     25  H   UNL     1      -1.183  12.352  22.307  0.00  0.00    +0.000 HD
ENDBRANCH   6  24
BRANCH   8  26
ATOM     26  O   UNL     1       0.657  11.334  18.203  0.00  0.00    +0.000 OA
ATOM     27  H   UNL     1       1.225  12.117  18.295  0.00  0.00    +0.000 HD
ENDBRANCH   8  26
TORSDOF 6
ENDMDL
MODEL 6
REMARK VINA RESULT:      -6.6      1.888      3.595
REMARK  Name = 
REMARK  7 active torsions:
REMARK  status: ('A' for Active; 'I' for Inactive)
REMARK    1  A    between atoms: C_1  and  O_2
REMARK    2  A    between atoms: O_2  and  C_3
REMARK    3  A    between atoms: C_5  and  O_6
REMARK    4  A    between atoms: C_7  and  C_8
REMARK    5  A    between atoms: C_13  and  O_14
REMARK    6  A    between atoms: C_16  and  O_17
REMARK    7  A    between atoms: C_22  and  O_23
REMARK                            x       y       z     vdW  Elec       q    Type
REMARK                         _______ _______ _______ _____ _____    ______ ____
ROOT
ATOM      1  C   UNL     1       2.261   7.378  18.512  0.00  0.00    +0.000 A 
ATOM      2  C   UNL     1       2.344   8.257  17.507  0.00  0.00    +0.000 A 
ATOM      3  O   UNL     1       2.014   9.586  17.563  0.00  0.00    +0.000 OA
ATOM      4  C   UNL     1       1.483  10.060  18.737  0.00  0.00    +0.000 A 
ATOM      5  C   UNL     1       1.058  11.393  18.717  0.00  0.00    +0.000 A 
ATOM      6  C   UNL     1       0.492  11.941  19.859  0.00  0.00    +0.000 A 
ATOM      7  C   UNL     1       0.362  11.191  21.022  0.00  0.00    +0.000 A 
ATOM      8  C   UNL     1       0.792   9.862  21.040  0.00  0.00    +0.000 A 
ATOM      9  C   UNL     1       1.351   9.280  19.894  0.00  0.00    +0.000 A 
ATOM     10  C   UNL     1       1.788   7.861  19.837  0.00  0.00    +0.000 A 
ATOM     11  O   UNL     1       1.742   7.103  20.797  0.00  0.00    +0.000 OA
ENDROOT
BRANCH   1  15
ATOM     12  C   UNL     1       3.195   3.254  17.808  0.00  0.00    +0.000 A 
ATOM     13  C   UNL     1       4.210   4.215  17.784  0.00  0.00    +0.000 A 
ATOM     14  C   UNL     1       3.911   5.561  18.013  0.00  0.00    +0.000 A 
ATOM     15  C   UNL     1       2.602   5.968  18.289  0.00  0.00    +0.000 A 
ATOM     16  C   UNL     1       1.586   5.004  18.339  0.00  0.00    +0.000 A 
ATOM     17  C   UNL     1       1.884   3.661  18.098  0.00  0.00    +0.000 A 
BRANCH  12  19
ATOM     18  C   UNL     1       3.929   1.145  18.626  0.00  0.00    +0.000 C 
ATOM     19  O   UNL     1       3.388   1.919  17.564  0.00  0.00    +0.000 OA
ENDBRANCH  12  19
BRANCH  14  20
ATOM     20  O   UNL     1       4.908   6.496  17.945  0.00  0.00    +0.000 OA
ATOM     21  H   UNL     1       5.429   6.344  17.139  0.00  0.00    +0.000 HD
ENDBRANCH  14  20
BRANCH  17  22
ATOM     22  O   UNL     1       0.879   2.729  18.133  0.00  0.00    +0.000 OA
ATOM     23  H   UNL     1       1.130   2.015  18.742  0.00  0.00    +0.000 HD
ENDBRANCH  17  22
ENDBRANCH   1  15
BRANCH   6  24
ATOM     24  O   UNL     1       0.041  13.227  19.886  0.00  0.00    +0.000 OA
ATOM     25  H   UNL     1      -0.538  13.380  19.120  0.00  0.00    +0.000 HD
ENDBRANCH   6  24
BRANCH   8  26
ATOM     26  O   UNL     1       0.640   9.142  22.191  0.00  0.00    +0.000 OA
ATOM     27  H   UNL     1       1.175   8.332  22.155  0.00  0.00    +0.000 HD
ENDBRANCH   8  26
TORSDOF 6
ENDMDL
MODEL 7
REMARK VINA RESULT:      -6.6      2.092      8.157
REMARK  Name = 
REMARK  7 active torsions:
REMARK  status: ('A' for Active; 'I' for Inactive)
REMARK    1  A    between atoms: C_1  and  O_2
REMARK    2  A    between atoms: O_2  and  C_3
REMARK    3  A    between atoms: C_5  and  O_6
REMARK    4  A    between atoms: C_7  and  C_8
REMARK    5  A    between atoms: C_13  and  O_14
REMARK    6  A    between atoms: C_16  and  O_17
REMARK    7  A    between atoms: C_22  and  O_23
REMARK                            x       y       z     vdW  Elec       q    Type
REMARK                         _______ _______ _______ _____ _____    ______ ____
ROOT
ATOM      1  C   UNL     1       0.967   9.536  19.243  0.00  0.00    +0.000 A 
ATOM      2  C   UNL     1       1.536   9.775  18.055  0.00  0.00    +0.000 A 
ATOM      3  O   UNL     1       2.425   8.960  17.406  0.00  0.00    +0.000 OA
ATOM      4  C   UNL     1       2.832   7.819  18.051  0.00  0.00    +0.000 A 
ATOM      5  C   UNL     1       3.823   7.075  17.402  0.00  0.00    +0.000 A 
ATOM      6  C   UNL     1       4.301   5.917  18.000  0.00  0.00    +0.000 A 
ATOM      7  C   UNL     1       3.797   5.483  19.220  0.00  0.00    +0.000 A 
ATOM      8  C   UNL     1       2.805   6.226  19.863  0.00  0.00    +0.000 A 
ATOM      9  C   UNL     1       2.316   7.408  19.287  0.00  0.00    +0.000 A 
ATOM     10  C   UNL     1       1.294   8.264  19.941  0.00  0.00    +0.000 A 
ATOM     11  O   UNL     1       0.760   7.982  21.005  0.00  0.00    +0.000 OA
ENDROOT
BRANCH   1  15
ATOM     12  C   UNL     1      -1.725  12.389  20.975  0.00  0.00    +0.000 A 
ATOM     13  C   UNL     1      -0.590  11.977  21.682  0.00  0.00    +0.000 A 
ATOM     14  C   UNL     1       0.290  11.048  21.122  0.00  0.00    +0.000 A 
ATOM     15  C   UNL     1       0.067  10.529  19.842  0.00  0.00    +0.000 A 
ATOM     16  C   UNL     1      -1.054  10.958  19.121  0.00  0.00    +0.000 A 
ATOM     17  C   UNL     1      -1.940  11.877  19.686  0.00  0.00    +0.000 A 
BRANCH  12  19
ATOM     18  C   UNL     1      -3.521  12.792  22.479  0.00  0.00    +0.000 C 
ATOM     19  O   UNL     1      -2.659  13.269  21.455  0.00  0.00    +0.000 OA
ENDBRANCH  12  19
BRANCH  14  20
ATOM     20  O   UNL     1       1.373  10.623  21.843  0.00  0.00    +0.000 OA
ATOM     21  H   UNL     1       1.065  10.058  22.572  0.00  0.00    +0.000 HD
ENDBRANCH  14  20
BRANCH  17  22
ATOM     22  O   UNL     1      -3.044  12.278  18.977  0.00  0.00    +0.000 OA
ATOM     23  H   UNL     1      -3.811  12.304  19.572  0.00  0.00    +0.000 HD
ENDBRANCH  17  22
ENDBRANCH   1  15
BRANCH   6  24
ATOM     24  O   UNL     1       5.282   5.167  17.421  0.00  0.00    +0.000 OA
ATOM     25  H   UNL     1       5.162   5.173  16.456  0.00  0.00    +0.000 HD
ENDBRANCH   6  24
BRANCH   8  26
ATOM     26  O   UNL     1       2.335   5.785  21.067  0.00  0.00    +0.000 OA
ATOM     27  H   UNL     1       1.624   5.137  20.935  0.00  0.00    +0.000 HD
ENDBRANCH   8  26
TORSDOF 6
ENDMDL
MODEL 8
REMARK VINA RESULT:      -6.5      3.414      9.641
REMARK  Name = 
REMARK  7 active torsions:
REMARK  status: ('A' for Active; 'I' for Inactive)
REMARK    1  A    between atoms: C_1  and  O_2
REMARK    2  A    between atoms: O_2  and  C_3
REMARK    3  A    between atoms: C_5  and  O_6
REMARK    4  A    between atoms: C_7  and  C_8
REMARK    5  A    between atoms: C_13  and  O_14
REMARK    6  A    between atoms: C_16  and  O_17
REMARK    7  A    between atoms: C_22  and  O_23
REMARK                            x       y       z     vdW  Elec       q    Type
REMARK                         _______ _______ _______ _____ _____    ______ ____
ROOT
ATOM      1  C   UNL     1      -0.374  10.977  22.102  0.00  0.00    +0.000 A 
ATOM      2  C   UNL     1       0.057   9.920  22.802  0.00  0.00    +0.000 A 
ATOM      3  O   UNL     1       0.818   8.888  22.322  0.00  0.00    +0.000 OA
ATOM      4  C   UNL     1       1.121   8.889  20.983  0.00  0.00    +0.000 A 
ATOM      5  C   UNL     1       1.805   7.761  20.515  0.00  0.00    +0.000 A 
ATOM      6  C   UNL     1       2.131   7.678  19.168  0.00  0.00    +0.000 A 
ATOM      7  C   UNL     1       1.803   8.704  18.290  0.00  0.00    +0.000 A 
ATOM      8  C   UNL     1       1.125   9.830  18.762  0.00  0.00    +0.000 A 
ATOM      9  C   UNL     1       0.770   9.930  20.115  0.00  0.00    +0.000 A 
ATOM     10  C   UNL     1       0.011  11.081  20.669  0.00  0.00    +0.000 A 
ATOM     11  O   UNL     1      -0.319  12.053  20.004  0.00  0.00    +0.000 OA
ENDROOT
BRANCH   1  15
ATOM     12  C   UNL     1      -2.887  13.868  24.026  0.00  0.00    +0.000 A 
ATOM     13  C   UNL     1      -1.643  14.251  23.515  0.00  0.00    +0.000 A 
ATOM     14  C   UNL     1      -0.820  13.313  22.887  0.00  0.00    +0.000 A 
ATOM     15  C   UNL     1      -1.230  11.984  22.739  0.00  0.00    +0.000 A 
ATOM     16  C   UNL     1      -2.486  11.602  23.227  0.00  0.00    +0.000 A 
ATOM     17  C   UNL     1      -3.303  12.538  23.865  0.00  0.00    +0.000 A 
BRANCH  12  19
ATOM     18  C   UNL     1      -4.258  15.810  23.944  0.00  0.00    +0.000 C 
ATOM     19  O   UNL     1      -3.746  14.710  24.684  0.00  0.00    +0.000 OA
ENDBRANCH  12  19
BRANCH  14  20
ATOM     20  O   UNL     1       0.413  13.694  22.430  0.00  0.00    +0.000 OA
ATOM     21  H   UNL     1       1.083  13.455  23.092  0.00  0.00    +0.000 HD
ENDBRANCH  14  20
BRANCH  17  22
ATOM     22  O   UNL     1      -4.524  12.149  24.354  0.00  0.00    +0.000 OA
ATOM     23  H   UNL     1      -4.621  11.189  24.237  0.00  0.00    +0.000 HD
ENDBRANCH  17  22
ENDBRANCH   1  15
BRANCH   6  24
ATOM     24  O   UNL     1       2.777   6.592  18.656  0.00  0.00    +0.000 OA
ATOM     25  H   UNL     1       2.831   6.678  17.689  0.00  0.00    +0.000 HD
ENDBRANCH   6  24
BRANCH   8  26
ATOM     26  O   UNL     1       0.803  10.818  17.876  0.00  0.00    +0.000 OA
ATOM     27  H   UNL     1       0.263  10.460  17.152  0.00  0.00    +0.000 HD
ENDBRANCH   8  26
TORSDOF 6
ENDMDL
MODEL 9
REMARK VINA RESULT:      -6.5      1.785      7.718
REMARK  Name = 
REMARK  7 active torsions:
REMARK  status: ('A' for Active; 'I' for Inactive)
REMARK    1  A    between atoms: C_1  and  O_2
REMARK    2  A    between atoms: O_2  and  C_3
REMARK    3  A    between atoms: C_5  and  O_6
REMARK    4  A    between atoms: C_7  and  C_8
REMARK    5  A    between atoms: C_13  and  O_14
REMARK    6  A    between atoms: C_16  and  O_17
REMARK    7  A    between atoms: C_22  and  O_23
REMARK                            x       y       z     vdW  Elec       q    Type
REMARK                         _______ _______ _______ _____ _____    ______ ____
ROOT
ATOM      1  C   UNL     1       1.899   8.187  19.258  0.00  0.00    +0.000 A 
ATOM      2  C   UNL     1       2.589   8.543  18.168  0.00  0.00    +0.000 A 
ATOM      3  O   UNL     1       3.486   7.763  17.488  0.00  0.00    +0.000 OA
ATOM      4  C   UNL     1       3.763   6.519  17.998  0.00  0.00    +0.000 A 
ATOM      5  C   UNL     1       4.765   5.800  17.335  0.00  0.00    +0.000 A 
ATOM      6  C   UNL     1       5.117   4.541  17.802  0.00  0.00    +0.000 A 
ATOM      7  C   UNL     1       4.477   3.983  18.902  0.00  0.00    +0.000 A 
ATOM      8  C   UNL     1       3.474   4.701  19.558  0.00  0.00    +0.000 A 
ATOM      9  C   UNL     1       3.111   5.981  19.115  0.00  0.00    +0.000 A 
ATOM     10  C   UNL     1       2.084   6.812  19.795  0.00  0.00    +0.000 A 
ATOM     11  O   UNL     1       1.438   6.427  20.760  0.00  0.00    +0.000 OA
ENDROOT
BRANCH   1  15
ATOM     12  C   UNL     1      -0.770  10.966  21.138  0.00  0.00    +0.000 A 
ATOM     13  C   UNL     1       0.205  10.309  21.896  0.00  0.00    +0.000 A 
ATOM     14  C   UNL     1       1.077   9.402  21.288  0.00  0.00    +0.000 A 
ATOM     15  C   UNL     1       1.007   9.150  19.914  0.00  0.00    +0.000 A 
ATOM     16  C   UNL     1       0.049   9.825  19.147  0.00  0.00    +0.000 A 
ATOM     17  C   UNL     1      -0.830  10.723  19.757  0.00  0.00    +0.000 A 
BRANCH  12  19
ATOM     18  C   UNL     1      -1.763  11.937  23.068  0.00  0.00    +0.000 C 
ATOM     19  O   UNL     1      -1.687  11.846  21.652  0.00  0.00    +0.000 OA
ENDBRANCH  12  19
BRANCH  14  20
ATOM     20  O   UNL     1       1.998   8.735  22.051  0.00  0.00    +0.000 OA
ATOM     21  H   UNL     1       2.321   7.966  21.554  0.00  0.00    +0.000 HD
ENDBRANCH  14  20
BRANCH  17  22
ATOM     22  O   UNL     1      -1.775  11.366  18.999  0.00  0.00    +0.000 OA
ATOM     23  H   UNL     1      -1.348  12.082  18.501  0.00  0.00    +0.000 HD
ENDBRANCH  17  22
ENDBRANCH   1  15
BRANCH   6  24
ATOM     24  O   UNL     1       6.102   3.810  17.207  0.00  0.00    +0.000 OA
ATOM     25  H   UNL     1       6.964   4.213  17.404  0.00  0.00    +0.000 HD
ENDBRANCH   6  24
BRANCH   8  26
ATOM     26  O   UNL     1       2.869   4.136  20.643  0.00  0.00    +0.000 OA
ATOM     27  H   UNL     1       1.969   3.850  20.418  0.00  0.00    +0.000 HD
ENDBRANCH   8  26
TORSDOF 6
ENDMDL
