MODEL 1
REMARK VINA RESULT:      -7.7      0.000      0.000
REMARK  Name = 
REMARK  3 active torsions:
REMARK  status: ('A' for Active; 'I' for Inactive)
REMARK    1  A    between atoms: C_2  and  C_12
REMARK    2  A    between atoms: N_3  and  C_4
REMARK    3  A    between atoms: C_4  and  C_5
REMARK                            x       y       z     vdW  Elec       q    Type
REMARK                         _______ _______ _______ _____ _____    ______ ____
ROOT
ATOM      1  O   UNL     1       5.007   6.252  17.059  0.00  0.00    +0.000 OA
ATOM      2  C   UNL     1       5.789   5.337  16.827  0.00  0.00    +0.000 C 
ATOM      3  N   UNL     1       6.017   4.324  17.722  0.00  0.00    +0.000 N 
ATOM      4  H   UNL     1       6.689   3.613  17.451  0.00  0.00    +0.000 HD
ENDROOT
BRANCH   2   5
ATOM      5  C   UNL     1       6.538   5.256  15.563  0.00  0.00    +0.000 A 
ATOM      6  N   UNL     1       7.720   5.872  15.338  0.00  0.00    +0.000 NA
ATOM      7  N   UNL     1       8.056   5.499  14.079  0.00  0.00    +0.000 N 
ATOM      8  C   UNL     1       7.144   4.665  13.505  0.00  0.00    +0.000 A 
ATOM      9  C   UNL     1       6.133   4.520  14.421  0.00  0.00    +0.000 A 
ATOM     10  C   UNL     1       4.910   3.716  14.165  0.00  0.00    +0.000 C 
ATOM     11  C   UNL     1       4.724   3.524  12.650  0.00  0.00    +0.000 C 
ATOM     12  C   UNL     1       6.032   3.047  11.987  0.00  0.00    +0.000 C 
ATOM     13  C   UNL     1       7.186   4.068  12.146  0.00  0.00    +0.000 C 
ATOM     14  H   UNL     1       8.917   5.858  13.680  0.00  0.00    +0.000 HD
ENDBRANCH   2   5
BRANCH   3  15
ATOM     15  C   UNL     1       5.321   4.274  18.982  0.00  0.00    +0.000 C 
BRANCH  15  16
ATOM     16  C   UNL     1       3.946   3.681  18.833  0.00  0.00    +0.000 A 
ATOM     17  C   UNL     1       3.716   2.648  17.908  0.00  0.00    +0.000 A 
ATOM     18  C   UNL     1       2.443   2.092  17.774  0.00  0.00    +0.000 A 
ATOM     19  C   UNL     1       1.400   2.574  18.555  0.00  0.00    +0.000 A 
ATOM     20  F   UNL     1       0.177   2.045  18.425  0.00  0.00    +0.000 F 
ATOM     21  C   UNL     1       1.605   3.602  19.467  0.00  0.00    +0.000 A 
ATOM     22  C   UNL     1       2.878   4.159  19.605  0.00  0.00    +0.000 A 
ENDBRANCH  15  16
ENDBRANCH   3  15
TORSDOF 3
ENDMDL
MODEL 2
REMARK VINA RESULT:      -7.7      3.425      6.926
REMARK  Name = 
REMARK  3 active torsions:
REMARK  status: ('A' for Active; 'I' for Inactive)
REMARK    1  A    between atoms: C_2  and  C_12
REMARK    2  A    between atoms: N_3  and  C_4
REMARK    3  A    between atoms: C_4  and  C_5
REMARK                            x       y       z     vdW  Elec       q    Type
REMARK                         _______ _______ _______ _____ _____    ______ ____
ROOT
ATOM      1  O   UNL     1       3.945   5.069  16.522  0.00  0.00    +0.000 OA
ATOM      2  C   UNL     1       4.247   3.994  17.026  0.00  0.00    +0.000 C 
ATOM      3  N   UNL     1       5.499   3.450  16.895  0.00  0.00    +0.000 N 
ATOM      4  H   UNL     1       5.659   2.550  17.338  0.00  0.00    +0.000 HD
ENDROOT
BRANCH   2   5
ATOM      5  C   UNL     1       3.287   3.207  17.817  0.00  0.00    +0.000 A 
ATOM      6  N   UNL     1       2.693   2.072  17.383  0.00  0.00    +0.000 NA
ATOM      7  N   UNL     1       1.930   1.675  18.430  0.00  0.00    +0.000 N 
ATOM      8  C   UNL     1       2.027   2.501  19.509  0.00  0.00    +0.000 A 
ATOM      9  C   UNL     1       2.863   3.521  19.132  0.00  0.00    +0.000 A 
ATOM     10  C   UNL     1       3.199   4.668  20.015  0.00  0.00    +0.000 C 
ATOM     11  C   UNL     1       2.138   4.797  21.122  0.00  0.00    +0.000 C 
ATOM     12  C   UNL     1       1.878   3.438  21.802  0.00  0.00    +0.000 C 
ATOM     13  C   UNL     1       1.333   2.375  20.816  0.00  0.00    +0.000 C 
ATOM     14  H   UNL     1       1.369   0.835  18.331  0.00  0.00    +0.000 HD
ENDBRANCH   2   5
BRANCH   3  15
ATOM     15  C   UNL     1       6.537   4.139  16.172  0.00  0.00    +0.000 C 
BRANCH  15  16
ATOM     16  C   UNL     1       7.101   5.285  16.968  0.00  0.00    +0.000 A 
ATOM     17  C   UNL     1       7.601   5.070  18.264  0.00  0.00    +0.000 A 
ATOM     18  C   UNL     1       8.131   6.131  19.000  0.00  0.00    +0.000 A 
ATOM     19  C   UNL     1       8.152   7.405  18.446  0.00  0.00    +0.000 A 
ATOM     20  F   UNL     1       8.657   8.425  19.152  0.00  0.00    +0.000 F 
ATOM     21  C   UNL     1       7.652   7.639  17.170  0.00  0.00    +0.000 A 
ATOM     22  C   UNL     1       7.124   6.580  16.431  0.00  0.00    +0.000 A 
ENDBRANCH  15  16
ENDBRANCH   3  15
TORSDOF 3
ENDMDL
MODEL 3
REMARK VINA RESULT:      -7.6      3.385      6.916
REMARK  Name = 
REMARK  3 active torsions:
REMARK  status: ('A' for Active; 'I' for Inactive)
REMARK    1  A    between atoms: C_2  and  C_12
REMARK    2  A    between atoms: N_3  and  C_4
REMARK    3  A    between atoms: C_4  and  C_5
REMARK                            x       y       z     vdW  Elec       q    Type
REMARK                         _______ _______ _______ _____ _____    ______ ____
ROOT
ATOM      1  O   UNL     1       3.963   5.191  16.688  0.00  0.00    +0.000 OA
ATOM      2  C   UNL     1       4.232   4.055  17.060  0.00  0.00    +0.000 C 
ATOM      3  N   UNL     1       5.441   3.464  16.795  0.00  0.00    +0.000 N 
ATOM      4  H   UNL     1       5.574   2.516  17.133  0.00  0.00    +0.000 HD
ENDROOT
BRANCH   2   5
ATOM      5  C   UNL     1       3.275   3.240  17.826  0.00  0.00    +0.000 A 
ATOM      6  N   UNL     1       2.693   2.111  17.361  0.00  0.00    +0.000 NA
ATOM      7  N   UNL     1       1.929   1.681  18.394  0.00  0.00    +0.000 N 
ATOM      8  C   UNL     1       2.016   2.479  19.495  0.00  0.00    +0.000 A 
ATOM      9  C   UNL     1       2.844   3.516  19.148  0.00  0.00    +0.000 A 
ATOM     10  C   UNL     1       3.166   4.643  20.061  0.00  0.00    +0.000 C 
ATOM     11  C   UNL     1       2.100   4.734  21.167  0.00  0.00    +0.000 C 
ATOM     12  C   UNL     1       1.850   3.356  21.810  0.00  0.00    +0.000 C 
ATOM     13  C   UNL     1       1.317   2.314  20.795  0.00  0.00    +0.000 C 
ATOM     14  H   UNL     1       1.377   0.838  18.271  0.00  0.00    +0.000 HD
ENDBRANCH   2   5
BRANCH   3  15
ATOM     15  C   UNL     1       6.473   4.171  16.081  0.00  0.00    +0.000 C 
BRANCH  15  16
ATOM     16  C   UNL     1       7.062   5.280  16.910  0.00  0.00    +0.000 A 
ATOM     17  C   UNL     1       7.122   6.589  16.403  0.00  0.00    +0.000 A 
ATOM     18  C   UNL     1       7.661   7.620  17.173  0.00  0.00    +0.000 A 
ATOM     19  C   UNL     1       8.149   7.341  18.444  0.00  0.00    +0.000 A 
ATOM     20  F   UNL     1       8.670   8.329  19.183  0.00  0.00    +0.000 F 
ATOM     21  C   UNL     1       8.107   6.051  18.959  0.00  0.00    +0.000 A 
ATOM     22  C   UNL     1       7.566   5.018  18.192  0.00  0.00    +0.000 A 
ENDBRANCH  15  16
ENDBRANCH   3  15
TORSDOF 3
ENDMDL
MODEL 4
REMARK VINA RESULT:      -7.6      0.132      1.088
REMARK  Name = 
REMARK  3 active torsions:
REMARK  status: ('A' for Active; 'I' for Inactive)
REMARK    1  A    between atoms: C_2  and  C_12
REMARK    2  A    between atoms: N_3  and  C_4
REMARK    3  A    between atoms: C_4  and  C_5
REMARK                            x       y       z     vdW  Elec       q    Type
REMARK                         _______ _______ _______ _____ _____    ______ ____
ROOT
ATOM      1  O   UNL     1       4.857   6.161  16.881  0.00  0.00    +0.000 OA
ATOM      2  C   UNL     1       5.737   5.324  16.722  0.00  0.00    +0.000 C 
ATOM      3  N   UNL     1       6.070   4.417  17.695  0.00  0.00    +0.000 N 
ATOM      4  H   UNL     1       6.819   3.765  17.481  0.00  0.00    +0.000 HD
ENDROOT
BRANCH   2   5
ATOM      5  C   UNL     1       6.501   5.226  15.468  0.00  0.00    +0.000 A 
ATOM      6  N   UNL     1       7.699   5.818  15.258  0.00  0.00    +0.000 NA
ATOM      7  N   UNL     1       8.043   5.438  14.004  0.00  0.00    +0.000 N 
ATOM      8  C   UNL     1       7.122   4.621  13.419  0.00  0.00    +0.000 A 
ATOM      9  C   UNL     1       6.096   4.498  14.321  0.00  0.00    +0.000 A 
ATOM     10  C   UNL     1       4.860   3.718  14.049  0.00  0.00    +0.000 C 
ATOM     11  C   UNL     1       4.691   3.530  12.532  0.00  0.00    +0.000 C 
ATOM     12  C   UNL     1       5.997   3.026  11.887  0.00  0.00    +0.000 C 
ATOM     13  C   UNL     1       7.169   4.023  12.060  0.00  0.00    +0.000 C 
ATOM     14  H   UNL     1       8.916   5.778  13.616  0.00  0.00    +0.000 HD
ENDBRANCH   2   5
BRANCH   3  15
ATOM     15  C   UNL     1       5.373   4.389  18.955  0.00  0.00    +0.000 C 
BRANCH  15  16
ATOM     16  C   UNL     1       4.002   3.784  18.819  0.00  0.00    +0.000 A 
ATOM     17  C   UNL     1       2.914   4.327  19.524  0.00  0.00    +0.000 A 
ATOM     18  C   UNL     1       1.640   3.771  19.393  0.00  0.00    +0.000 A 
ATOM     19  C   UNL     1       1.456   2.670  18.566  0.00  0.00    +0.000 A 
ATOM     20  F   UNL     1       0.236   2.133  18.442  0.00  0.00    +0.000 F 
ATOM     21  C   UNL     1       2.522   2.113  17.868  0.00  0.00    +0.000 A 
ATOM     22  C   UNL     1       3.796   2.667  17.996  0.00  0.00    +0.000 A 
ENDBRANCH  15  16
ENDBRANCH   3  15
TORSDOF 3
ENDMDL
MODEL 5
REMARK VINA RESULT:      -7.4      6.022      8.010
REMARK  Name = 
REMARK  3 active torsions:
REMARK  status: ('A' for Active; 'I' for Inactive)
REMARK    1  A    between atoms: C_2  and  C_12
REMARK    2  A    between atoms: N_3  and  C_4
REMARK    3  A    between atoms: C_4  and  C_5
REMARK                            x       y       z     vdW  Elec       q    Type
REMARK                         _______ _______ _______ _____ _____    ______ ____
ROOT
ATOM      1  O   UNL     1       2.054   9.178  17.454  0.00  0.00    +0.000 OA
ATOM      2  C   UNL     1       1.582   9.087  18.581  0.00  0.00    +0.000 C 
ATOM      3  N   UNL     1       1.912   8.065  19.434  0.00  0.00    +0.000 N 
ATOM      4  H   UNL     1       1.465   8.063  20.346  0.00  0.00    +0.000 HD
ENDROOT
BRANCH   2   5
ATOM      5  C   UNL     1       0.626  10.075  19.107  0.00  0.00    +0.000 A 
ATOM      6  N   UNL     1       0.863  10.868  20.177  0.00  0.00    +0.000 NA
ATOM      7  N   UNL     1      -0.253  11.631  20.279  0.00  0.00    +0.000 N 
ATOM      8  C   UNL     1      -1.176  11.363  19.313  0.00  0.00    +0.000 A 
ATOM      9  C   UNL     1      -0.657  10.336  18.565  0.00  0.00    +0.000 A 
ATOM     10  C   UNL     1      -1.379   9.711  17.427  0.00  0.00    +0.000 C 
ATOM     11  C   UNL     1      -2.885  10.006  17.544  0.00  0.00    +0.000 C 
ATOM     12  C   UNL     1      -3.136  11.506  17.798  0.00  0.00    +0.000 C 
ATOM     13  C   UNL     1      -2.505  11.998  19.124  0.00  0.00    +0.000 C 
ATOM     14  H   UNL     1      -0.312  12.306  21.033  0.00  0.00    +0.000 HD
ENDBRANCH   2   5
BRANCH   3  15
ATOM     15  C   UNL     1       2.861   7.053  19.048  0.00  0.00    +0.000 C 
BRANCH  15  16
ATOM     16  C   UNL     1       2.241   5.682  19.043  0.00  0.00    +0.000 A 
ATOM     17  C   UNL     1       2.178   4.936  17.854  0.00  0.00    +0.000 A 
ATOM     18  C   UNL     1       1.610   3.662  17.849  0.00  0.00    +0.000 A 
ATOM     19  C   UNL     1       1.096   3.138  19.029  0.00  0.00    +0.000 A 
ATOM     20  F   UNL     1       0.546   1.917  19.026  0.00  0.00    +0.000 F 
ATOM     21  C   UNL     1       1.139   3.864  20.213  0.00  0.00    +0.000 A 
ATOM     22  C   UNL     1       1.709   5.138  20.221  0.00  0.00    +0.000 A 
ENDBRANCH  15  16
ENDBRANCH   3  15
TORSDOF 3
ENDMDL
MODEL 6
REMARK VINA RESULT:      -7.3      6.160      8.197
REMARK  Name = 
REMARK  3 active torsions:
REMARK  status: ('A' for Active; 'I' for Inactive)
REMARK    1  A    between atoms: C_2  and  C_12
REMARK    2  A    between atoms: N_3  and  C_4
REMARK    3  A    between atoms: C_4  and  C_5
REMARK                            x       y       z     vdW  Elec       q    Type
REMARK                         _______ _______ _______ _____ _____    ______ ____
ROOT
ATOM      1  O   UNL     1       2.043   9.511  17.410  0.00  0.00    +0.000 OA
ATOM      2  C   UNL     1       1.490   9.331  18.488  0.00  0.00    +0.000 C 
ATOM      3  N   UNL     1       1.764   8.244  19.278  0.00  0.00    +0.000 N 
ATOM      4  H   UNL     1       1.251   8.169  20.152  0.00  0.00    +0.000 HD
ENDROOT
BRANCH   2   5
ATOM      5  C   UNL     1       0.492  10.273  19.019  0.00  0.00    +0.000 A 
ATOM      6  N   UNL     1       0.709  11.102  20.065  0.00  0.00    +0.000 NA
ATOM      7  N   UNL     1      -0.446  11.800  20.181  0.00  0.00    +0.000 N 
ATOM      8  C   UNL     1      -1.376  11.459  19.246  0.00  0.00    +0.000 A 
ATOM      9  C   UNL     1      -0.818  10.448  18.507  0.00  0.00    +0.000 A 
ATOM     10  C   UNL     1      -1.531   9.756  17.401  0.00  0.00    +0.000 C 
ATOM     11  C   UNL     1      -3.047   9.967  17.552  0.00  0.00    +0.000 C 
ATOM     12  C   UNL     1      -3.380  11.455  17.782  0.00  0.00    +0.000 C 
ATOM     13  C   UNL     1      -2.745  12.012  19.080  0.00  0.00    +0.000 C 
ATOM     14  H   UNL     1      -0.525  12.488  20.924  0.00  0.00    +0.000 HD
ENDBRANCH   2   5
BRANCH   3  15
ATOM     15  C   UNL     1       2.745   7.266  18.884  0.00  0.00    +0.000 C 
BRANCH  15  16
ATOM     16  C   UNL     1       2.213   5.864  19.007  0.00  0.00    +0.000 A 
ATOM     17  C   UNL     1       1.774   5.378  20.251  0.00  0.00    +0.000 A 
ATOM     18  C   UNL     1       1.274   4.081  20.365  0.00  0.00    +0.000 A 
ATOM     19  C   UNL     1       1.221   3.267  19.240  0.00  0.00    +0.000 A 
ATOM     20  F   UNL     1       0.745   2.020  19.347  0.00  0.00    +0.000 F 
ATOM     21  C   UNL     1       1.660   3.726  18.003  0.00  0.00    +0.000 A 
ATOM     22  C   UNL     1       2.158   5.024  17.886  0.00  0.00    +0.000 A 
ENDBRANCH  15  16
ENDBRANCH   3  15
TORSDOF 3
ENDMDL
MODEL 7
REMARK VINA RESULT:      -7.3      1.113      1.176
REMARK  Name = 
REMARK  3 active torsions:
REMARK  status: ('A' for Active; 'I' for Inactive)
REMARK    1  A    between atoms: C_2  and  C_12
REMARK    2  A    between atoms: N_3  and  C_4
REMARK    3  A    between atoms: C_4  and  C_5
REMARK                            x       y       z     vdW  Elec       q    Type
REMARK                         _______ _______ _______ _____ _____    ______ ____
ROOT
ATOM      1  O   UNL     1       6.784   4.285  17.813  0.00  0.00    +0.000 OA
ATOM      2  C   UNL     1       6.281   4.975  16.934  0.00  0.00    +0.000 C 
ATOM      3  N   UNL     1       5.132   5.696  17.137  0.00  0.00    +0.000 N 
ATOM      4  H   UNL     1       4.780   6.232  16.350  0.00  0.00    +0.000 HD
ENDROOT
BRANCH   2   5
ATOM      5  C   UNL     1       6.877   5.084  15.593  0.00  0.00    +0.000 A 
ATOM      6  N   UNL     1       7.969   5.828  15.305  0.00  0.00    +0.000 NA
ATOM      7  N   UNL     1       8.180   5.609  13.984  0.00  0.00    +0.000 N 
ATOM      8  C   UNL     1       7.279   4.750  13.431  0.00  0.00    +0.000 A 
ATOM      9  C   UNL     1       6.400   4.425  14.433  0.00  0.00    +0.000 A 
ATOM     10  C   UNL     1       5.226   3.536  14.231  0.00  0.00    +0.000 C 
ATOM     11  C   UNL     1       4.877   3.472  12.734  0.00  0.00    +0.000 C 
ATOM     12  C   UNL     1       6.131   3.186  11.884  0.00  0.00    +0.000 C 
ATOM     13  C   UNL     1       7.206   4.292  12.020  0.00  0.00    +0.000 C 
ATOM     14  H   UNL     1       8.955   6.084  13.531  0.00  0.00    +0.000 HD
ENDBRANCH   2   5
BRANCH   3  15
ATOM     15  C   UNL     1       4.471   5.697  18.417  0.00  0.00    +0.000 C 
BRANCH  15  16
ATOM     16  C   UNL     1       3.398   4.644  18.489  0.00  0.00    +0.000 A 
ATOM     17  C   UNL     1       3.626   3.447  19.189  0.00  0.00    +0.000 A 
ATOM     18  C   UNL     1       2.630   2.473  19.263  0.00  0.00    +0.000 A 
ATOM     19  C   UNL     1       1.412   2.690  18.630  0.00  0.00    +0.000 A 
ATOM     20  F   UNL     1       0.456   1.754  18.697  0.00  0.00    +0.000 F 
ATOM     21  C   UNL     1       1.172   3.863  17.924  0.00  0.00    +0.000 A 
ATOM     22  C   UNL     1       2.165   4.840  17.850  0.00  0.00    +0.000 A 
ENDBRANCH  15  16
ENDBRANCH   3  15
TORSDOF 3
ENDMDL
MODEL 8
REMARK VINA RESULT:      -7.3      2.665      6.326
REMARK  Name = 
REMARK  3 active torsions:
REMARK  status: ('A' for Active; 'I' for Inactive)
REMARK    1  A    between atoms: C_2  and  C_12
REMARK    2  A    between atoms: N_3  and  C_4
REMARK    3  A    between atoms: C_4  and  C_5
REMARK                            x       y       z     vdW  Elec       q    Type
REMARK                         _______ _______ _______ _____ _____    ______ ____
ROOT
ATOM      1  O   UNL     1       4.163   7.176  16.970  0.00  0.00    +0.000 OA
ATOM      2  C   UNL     1       4.410   6.195  17.660  0.00  0.00    +0.000 C 
ATOM      3  N   UNL     1       5.581   5.492  17.540  0.00  0.00    +0.000 N 
ATOM      4  H   UNL     1       5.698   4.685  18.145  0.00  0.00    +0.000 HD
ENDROOT
BRANCH   2   5
ATOM      5  C   UNL     1       3.467   5.700  18.675  0.00  0.00    +0.000 A 
ATOM      6  N   UNL     1       3.208   6.329  19.844  0.00  0.00    +0.000 NA
ATOM      7  N   UNL     1       2.272   5.551  20.440  0.00  0.00    +0.000 N 
ATOM      8  C   UNL     1       1.919   4.468  19.693  0.00  0.00    +0.000 A 
ATOM      9  C   UNL     1       2.702   4.512  18.567  0.00  0.00    +0.000 A 
ATOM     10  C   UNL     1       2.660   3.475  17.504  0.00  0.00    +0.000 C 
ATOM     11  C   UNL     1       2.044   2.182  18.066  0.00  0.00    +0.000 C 
ATOM     12  C   UNL     1       0.729   2.474  18.816  0.00  0.00    +0.000 C 
ATOM     13  C   UNL     1       0.935   3.409  20.034  0.00  0.00    +0.000 C 
ATOM     14  H   UNL     1       1.926   5.823  21.355  0.00  0.00    +0.000 HD
ENDBRANCH   2   5
BRANCH   3  15
ATOM     15  C   UNL     1       6.599   5.896  16.604  0.00  0.00    +0.000 C 
BRANCH  15  16
ATOM     16  C   UNL     1       6.492   5.140  15.307  0.00  0.00    +0.000 A 
ATOM     17  C   UNL     1       5.440   4.232  15.100  0.00  0.00    +0.000 A 
ATOM     18  C   UNL     1       5.336   3.535  13.895  0.00  0.00    +0.000 A 
ATOM     19  C   UNL     1       6.287   3.739  12.903  0.00  0.00    +0.000 A 
ATOM     20  F   UNL     1       6.191   3.070  11.747  0.00  0.00    +0.000 F 
ATOM     21  C   UNL     1       7.341   4.626  13.093  0.00  0.00    +0.000 A 
ATOM     22  C   UNL     1       7.446   5.325  14.296  0.00  0.00    +0.000 A 
ENDBRANCH  15  16
ENDBRANCH   3  15
TORSDOF 3
ENDMDL
MODEL 9
REMARK VINA RESULT:      -7.3      2.649      6.284
REMARK  Name = 
REMARK  3 active torsions:
REMARK  status: ('A' for Active; 'I' for Inactive)
REMARK    1  A    between atoms: C_2  and  C_12
REMARK    2  A    between atoms: N_3  and  C_4
REMARK    3  A    between atoms: C_4  and  C_5
REMARK                            x       y       z     vdW  Elec       q    Type
REMARK                         _______ _______ _______ _____ _____    ______ ____
ROOT
ATOM      1  O   UNL     1       4.278   7.107  16.858  0.00  0.00    +0.000 OA
ATOM      2  C   UNL     1       4.509   6.149  17.586  0.00  0.00    +0.000 C 
ATOM      3  N   UNL     1       5.678   5.437  17.510  0.00  0.00    +0.000 N 
ATOM      4  H   UNL     1       5.781   4.652  18.146  0.00  0.00    +0.000 HD
ENDROOT
BRANCH   2   5
ATOM      5  C   UNL     1       3.548   5.696  18.604  0.00  0.00    +0.000 A 
ATOM      6  N   UNL     1       3.297   6.352  19.760  0.00  0.00    +0.000 NA
ATOM      7  N   UNL     1       2.338   5.608  20.363  0.00  0.00    +0.000 N 
ATOM      8  C   UNL     1       1.963   4.521  19.633  0.00  0.00    +0.000 A 
ATOM      9  C   UNL     1       2.753   4.526  18.511  0.00  0.00    +0.000 A 
ATOM     10  C   UNL     1       2.692   3.472  17.466  0.00  0.00    +0.000 C 
ATOM     11  C   UNL     1       2.040   2.204  18.047  0.00  0.00    +0.000 C 
ATOM     12  C   UNL     1       0.729   2.543  18.783  0.00  0.00    +0.000 C 
ATOM     13  C   UNL     1       0.951   3.493  19.986  0.00  0.00    +0.000 C 
ATOM     14  H   UNL     1       1.993   5.905  21.271  0.00  0.00    +0.000 HD
ENDBRANCH   2   5
BRANCH   3  15
ATOM     15  C   UNL     1       6.712   5.802  16.576  0.00  0.00    +0.000 C 
BRANCH  15  16
ATOM     16  C   UNL     1       6.559   5.076  15.267  0.00  0.00    +0.000 A 
ATOM     17  C   UNL     1       7.482   5.287  14.228  0.00  0.00    +0.000 A 
ATOM     18  C   UNL     1       7.346   4.609  13.015  0.00  0.00    +0.000 A 
ATOM     19  C   UNL     1       6.285   3.730  12.839  0.00  0.00    +0.000 A 
ATOM     20  F   UNL     1       6.151   3.081  11.675  0.00  0.00    +0.000 F 
ATOM     21  C   UNL     1       5.357   3.515  13.851  0.00  0.00    +0.000 A 
ATOM     22  C   UNL     1       5.491   4.190  15.065  0.00  0.00    +0.000 A 
ENDBRANCH  15  16
ENDBRANCH   3  15
TORSDOF 3
ENDMDL
