MODEL 1
REMARK VINA RESULT:      -8.4      0.000      0.000
REMARK  Name = 
REMARK  4 active torsions:
REMARK  status: ('A' for Active; 'I' for Inactive)
REMARK    1  A    between atoms: C_2  and  C_10
REMARK    2  A    between atoms: C_15  and  C_16
REMARK    3  A    between atoms: N_18  and  C_19
REMARK    4  A    between atoms: C_19  and  C_20
REMARK                            x       y       z     vdW  Elec       q    Type
REMARK                         _______ _______ _______ _____ _____    ______ ____
ROOT
ATOM      1  C   UNL     1       2.526   5.246  19.300  0.00  0.00    +0.000 C 
ATOM      2  C   UNL     1       1.441   4.170  19.021  0.00  0.00    +0.000 C 
ATOM      3  C   UNL     1       0.645   3.877  20.314  0.00  0.00    +0.000 C 
ATOM      4  C   UNL     1       1.682   3.160  21.213  0.00  0.00    +0.000 C 
ATOM      5  C   UNL     1       2.932   3.052  20.303  0.00  0.00    +0.000 C 
ATOM      6  C   UNL     1       3.562   4.472  20.199  0.00  0.00    +0.000 C 
ATOM      7  C   UNL     1       2.275   2.923  18.960  0.00  0.00    +0.000 C 
ATOM      8  C   UNL     1       1.770   1.620  18.402  0.00  0.00    +0.000 C 
ATOM      9  C   UNL     1       2.918   2.346  17.733  0.00  0.00    +0.000 C 
ENDROOT
BRANCH   1  11
ATOM     10  O   UNL     1       1.482   6.520  21.054  0.00  0.00    +0.000 OA
ATOM     11  C   UNL     1       1.968   6.523  19.923  0.00  0.00    +0.000 C 
ATOM     12  N   UNL     1       2.043   7.609  19.079  0.00  0.00    +0.000 N 
ATOM     13  C   UNL     1       1.589   8.846  19.442  0.00  0.00    +0.000 A 
ATOM     14  N   UNL     1       1.305   9.317  20.630  0.00  0.00    +0.000 NA
ATOM     15  C   UNL     1       0.773  10.589  20.501  0.00  0.00    +0.000 A 
ATOM     16  C   UNL     1       0.661  11.032  19.207  0.00  0.00    +0.000 A 
ATOM     17 BR   UNL     1      -0.132  12.643  18.698  0.00  0.00    +0.000 Br
ATOM     18  S   UNL     1       1.327   9.907  18.122  0.00  0.00    +0.000 S 
ATOM     19  H   UNL     1       2.265   7.490  18.098  0.00  0.00    +0.000 HD
ENDBRANCH   1  11
BRANCH   6  20
ATOM     20  C   UNL     1       4.945   4.465  19.551  0.00  0.00    +0.000 C 
ATOM     21  O   UNL     1       5.602   3.448  19.383  0.00  0.00    +0.000 OA
ATOM     22  N   UNL     1       5.386   5.697  19.110  0.00  0.00    +0.000 N 
ATOM     23  H   UNL     1       4.882   6.534  19.374  0.00  0.00    +0.000 HD
BRANCH  22  24
ATOM     24  C   UNL     1       6.681   5.844  18.475  0.00  0.00    +0.000 C 
BRANCH  24  25
ATOM     25  C   UNL     1       6.620   6.416  17.041  0.00  0.00    +0.000 C 
ATOM     26  C   UNL     1       7.379   5.578  16.001  0.00  0.00    +0.000 C 
ATOM     27  C   UNL     1       6.714   4.216  15.816  0.00  0.00    +0.000 C 
ATOM     28  C   UNL     1       5.238   4.382  15.451  0.00  0.00    +0.000 C 
ATOM     29  N   UNL     1       4.498   5.234  16.386  0.00  0.00    +0.000 NA
ATOM     30  C   UNL     1       5.153   6.534  16.586  0.00  0.00    +0.000 C 
ATOM     31  H   UNL     1       4.395   4.755  17.279  0.00  0.00    +0.000 HD
ENDBRANCH  24  25
ENDBRANCH  22  24
ENDBRANCH   6  20
TORSDOF 4
ENDMDL
MODEL 2
REMARK VINA RESULT:      -8.1      1.024      1.385
REMARK  Name = 
REMARK  4 active torsions:
REMARK  status: ('A' for Active; 'I' for Inactive)
REMARK    1  A    between atoms: C_2  and  C_10
REMARK    2  A    between atoms: C_15  and  C_16
REMARK    3  A    between atoms: N_18  and  C_19
REMARK    4  A    between atoms: C_19  and  C_20
REMARK                            x       y       z     vdW  Elec       q    Type
REMARK                         _______ _______ _______ _____ _____    ______ ____
ROOT
ATOM      1  C   UNL     1       2.458   5.505  19.222  0.00  0.00    +0.000 C 
ATOM      2  C   UNL     1       1.466   4.312  19.138  0.00  0.00    +0.000 C 
ATOM      3  C   UNL     1       0.934   3.969  20.549  0.00  0.00    +0.000 C 
ATOM      4  C   UNL     1       2.179   3.392  21.266  0.00  0.00    +0.000 C 
ATOM      5  C   UNL     1       3.265   3.395  20.159  0.00  0.00    +0.000 C 
ATOM      6  C   UNL     1       3.707   4.871  19.939  0.00  0.00    +0.000 C 
ATOM      7  C   UNL     1       2.411   3.161  18.947  0.00  0.00    +0.000 C 
ATOM      8  C   UNL     1       1.968   1.797  18.492  0.00  0.00    +0.000 C 
ATOM      9  C   UNL     1       2.901   2.624  17.634  0.00  0.00    +0.000 C 
ENDROOT
BRANCH   1  11
ATOM     10  O   UNL     1       1.442   6.663  21.071  0.00  0.00    +0.000 OA
ATOM     11  C   UNL     1       1.873   6.731  19.920  0.00  0.00    +0.000 C 
ATOM     12  N   UNL     1       1.859   7.851  19.117  0.00  0.00    +0.000 N 
ATOM     13  C   UNL     1       1.368   9.050  19.549  0.00  0.00    +0.000 A 
ATOM     14  N   UNL     1       1.120   9.463  20.766  0.00  0.00    +0.000 NA
ATOM     15  C   UNL     1       0.526  10.712  20.712  0.00  0.00    +0.000 A 
ATOM     16  C   UNL     1       0.333  11.198  19.443  0.00  0.00    +0.000 A 
ATOM     17 BR   UNL     1      -0.554  12.788  19.036  0.00  0.00    +0.000 Br
ATOM     18  S   UNL     1       0.996  10.147  18.285  0.00  0.00    +0.000 S 
ATOM     19  H   UNL     1       2.039   7.778  18.123  0.00  0.00    +0.000 HD
ENDBRANCH   1  11
BRANCH   6  20
ATOM     20  C   UNL     1       4.955   4.997  19.068  0.00  0.00    +0.000 C 
ATOM     21  O   UNL     1       6.036   4.512  19.371  0.00  0.00    +0.000 OA
ATOM     22  N   UNL     1       4.765   5.657  17.870  0.00  0.00    +0.000 N 
ATOM     23  H   UNL     1       3.899   6.154  17.704  0.00  0.00    +0.000 HD
BRANCH  22  24
ATOM     24  C   UNL     1       5.860   5.851  16.940  0.00  0.00    +0.000 C 
BRANCH  24  25
ATOM     25  C   UNL     1       6.570   4.546  16.519  0.00  0.00    +0.000 C 
ATOM     26  C   UNL     1       5.706   3.613  15.658  0.00  0.00    +0.000 C 
ATOM     27  C   UNL     1       5.408   4.250  14.303  0.00  0.00    +0.000 C 
ATOM     28  C   UNL     1       6.706   4.644  13.595  0.00  0.00    +0.000 C 
ATOM     29  N   UNL     1       7.588   5.478  14.416  0.00  0.00    +0.000 NA
ATOM     30  C   UNL     1       7.852   4.878  15.730  0.00  0.00    +0.000 C 
ATOM     31  H   UNL     1       7.176   6.402  14.531  0.00  0.00    +0.000 HD
ENDBRANCH  24  25
ENDBRANCH  22  24
ENDBRANCH   6  20
TORSDOF 4
ENDMDL
MODEL 3
REMARK VINA RESULT:      -7.3      0.792      1.152
REMARK  Name = 
REMARK  4 active torsions:
REMARK  status: ('A' for Active; 'I' for Inactive)
REMARK    1  A    between atoms: C_2  and  C_10
REMARK    2  A    between atoms: C_15  and  C_16
REMARK    3  A    between atoms: N_18  and  C_19
REMARK    4  A    between atoms: C_19  and  C_20
REMARK                            x       y       z     vdW  Elec       q    Type
REMARK                         _______ _______ _______ _____ _____    ______ ____
ROOT
ATOM      1  C   UNL     1       2.493   4.986  19.419  0.00  0.00    +0.000 C 
ATOM      2  C   UNL     1       1.354   4.033  18.960  0.00  0.00    +0.000 C 
ATOM      3  C   UNL     1       0.380   3.772  20.131  0.00  0.00    +0.000 C 
ATOM      4  C   UNL     1       1.225   2.924  21.112  0.00  0.00    +0.000 C 
ATOM      5  C   UNL     1       2.564   2.727  20.355  0.00  0.00    +0.000 C 
ATOM      6  C   UNL     1       3.331   4.081  20.397  0.00  0.00    +0.000 C 
ATOM      7  C   UNL     1       2.070   2.713  18.938  0.00  0.00    +0.000 C 
ATOM      8  C   UNL     1       1.519   1.488  18.261  0.00  0.00    +0.000 C 
ATOM      9  C   UNL     1       2.804   2.121  17.771  0.00  0.00    +0.000 C 
ENDROOT
BRANCH   1  11
ATOM     10  O   UNL     1       1.547   6.322  21.183  0.00  0.00    +0.000 OA
ATOM     11  C   UNL     1       1.983   6.288  20.032  0.00  0.00    +0.000 C 
ATOM     12  N   UNL     1       2.038   7.351  19.157  0.00  0.00    +0.000 N 
ATOM     13  C   UNL     1       1.620   8.604  19.507  0.00  0.00    +0.000 A 
ATOM     14  N   UNL     1       1.397   9.111  20.693  0.00  0.00    +0.000 NA
ATOM     15  C   UNL     1       0.880  10.387  20.554  0.00  0.00    +0.000 A 
ATOM     16  C   UNL     1       0.718  10.799  19.255  0.00  0.00    +0.000 A 
ATOM     17 BR   UNL     1      -0.071  12.409  18.739  0.00  0.00    +0.000 Br
ATOM     18  S   UNL     1       1.317   9.635  18.172  0.00  0.00    +0.000 S 
ATOM     19  H   UNL     1       2.215   7.202  18.171  0.00  0.00    +0.000 HD
ENDBRANCH   1  11
BRANCH   6  20
ATOM     20  C   UNL     1       4.777   3.962  19.921  0.00  0.00    +0.000 C 
ATOM     21  O   UNL     1       5.428   2.929  20.002  0.00  0.00    +0.000 OA
ATOM     22  N   UNL     1       5.292   5.100  19.332  0.00  0.00    +0.000 N 
ATOM     23  H   UNL     1       4.779   5.970  19.393  0.00  0.00    +0.000 HD
BRANCH  22  24
ATOM     24  C   UNL     1       6.652   5.135  18.833  0.00  0.00    +0.000 C 
BRANCH  24  25
ATOM     25  C   UNL     1       6.791   4.730  17.348  0.00  0.00    +0.000 C 
ATOM     26  C   UNL     1       5.475   4.279  16.698  0.00  0.00    +0.000 C 
ATOM     27  C   UNL     1       4.491   5.443  16.606  0.00  0.00    +0.000 C 
ATOM     28  C   UNL     1       5.120   6.624  15.866  0.00  0.00    +0.000 C 
ATOM     29  N   UNL     1       6.414   7.036  16.419  0.00  0.00    +0.000 NA
ATOM     30  C   UNL     1       7.350   5.911  16.533  0.00  0.00    +0.000 C 
ATOM     31  H   UNL     1       6.274   7.468  17.331  0.00  0.00    +0.000 HD
ENDBRANCH  24  25
ENDBRANCH  22  24
ENDBRANCH   6  20
TORSDOF 4
ENDMDL
MODEL 4
REMARK VINA RESULT:      -7.3      0.915      1.610
REMARK  Name = 
REMARK  4 active torsions:
REMARK  status: ('A' for Active; 'I' for Inactive)
REMARK    1  A    between atoms: C_2  and  C_10
REMARK    2  A    between atoms: C_15  and  C_16
REMARK    3  A    between atoms: N_18  and  C_19
REMARK    4  A    between atoms: C_19  and  C_20
REMARK                            x       y       z     vdW  Elec       q    Type
REMARK                         _______ _______ _______ _____ _____    ______ ____
ROOT
ATOM      1  C   UNL     1       2.405   5.000  19.199  0.00  0.00    +0.000 C 
ATOM      2  C   UNL     1       1.289   3.919  19.217  0.00  0.00    +0.000 C 
ATOM      3  C   UNL     1       0.786   3.706  20.664  0.00  0.00    +0.000 C 
ATOM      4  C   UNL     1       1.993   3.032  21.361  0.00  0.00    +0.000 C 
ATOM      5  C   UNL     1       3.022   2.863  20.215  0.00  0.00    +0.000 C 
ATOM      6  C   UNL     1       3.610   4.269  19.900  0.00  0.00    +0.000 C 
ATOM      7  C   UNL     1       2.095   2.664  19.051  0.00  0.00    +0.000 C 
ATOM      8  C   UNL     1       1.489   1.337  18.687  0.00  0.00    +0.000 C 
ATOM      9  C   UNL     1       2.466   2.014  17.750  0.00  0.00    +0.000 C 
ENDROOT
BRANCH   1  11
ATOM     10  O   UNL     1       1.641   6.357  21.034  0.00  0.00    +0.000 OA
ATOM     11  C   UNL     1       1.987   6.315  19.853  0.00  0.00    +0.000 C 
ATOM     12  N   UNL     1       2.010   7.380  18.979  0.00  0.00    +0.000 N 
ATOM     13  C   UNL     1       1.661   8.644  19.364  0.00  0.00    +0.000 A 
ATOM     14  N   UNL     1       1.546   9.151  20.565  0.00  0.00    +0.000 NA
ATOM     15  C   UNL     1       1.062  10.445  20.470  0.00  0.00    +0.000 A 
ATOM     16  C   UNL     1       0.816  10.869  19.188  0.00  0.00    +0.000 A 
ATOM     17 BR   UNL     1       0.044  12.507  18.739  0.00  0.00    +0.000 Br
ATOM     18  S   UNL     1       1.292   9.693  18.059  0.00  0.00    +0.000 S 
ATOM     19  H   UNL     1       2.106   7.232  17.982  0.00  0.00    +0.000 HD
ENDBRANCH   1  11
BRANCH   6  20
ATOM     20  C   UNL     1       4.824   4.215  18.975  0.00  0.00    +0.000 C 
ATOM     21  O   UNL     1       5.976   4.155  19.383  0.00  0.00    +0.000 OA
ATOM     22  N   UNL     1       4.528   4.181  17.626  0.00  0.00    +0.000 N 
ATOM     23  H   UNL     1       3.581   4.360  17.317  0.00  0.00    +0.000 HD
BRANCH  22  24
ATOM     24  C   UNL     1       5.580   4.129  16.630  0.00  0.00    +0.000 C 
BRANCH  24  25
ATOM     25  C   UNL     1       5.600   5.339  15.670  0.00  0.00    +0.000 C 
ATOM     26  C   UNL     1       4.877   6.580  16.211  0.00  0.00    +0.000 C 
ATOM     27  C   UNL     1       5.607   7.143  17.428  0.00  0.00    +0.000 C 
ATOM     28  C   UNL     1       7.070   7.435  17.091  0.00  0.00    +0.000 C 
ATOM     29  N   UNL     1       7.773   6.290  16.506  0.00  0.00    +0.000 NA
ATOM     30  C   UNL     1       7.056   5.731  15.353  0.00  0.00    +0.000 C 
ATOM     31  H   UNL     1       7.907   5.571  17.215  0.00  0.00    +0.000 HD
ENDBRANCH  24  25
ENDBRANCH  22  24
ENDBRANCH   6  20
TORSDOF 4
ENDMDL
MODEL 5
REMARK VINA RESULT:      -7.1      2.017      4.863
REMARK  Name = 
REMARK  4 active torsions:
REMARK  status: ('A' for Active; 'I' for Inactive)
REMARK    1  A    between atoms: C_2  and  C_10
REMARK    2  A    between atoms: C_15  and  C_16
REMARK    3  A    between atoms: N_18  and  C_19
REMARK    4  A    between atoms: C_19  and  C_20
REMARK                            x       y       z     vdW  Elec       q    Type
REMARK                         _______ _______ _______ _____ _____    ______ ____
ROOT
ATOM      1  C   UNL     1       3.948   6.197  18.088  0.00  0.00    +0.000 C 
ATOM      2  C   UNL     1       5.466   6.525  18.038  0.00  0.00    +0.000 C 
ATOM      3  C   UNL     1       5.794   7.303  16.742  0.00  0.00    +0.000 C 
ATOM      4  C   UNL     1       5.587   6.244  15.632  0.00  0.00    +0.000 C 
ATOM      5  C   UNL     1       5.241   4.957  16.423  0.00  0.00    +0.000 C 
ATOM      6  C   UNL     1       3.788   5.111  16.960  0.00  0.00    +0.000 C 
ATOM      7  C   UNL     1       6.042   5.187  17.672  0.00  0.00    +0.000 C 
ATOM      8  C   UNL     1       7.504   4.857  17.796  0.00  0.00    +0.000 C 
ATOM      9  C   UNL     1       6.479   4.118  18.630  0.00  0.00    +0.000 C 
ENDROOT
BRANCH   1  11
ATOM     10  O   UNL     1       3.077   8.094  16.891  0.00  0.00    +0.000 OA
ATOM     11  C   UNL     1       3.057   7.426  17.925  0.00  0.00    +0.000 C 
ATOM     12  N   UNL     1       2.299   7.693  19.045  0.00  0.00    +0.000 N 
ATOM     13  C   UNL     1       1.441   8.755  19.107  0.00  0.00    +0.000 A 
ATOM     14  N   UNL     1       0.951   9.492  18.143  0.00  0.00    +0.000 NA
ATOM     15  C   UNL     1       0.210  10.525  18.690  0.00  0.00    +0.000 A 
ATOM     16  C   UNL     1       0.175  10.538  20.062  0.00  0.00    +0.000 A 
ATOM     17 BR   UNL     1      -0.630  11.868  21.094  0.00  0.00    +0.000 Br
ATOM     18  S   UNL     1       0.982   9.186  20.700  0.00  0.00    +0.000 S 
ATOM     19  H   UNL     1       2.488   7.224  19.922  0.00  0.00    +0.000 HD
ENDBRANCH   1  11
BRANCH   6  20
ATOM     20  C   UNL     1       3.222   3.814  17.532  0.00  0.00    +0.000 C 
ATOM     21  O   UNL     1       3.843   2.760  17.547  0.00  0.00    +0.000 OA
ATOM     22  N   UNL     1       1.964   3.923  18.090  0.00  0.00    +0.000 N 
ATOM     23  H   UNL     1       1.426   4.769  17.950  0.00  0.00    +0.000 HD
BRANCH  22  24
ATOM     24  C   UNL     1       1.300   2.773  18.671  0.00  0.00    +0.000 C 
BRANCH  24  25
ATOM     25  C   UNL     1       0.625   3.054  20.032  0.00  0.00    +0.000 C 
ATOM     26  C   UNL     1       1.247   2.289  21.209  0.00  0.00    +0.000 C 
ATOM     27  C   UNL     1       2.674   2.766  21.470  0.00  0.00    +0.000 C 
ATOM     28  C   UNL     1       2.704   4.279  21.692  0.00  0.00    +0.000 C 
ATOM     29  N   UNL     1       2.055   5.039  20.620  0.00  0.00    +0.000 NA
ATOM     30  C   UNL     1       0.693   4.561  20.350  0.00  0.00    +0.000 C 
ATOM     31  H   UNL     1       2.618   4.985  19.773  0.00  0.00    +0.000 HD
ENDBRANCH  24  25
ENDBRANCH  22  24
ENDBRANCH   6  20
TORSDOF 4
ENDMDL
MODEL 6
REMARK VINA RESULT:      -7.1      1.916      4.937
REMARK  Name = 
REMARK  4 active torsions:
REMARK  status: ('A' for Active; 'I' for Inactive)
REMARK    1  A    between atoms: C_2  and  C_10
REMARK    2  A    between atoms: C_15  and  C_16
REMARK    3  A    between atoms: N_18  and  C_19
REMARK    4  A    between atoms: C_19  and  C_20
REMARK                            x       y       z     vdW  Elec       q    Type
REMARK                         _______ _______ _______ _____ _____    ______ ____
ROOT
ATOM      1  C   UNL     1       4.571   6.226  17.757  0.00  0.00    +0.000 C 
ATOM      2  C   UNL     1       5.871   6.495  16.948  0.00  0.00    +0.000 C 
ATOM      3  C   UNL     1       5.520   6.784  15.470  0.00  0.00    +0.000 C 
ATOM      4  C   UNL     1       5.015   5.415  14.952  0.00  0.00    +0.000 C 
ATOM      5  C   UNL     1       5.207   4.477  16.171  0.00  0.00    +0.000 C 
ATOM      6  C   UNL     1       4.104   4.825  17.212  0.00  0.00    +0.000 C 
ATOM      7  C   UNL     1       6.416   5.104  16.802  0.00  0.00    +0.000 C 
ATOM      8  C   UNL     1       7.827   4.813  16.369  0.00  0.00    +0.000 C 
ATOM      9  C   UNL     1       7.353   4.415  17.750  0.00  0.00    +0.000 C 
ENDROOT
BRANCH   1  11
ATOM     10  O   UNL     1       3.477   8.041  16.617  0.00  0.00    +0.000 OA
ATOM     11  C   UNL     1       3.536   7.340  17.628  0.00  0.00    +0.000 C 
ATOM     12  N   UNL     1       2.747   7.473  18.750  0.00  0.00    +0.000 N 
ATOM     13  C   UNL     1       1.764   8.418  18.842  0.00  0.00    +0.000 A 
ATOM     14  N   UNL     1       1.190   9.122  17.899  0.00  0.00    +0.000 NA
ATOM     15  C   UNL     1       0.325  10.036  18.475  0.00  0.00    +0.000 A 
ATOM     16  C   UNL     1       0.284   9.997  19.846  0.00  0.00    +0.000 A 
ATOM     17 BR   UNL     1      -0.683  11.182  20.916  0.00  0.00    +0.000 Br
ATOM     18  S   UNL     1       1.249   8.734  20.445  0.00  0.00    +0.000 S 
ATOM     19  H   UNL     1       2.989   7.001  19.613  0.00  0.00    +0.000 HD
ENDBRANCH   1  11
BRANCH   6  20
ATOM     20  C   UNL     1       4.009   3.806  18.345  0.00  0.00    +0.000 C 
ATOM     21  O   UNL     1       4.769   3.795  19.303  0.00  0.00    +0.000 OA
ATOM     22  N   UNL     1       2.957   2.917  18.242  0.00  0.00    +0.000 N 
ATOM     23  H   UNL     1       2.426   2.868  17.382  0.00  0.00    +0.000 HD
BRANCH  22  24
ATOM     24  C   UNL     1       2.742   1.893  19.244  0.00  0.00    +0.000 C 
BRANCH  24  25
ATOM     25  C   UNL     1       1.460   2.089  20.083  0.00  0.00    +0.000 C 
ATOM     26  C   UNL     1       1.722   2.458  21.550  0.00  0.00    +0.000 C 
ATOM     27  C   UNL     1       2.369   3.837  21.652  0.00  0.00    +0.000 C 
ATOM     28  C   UNL     1       1.514   4.888  20.942  0.00  0.00    +0.000 C 
ATOM     29  N   UNL     1       1.185   4.534  19.558  0.00  0.00    +0.000 NA
ATOM     30  C   UNL     1       0.589   3.195  19.457  0.00  0.00    +0.000 C 
ATOM     31  H   UNL     1       2.023   4.586  18.983  0.00  0.00    +0.000 HD
ENDBRANCH  24  25
ENDBRANCH  22  24
ENDBRANCH   6  20
TORSDOF 4
ENDMDL
MODEL 7
REMARK VINA RESULT:      -7.1      4.420      8.675
REMARK  Name = 
REMARK  4 active torsions:
REMARK  status: ('A' for Active; 'I' for Inactive)
REMARK    1  A    between atoms: C_2  and  C_10
REMARK    2  A    between atoms: C_15  and  C_16
REMARK    3  A    between atoms: N_18  and  C_19
REMARK    4  A    between atoms: C_19  and  C_20
REMARK                            x       y       z     vdW  Elec       q    Type
REMARK                         _______ _______ _______ _____ _____    ______ ____
ROOT
ATOM      1  C   UNL     1       0.726  10.853  19.792  0.00  0.00    +0.000 C 
ATOM      2  C   UNL     1      -0.802  10.667  20.011  0.00  0.00    +0.000 C 
ATOM      3  C   UNL     1      -1.501  10.416  18.655  0.00  0.00    +0.000 C 
ATOM      4  C   UNL     1      -1.373  11.779  17.933  0.00  0.00    +0.000 C 
ATOM      5  C   UNL     1      -0.686  12.682  18.989  0.00  0.00    +0.000 C 
ATOM      6  C   UNL     1       0.807  12.252  19.075  0.00  0.00    +0.000 C 
ATOM      7  C   UNL     1      -1.237  12.084  20.251  0.00  0.00    +0.000 C 
ATOM      8  C   UNL     1      -2.577  12.448  20.829  0.00  0.00    +0.000 C 
ATOM      9  C   UNL     1      -1.305  12.777  21.580  0.00  0.00    +0.000 C 
ENDROOT
BRANCH   1  11
ATOM     10  O   UNL     1       1.608   9.792  17.821  0.00  0.00    +0.000 OA
ATOM     11  C   UNL     1       1.373   9.702  19.027  0.00  0.00    +0.000 C 
ATOM     12  N   UNL     1       1.610   8.598  19.816  0.00  0.00    +0.000 N 
ATOM     13  C   UNL     1       2.176   7.457  19.320  0.00  0.00    +0.000 A 
ATOM     14  N   UNL     1       2.838   7.267  18.207  0.00  0.00    +0.000 NA
ATOM     15  C   UNL     1       3.127   5.919  18.073  0.00  0.00    +0.000 A 
ATOM     16  C   UNL     1       2.658   5.131  19.093  0.00  0.00    +0.000 A 
ATOM     17 BR   UNL     1       2.774   3.269  19.139  0.00  0.00    +0.000 Br
ATOM     18  S   UNL     1       1.938   6.076  20.307  0.00  0.00    +0.000 S 
ATOM     19  H   UNL     1       1.206   8.526  20.741  0.00  0.00    +0.000 HD
ENDBRANCH   1  11
BRANCH   6  20
ATOM     20  C   UNL     1       1.664  13.226  19.880  0.00  0.00    +0.000 C 
ATOM     21  O   UNL     1       2.222  12.923  20.926  0.00  0.00    +0.000 OA
ATOM     22  N   UNL     1       1.815  14.476  19.312  0.00  0.00    +0.000 N 
ATOM     23  H   UNL     1       1.243  14.737  18.518  0.00  0.00    +0.000 HD
BRANCH  22  24
ATOM     24  C   UNL     1       2.601  15.504  19.963  0.00  0.00    +0.000 C 
BRANCH  24  25
ATOM     25  C   UNL     1       3.369  16.425  18.989  0.00  0.00    +0.000 C 
ATOM     26  C   UNL     1       4.813  16.723  19.417  0.00  0.00    +0.000 C 
ATOM     27  C   UNL     1       5.662  15.455  19.373  0.00  0.00    +0.000 C 
ATOM     28  C   UNL     1       5.597  14.811  17.987  0.00  0.00    +0.000 C 
ATOM     29  N   UNL     1       4.229  14.576  17.517  0.00  0.00    +0.000 NA
ATOM     30  C   UNL     1       3.405  15.790  17.586  0.00  0.00    +0.000 C 
ATOM     31  H   UNL     1       3.801  13.832  18.065  0.00  0.00    +0.000 HD
ENDBRANCH  24  25
ENDBRANCH  22  24
ENDBRANCH   6  20
TORSDOF 4
ENDMDL
MODEL 8
REMARK VINA RESULT:      -7.0      4.539      9.443
REMARK  Name = 
REMARK  4 active torsions:
REMARK  status: ('A' for Active; 'I' for Inactive)
REMARK    1  A    between atoms: C_2  and  C_10
REMARK    2  A    between atoms: C_15  and  C_16
REMARK    3  A    between atoms: N_18  and  C_19
REMARK    4  A    between atoms: C_19  and  C_20
REMARK                            x       y       z     vdW  Elec       q    Type
REMARK                         _______ _______ _______ _____ _____    ______ ____
ROOT
ATOM      1  C   UNL     1       0.797  10.822  19.454  0.00  0.00    +0.000 C 
ATOM      2  C   UNL     1      -0.685  10.575  19.853  0.00  0.00    +0.000 C 
ATOM      3  C   UNL     1      -1.495  10.122  18.617  0.00  0.00    +0.000 C 
ATOM      4  C   UNL     1      -1.536  11.395  17.736  0.00  0.00    +0.000 C 
ATOM      5  C   UNL     1      -0.812  12.456  18.604  0.00  0.00    +0.000 C 
ATOM      6  C   UNL     1       0.708  12.127  18.579  0.00  0.00    +0.000 C 
ATOM      7  C   UNL     1      -1.192  11.982  19.977  0.00  0.00    +0.000 C 
ATOM      8  C   UNL     1      -2.491  12.334  20.649  0.00  0.00    +0.000 C 
ATOM      9  C   UNL     1      -1.178  12.824  21.219  0.00  0.00    +0.000 C 
ENDROOT
BRANCH   1  11
ATOM     10  O   UNL     1       1.682   9.646  17.551  0.00  0.00    +0.000 OA
ATOM     11  C   UNL     1       1.445   9.628  18.759  0.00  0.00    +0.000 C 
ATOM     12  N   UNL     1       1.680   8.572  19.613  0.00  0.00    +0.000 N 
ATOM     13  C   UNL     1       2.245   7.403  19.186  0.00  0.00    +0.000 A 
ATOM     14  N   UNL     1       2.909   7.147  18.087  0.00  0.00    +0.000 NA
ATOM     15  C   UNL     1       3.198   5.794  18.033  0.00  0.00    +0.000 A 
ATOM     16  C   UNL     1       2.727   5.067  19.098  0.00  0.00    +0.000 A 
ATOM     17 BR   UNL     1       2.842   3.212  19.254  0.00  0.00    +0.000 Br
ATOM     18  S   UNL     1       2.005   6.083  20.252  0.00  0.00    +0.000 S 
ATOM     19  H   UNL     1       1.273   8.555  20.540  0.00  0.00    +0.000 HD
ENDBRANCH   1  11
BRANCH   6  20
ATOM     20  C   UNL     1       1.570  13.239  19.173  0.00  0.00    +0.000 C 
ATOM     21  O   UNL     1       2.408  13.047  20.042  0.00  0.00    +0.000 OA
ATOM     22  N   UNL     1       1.375  14.488  18.616  0.00  0.00    +0.000 N 
ATOM     23  H   UNL     1       0.591  14.641  17.994  0.00  0.00    +0.000 HD
BRANCH  22  24
ATOM     24  C   UNL     1       2.122  15.640  19.080  0.00  0.00    +0.000 C 
BRANCH  24  25
ATOM     25  C   UNL     1       1.262  16.703  19.800  0.00  0.00    +0.000 C 
ATOM     26  C   UNL     1       1.431  18.124  19.244  0.00  0.00    +0.000 C 
ATOM     27  C   UNL     1       0.896  18.213  17.817  0.00  0.00    +0.000 C 
ATOM     28  C   UNL     1      -0.558  17.744  17.756  0.00  0.00    +0.000 C 
ATOM     29  N   UNL     1      -0.768  16.417  18.342  0.00  0.00    +0.000 NA
ATOM     30  C   UNL     1      -0.228  16.323  19.705  0.00  0.00    +0.000 C 
ATOM     31  H   UNL     1      -0.340  15.708  17.748  0.00  0.00    +0.000 HD
ENDBRANCH  24  25
ENDBRANCH  22  24
ENDBRANCH   6  20
TORSDOF 4
ENDMDL
MODEL 9
REMARK VINA RESULT:      -7.0      4.518      9.719
REMARK  Name = 
REMARK  4 active torsions:
REMARK  status: ('A' for Active; 'I' for Inactive)
REMARK    1  A    between atoms: C_2  and  C_10
REMARK    2  A    between atoms: C_15  and  C_16
REMARK    3  A    between atoms: N_18  and  C_19
REMARK    4  A    between atoms: C_19  and  C_20
REMARK                            x       y       z     vdW  Elec       q    Type
REMARK                         _______ _______ _______ _____ _____    ______ ____
ROOT
ATOM      1  C   UNL     1       0.393  10.421  18.909  0.00  0.00    +0.000 C 
ATOM      2  C   UNL     1       1.124  11.722  19.343  0.00  0.00    +0.000 C 
ATOM      3  C   UNL     1       1.315  11.732  20.877  0.00  0.00    +0.000 C 
ATOM      4  C   UNL     1      -0.128  11.900  21.412  0.00  0.00    +0.000 C 
ATOM      5  C   UNL     1      -0.974  12.047  20.122  0.00  0.00    +0.000 C 
ATOM      6  C   UNL     1      -1.066  10.642  19.457  0.00  0.00    +0.000 C 
ATOM      7  C   UNL     1       0.018  12.731  19.228  0.00  0.00    +0.000 C 
ATOM      8  C   UNL     1       0.255  14.216  19.229  0.00  0.00    +0.000 C 
ATOM      9  C   UNL     1      -0.325  13.534  18.008  0.00  0.00    +0.000 C 
ENDROOT
BRANCH   1  11
ATOM     10  O   UNL     1       0.928   8.755  20.560  0.00  0.00    +0.000 OA
ATOM     11  C   UNL     1       1.076   9.149  19.403  0.00  0.00    +0.000 C 
ATOM     12  N   UNL     1       1.866   8.556  18.442  0.00  0.00    +0.000 N 
ATOM     13  C   UNL     1       2.572   7.411  18.685  0.00  0.00    +0.000 A 
ATOM     14  N   UNL     1       2.439   6.535  19.649  0.00  0.00    +0.000 NA
ATOM     15  C   UNL     1       3.449   5.593  19.552  0.00  0.00    +0.000 A 
ATOM     16  C   UNL     1       4.323   5.799  18.514  0.00  0.00    +0.000 A 
ATOM     17 BR   UNL     1       5.855   4.782  18.195  0.00  0.00    +0.000 Br
ATOM     18  S   UNL     1       3.835   7.120  17.564  0.00  0.00    +0.000 S 
ATOM     19  H   UNL     1       2.098   9.045  17.587  0.00  0.00    +0.000 HD
ENDBRANCH   1  11
BRANCH   6  20
ATOM     20  C   UNL     1      -2.087  10.585  18.323  0.00  0.00    +0.000 C 
ATOM     21  O   UNL     1      -1.922   9.926  17.305  0.00  0.00    +0.000 OA
ATOM     22  N   UNL     1      -3.250  11.292  18.550  0.00  0.00    +0.000 N 
ATOM     23  H   UNL     1      -3.305  11.926  19.337  0.00  0.00    +0.000 HD
BRANCH  22  24
ATOM     24  C   UNL     1      -4.310  11.329  17.561  0.00  0.00    +0.000 C 
BRANCH  24  25
ATOM     25  C   UNL     1      -5.442  12.328  17.885  0.00  0.00    +0.000 C 
ATOM     26  C   UNL     1      -6.849  11.715  17.837  0.00  0.00    +0.000 C 
ATOM     27  C   UNL     1      -7.026  10.682  18.947  0.00  0.00    +0.000 C 
ATOM     28  C   UNL     1      -6.717  11.297  20.312  0.00  0.00    +0.000 C 
ATOM     29  N   UNL     1      -5.408  11.953  20.372  0.00  0.00    +0.000 NA
ATOM     30  C   UNL     1      -5.227  12.927  19.288  0.00  0.00    +0.000 C 
ATOM     31  H   UNL     1      -4.671  11.251  20.337  0.00  0.00    +0.000 HD
ENDBRANCH  24  25
ENDBRANCH  22  24
ENDBRANCH   6  20
TORSDOF 4
ENDMDL
