MODEL 1
REMARK VINA RESULT:      -7.7      0.000      0.000
REMARK  Name = 
REMARK  6 active torsions:
REMARK  status: ('A' for Active; 'I' for Inactive)
REMARK    1  A    between atoms: C_1  and  O_2
REMARK    2  A    between atoms: O_2  and  C_3
REMARK    3  A    between atoms: C_7  and  C_8
REMARK    4  A    between atoms: C_8  and  N_9
REMARK    5  A    between atoms: C_23  and  C_24
REMARK    6  A    between atoms: C_23  and  C_25
REMARK                            x       y       z     vdW  Elec       q    Type
REMARK                         _______ _______ _______ _____ _____    ______ ____
ROOT
ATOM      1  N   UNL     1       1.207  12.055  19.708  0.00  0.00    +0.000 N 
ATOM      2  C   UNL     1       2.094  12.273  18.655  0.00  0.00    +0.000 C 
ATOM      3  O   UNL     1       2.415  11.482  17.782  0.00  0.00    +0.000 OA
ATOM      4  C   UNL     1       2.387  13.772  18.692  0.00  0.00    +0.000 C 
ATOM      5  C   UNL     1       3.372  14.777  18.060  0.00  0.00    +0.000 C 
ATOM      6  C   UNL     1       2.765  16.100  18.583  0.00  0.00    +0.000 A 
ATOM      7  C   UNL     1       2.280  15.983  19.895  0.00  0.00    +0.000 A 
ATOM      8  N   UNL     1       0.959  16.381  19.850  0.00  0.00    +0.000 N 
ATOM      9  C   UNL     1       0.674  16.882  18.605  0.00  0.00    +0.000 A 
ATOM     10  C   UNL     1      -0.550  17.229  18.033  0.00  0.00    +0.000 A 
ATOM     11  C   UNL     1      -0.495  18.099  16.949  0.00  0.00    +0.000 A 
ATOM     12  C   UNL     1       0.733  18.550  16.461  0.00  0.00    +0.000 A 
ATOM     13  C   UNL     1       1.940  17.974  16.896  0.00  0.00    +0.000 A 
ATOM     14  C   UNL     1       1.901  17.058  17.962  0.00  0.00    +0.000 A 
ATOM     15  C   UNL     1       2.785  15.080  21.043  0.00  0.00    +0.000 C 
ATOM     16  C   UNL     1       3.984  16.222  21.197  0.00  0.00    +0.000 C 
ATOM     17  C   UNL     1       3.903  14.051  21.498  0.00  0.00    +0.000 C 
ATOM     18  N   UNL     1       2.240  13.961  20.157  0.00  0.00    +0.000 N 
ATOM     19  C   UNL     1       1.307  13.054  20.631  0.00  0.00    +0.000 C 
ATOM     20  O   UNL     1       0.753  13.133  21.717  0.00  0.00    +0.000 OA
ATOM     21  H   UNL     1       0.270  16.155  20.554  0.00  0.00    +0.000 HD
ENDROOT
BRANCH   1  22
ATOM     22  C   UNL     1       0.355  10.909  19.937  0.00  0.00    +0.000 C 
BRANCH  22  27
ATOM     23  C   UNL     1      -2.234  10.310  17.189  0.00  0.00    +0.000 A 
ATOM     24  C   UNL     1      -3.312  11.072  17.629  0.00  0.00    +0.000 A 
ATOM     25  C   UNL     1      -3.208  11.814  18.814  0.00  0.00    +0.000 A 
ATOM     26  C   UNL     1      -2.027  11.777  19.561  0.00  0.00    +0.000 A 
ATOM     27  C   UNL     1      -0.939  10.988  19.144  0.00  0.00    +0.000 A 
ATOM     28  C   UNL     1      -1.054  10.278  17.937  0.00  0.00    +0.000 A 
BRANCH  23  30
ATOM     29  C   UNL     1      -3.114  10.358  14.981  0.00  0.00    +0.000 C 
ATOM     30  O   UNL     1      -2.458   9.631  16.017  0.00  0.00    +0.000 OA
ENDBRANCH  23  30
ENDBRANCH  22  27
ENDBRANCH   1  22
TORSDOF 3
ENDMDL
MODEL 2
REMARK VINA RESULT:      -7.6      9.580     12.263
REMARK  Name = 
REMARK  6 active torsions:
REMARK  status: ('A' for Active; 'I' for Inactive)
REMARK    1  A    between atoms: C_1  and  O_2
REMARK    2  A    between atoms: O_2  and  C_3
REMARK    3  A    between atoms: C_7  and  C_8
REMARK    4  A    between atoms: C_8  and  N_9
REMARK    5  A    between atoms: C_23  and  C_24
REMARK    6  A    between atoms: C_23  and  C_25
REMARK                            x       y       z     vdW  Elec       q    Type
REMARK                         _______ _______ _______ _____ _____    ______ ____
ROOT
ATOM      1  N   UNL     1       6.572   5.234  14.805  0.00  0.00    +0.000 N 
ATOM      2  C   UNL     1       5.587   6.178  15.089  0.00  0.00    +0.000 C 
ATOM      3  O   UNL     1       5.101   6.995  14.323  0.00  0.00    +0.000 OA
ATOM      4  C   UNL     1       5.083   5.812  16.485  0.00  0.00    +0.000 C 
ATOM      5  C   UNL     1       4.201   6.420  17.595  0.00  0.00    +0.000 C 
ATOM      6  C   UNL     1       4.142   5.217  18.566  0.00  0.00    +0.000 A 
ATOM      7  C   UNL     1       5.360   4.523  18.632  0.00  0.00    +0.000 A 
ATOM      8  N   UNL     1       5.066   3.209  18.329  0.00  0.00    +0.000 N 
ATOM      9  C   UNL     1       3.706   3.052  18.244  0.00  0.00    +0.000 A 
ATOM     10  C   UNL     1       2.952   1.970  17.789  0.00  0.00    +0.000 A 
ATOM     11  C   UNL     1       1.629   1.923  18.217  0.00  0.00    +0.000 A 
ATOM     12  C   UNL     1       1.105   2.935  19.023  0.00  0.00    +0.000 A 
ATOM     13  C   UNL     1       1.818   4.129  19.238  0.00  0.00    +0.000 A 
ATOM     14  C   UNL     1       3.142   4.214  18.774  0.00  0.00    +0.000 A 
ATOM     15  C   UNL     1       6.798   5.062  18.458  0.00  0.00    +0.000 C 
ATOM     16  C   UNL     1       6.607   5.612  20.016  0.00  0.00    +0.000 C 
ATOM     17  C   UNL     1       7.691   6.357  18.260  0.00  0.00    +0.000 C 
ATOM     18  N   UNL     1       6.355   5.253  17.008  0.00  0.00    +0.000 N 
ATOM     19  C   UNL     1       7.059   4.691  15.957  0.00  0.00    +0.000 C 
ATOM     20  O   UNL     1       7.990   3.909  16.086  0.00  0.00    +0.000 OA
ATOM     21  H   UNL     1       5.748   2.525  18.028  0.00  0.00    +0.000 HD
ENDROOT
BRANCH   1  22
ATOM     22  C   UNL     1       7.145   4.899  13.520  0.00  0.00    +0.000 C 
BRANCH  22  27
ATOM     23  C   UNL     1       6.050   1.927  11.379  0.00  0.00    +0.000 A 
ATOM     24  C   UNL     1       4.681   2.143  11.254  0.00  0.00    +0.000 A 
ATOM     25  C   UNL     1       4.093   3.273  11.841  0.00  0.00    +0.000 A 
ATOM     26  C   UNL     1       4.879   4.173  12.566  0.00  0.00    +0.000 A 
ATOM     27  C   UNL     1       6.260   3.952  12.726  0.00  0.00    +0.000 A 
ATOM     28  C   UNL     1       6.833   2.831  12.102  0.00  0.00    +0.000 A 
BRANCH  23  30
ATOM     29  C   UNL     1       6.128  -0.448  11.353  0.00  0.00    +0.000 C 
ATOM     30  O   UNL     1       6.505   0.790  10.759  0.00  0.00    +0.000 OA
ENDBRANCH  23  30
ENDBRANCH  22  27
ENDBRANCH   1  22
TORSDOF 3
ENDMDL
MODEL 3
REMARK VINA RESULT:      -7.6      4.189      6.441
REMARK  Name = 
REMARK  6 active torsions:
REMARK  status: ('A' for Active; 'I' for Inactive)
REMARK    1  A    between atoms: C_1  and  O_2
REMARK    2  A    between atoms: O_2  and  C_3
REMARK    3  A    between atoms: C_7  and  C_8
REMARK    4  A    between atoms: C_8  and  N_9
REMARK    5  A    between atoms: C_23  and  C_24
REMARK    6  A    between atoms: C_23  and  C_25
REMARK                            x       y       z     vdW  Elec       q    Type
REMARK                         _______ _______ _______ _____ _____    ______ ____
ROOT
ATOM      1  N   UNL     1       1.920   8.328  19.563  0.00  0.00    +0.000 N 
ATOM      2  C   UNL     1       1.129   8.548  20.690  0.00  0.00    +0.000 C 
ATOM      3  O   UNL     1       1.033   7.836  21.677  0.00  0.00    +0.000 OA
ATOM      4  C   UNL     1       0.600   9.973  20.528  0.00  0.00    +0.000 C 
ATOM      5  C   UNL     1      -0.458  10.896  21.167  0.00  0.00    +0.000 C 
ATOM      6  C   UNL     1      -0.127  12.216  20.431  0.00  0.00    +0.000 A 
ATOM      7  C   UNL     1       0.224  12.006  19.089  0.00  0.00    +0.000 A 
ATOM      8  N   UNL     1       1.463  12.592  18.923  0.00  0.00    +0.000 N 
ATOM      9  C   UNL     1       1.798  13.283  20.060  0.00  0.00    +0.000 A 
ATOM     10  C   UNL     1       3.006  13.872  20.432  0.00  0.00    +0.000 A 
ATOM     11  C   UNL     1       2.932  14.855  21.413  0.00  0.00    +0.000 A 
ATOM     12  C   UNL     1       1.709  15.182  22.001  0.00  0.00    +0.000 A 
ATOM     13  C   UNL     1       0.569  14.387  21.787  0.00  0.00    +0.000 A 
ATOM     14  C   UNL     1       0.636  13.359  20.831  0.00  0.00    +0.000 A 
ATOM     15  C   UNL     1      -0.253  10.901  18.118  0.00  0.00    +0.000 C 
ATOM     16  C   UNL     1      -1.627  11.829  17.994  0.00  0.00    +0.000 C 
ATOM     17  C   UNL     1      -1.236   9.673  17.923  0.00  0.00    +0.000 C 
ATOM     18  N   UNL     1       0.556   9.994  19.044  0.00  0.00    +0.000 N 
ATOM     19  C   UNL     1       1.563   9.178  18.557  0.00  0.00    +0.000 C 
ATOM     20  O   UNL     1       1.977   9.199  17.408  0.00  0.00    +0.000 OA
ATOM     21  H   UNL     1       2.099  12.380  18.166  0.00  0.00    +0.000 HD
ENDROOT
BRANCH   1  22
ATOM     22  C   UNL     1       2.912   7.298  19.354  0.00  0.00    +0.000 C 
BRANCH  22  27
ATOM     23  C   UNL     1       1.326   3.881  20.007  0.00  0.00    +0.000 A 
ATOM     24  C   UNL     1       1.094   3.413  18.717  0.00  0.00    +0.000 A 
ATOM     25  C   UNL     1       1.473   4.188  17.611  0.00  0.00    +0.000 A 
ATOM     26  C   UNL     1       2.069   5.437  17.805  0.00  0.00    +0.000 A 
ATOM     27  C   UNL     1       2.283   5.937  19.103  0.00  0.00    +0.000 A 
ATOM     28  C   UNL     1       1.924   5.130  20.196  0.00  0.00    +0.000 A 
BRANCH  23  30
ATOM     29  C   UNL     1       1.933   2.499  21.843  0.00  0.00    +0.000 C 
ATOM     30  O   UNL     1       0.912   3.032  21.003  0.00  0.00    +0.000 OA
ENDBRANCH  23  30
ENDBRANCH  22  27
ENDBRANCH   1  22
TORSDOF 3
ENDMDL
MODEL 4
REMARK VINA RESULT:      -7.5      3.392      5.934
REMARK  Name = 
REMARK  6 active torsions:
REMARK  status: ('A' for Active; 'I' for Inactive)
REMARK    1  A    between atoms: C_1  and  O_2
REMARK    2  A    between atoms: O_2  and  C_3
REMARK    3  A    between atoms: C_7  and  C_8
REMARK    4  A    between atoms: C_8  and  N_9
REMARK    5  A    between atoms: C_23  and  C_24
REMARK    6  A    between atoms: C_23  and  C_25
REMARK                            x       y       z     vdW  Elec       q    Type
REMARK                         _______ _______ _______ _____ _____    ______ ____
ROOT
ATOM      1  N   UNL     1      -1.137  12.919  22.730  0.00  0.00    +0.000 N 
ATOM      2  C   UNL     1      -0.767  11.582  22.592  0.00  0.00    +0.000 C 
ATOM      3  O   UNL     1      -0.812  10.711  23.446  0.00  0.00    +0.000 OA
ATOM      4  C   UNL     1      -0.525  11.394  21.095  0.00  0.00    +0.000 C 
ATOM      5  C   UNL     1       0.086  10.345  20.143  0.00  0.00    +0.000 C 
ATOM      6  C   UNL     1      -0.288  10.981  18.783  0.00  0.00    +0.000 A 
ATOM      7  C   UNL     1      -0.188  12.380  18.802  0.00  0.00    +0.000 A 
ATOM      8  N   UNL     1      -1.421  12.856  18.405  0.00  0.00    +0.000 N 
ATOM      9  C   UNL     1      -2.206  11.809  17.994  0.00  0.00    +0.000 A 
ATOM     10  C   UNL     1      -3.565  11.769  17.686  0.00  0.00    +0.000 A 
ATOM     11  C   UNL     1      -3.984  10.702  16.898  0.00  0.00    +0.000 A 
ATOM     12  C   UNL     1      -3.078   9.723  16.487  0.00  0.00    +0.000 A 
ATOM     13  C   UNL     1      -1.784   9.660  17.035  0.00  0.00    +0.000 A 
ATOM     14  C   UNL     1      -1.357  10.707  17.870  0.00  0.00    +0.000 A 
ATOM     15  C   UNL     1       0.769  13.277  19.621  0.00  0.00    +0.000 C 
ATOM     16  C   UNL     1       1.894  12.846  18.475  0.00  0.00    +0.000 C 
ATOM     17  C   UNL     1       2.001  13.300  20.618  0.00  0.00    +0.000 C 
ATOM     18  N   UNL     1      -0.062  12.773  20.800  0.00  0.00    +0.000 N 
ATOM     19  C   UNL     1      -0.693  13.649  21.667  0.00  0.00    +0.000 C 
ATOM     20  O   UNL     1      -0.754  14.859  21.506  0.00  0.00    +0.000 OA
ATOM     21  H   UNL     1      -1.753  13.796  18.576  0.00  0.00    +0.000 HD
ENDROOT
BRANCH   1  22
ATOM     22  C   UNL     1      -1.788  13.556  23.853  0.00  0.00    +0.000 C 
BRANCH  22  27
ATOM     23  C   UNL     1      -5.420  13.002  22.797  0.00  0.00    +0.000 A 
ATOM     24  C   UNL     1      -6.002  14.233  23.085  0.00  0.00    +0.000 A 
ATOM     25  C   UNL     1      -5.218  15.274  23.603  0.00  0.00    +0.000 A 
ATOM     26  C   UNL     1      -3.856  15.070  23.845  0.00  0.00    +0.000 A 
ATOM     27  C   UNL     1      -3.261  13.821  23.588  0.00  0.00    +0.000 A 
ATOM     28  C   UNL     1      -4.058  12.803  23.039  0.00  0.00    +0.000 A 
BRANCH  23  30
ATOM     29  C   UNL     1      -6.990  12.428  21.107  0.00  0.00    +0.000 C 
ATOM     30  O   UNL     1      -6.290  12.066  22.294  0.00  0.00    +0.000 OA
ENDBRANCH  23  30
ENDBRANCH  22  27
ENDBRANCH   1  22
TORSDOF 3
ENDMDL
MODEL 5
REMARK VINA RESULT:      -7.5      3.455      6.095
REMARK  Name = 
REMARK  6 active torsions:
REMARK  status: ('A' for Active; 'I' for Inactive)
REMARK    1  A    between atoms: C_1  and  O_2
REMARK    2  A    between atoms: O_2  and  C_3
REMARK    3  A    between atoms: C_7  and  C_8
REMARK    4  A    between atoms: C_8  and  N_9
REMARK    5  A    between atoms: C_23  and  C_24
REMARK    6  A    between atoms: C_23  and  C_25
REMARK                            x       y       z     vdW  Elec       q    Type
REMARK                         _______ _______ _______ _____ _____    ______ ____
ROOT
ATOM      1  N   UNL     1      -1.132  12.968  22.662  0.00  0.00    +0.000 N 
ATOM      2  C   UNL     1      -0.784  11.623  22.553  0.00  0.00    +0.000 C 
ATOM      3  O   UNL     1      -0.853  10.768  23.422  0.00  0.00    +0.000 OA
ATOM      4  C   UNL     1      -0.530  11.403  21.062  0.00  0.00    +0.000 C 
ATOM      5  C   UNL     1       0.073  10.326  20.135  0.00  0.00    +0.000 C 
ATOM      6  C   UNL     1      -0.277  10.943  18.761  0.00  0.00    +0.000 A 
ATOM      7  C   UNL     1      -0.152  12.341  18.755  0.00  0.00    +0.000 A 
ATOM      8  N   UNL     1      -1.373  12.830  18.336  0.00  0.00    +0.000 N 
ATOM      9  C   UNL     1      -2.171  11.789  17.936  0.00  0.00    +0.000 A 
ATOM     10  C   UNL     1      -3.528  11.767  17.614  0.00  0.00    +0.000 A 
ATOM     11  C   UNL     1      -3.957  10.693  16.842  0.00  0.00    +0.000 A 
ATOM     12  C   UNL     1      -3.064   9.691  16.459  0.00  0.00    +0.000 A 
ATOM     13  C   UNL     1      -1.777   9.616  17.021  0.00  0.00    +0.000 A 
ATOM     14  C   UNL     1      -1.340  10.670  17.841  0.00  0.00    +0.000 A 
ATOM     15  C   UNL     1       0.811  13.236  19.567  0.00  0.00    +0.000 C 
ATOM     16  C   UNL     1       1.941  12.764  18.441  0.00  0.00    +0.000 C 
ATOM     17  C   UNL     1       2.034  13.256  20.576  0.00  0.00    +0.000 C 
ATOM     18  N   UNL     1      -0.041  12.768  20.746  0.00  0.00    +0.000 N 
ATOM     19  C   UNL     1      -0.665  13.671  21.590  0.00  0.00    +0.000 C 
ATOM     20  O   UNL     1      -0.703  14.878  21.407  0.00  0.00    +0.000 OA
ATOM     21  H   UNL     1      -1.690  13.778  18.487  0.00  0.00    +0.000 HD
ENDROOT
BRANCH   1  22
ATOM     22  C   UNL     1      -1.784  13.637  23.766  0.00  0.00    +0.000 C 
BRANCH  22  27
ATOM     23  C   UNL     1      -5.436  14.189  22.781  0.00  0.00    +0.000 A 
ATOM     24  C   UNL     1      -6.098  13.246  23.561  0.00  0.00    +0.000 A 
ATOM     25  C   UNL     1      -5.371  12.431  24.442  0.00  0.00    +0.000 A 
ATOM     26  C   UNL     1      -3.981  12.555  24.523  0.00  0.00    +0.000 A 
ATOM     27  C   UNL     1      -3.295  13.484  23.718  0.00  0.00    +0.000 A 
ATOM     28  C   UNL     1      -4.047  14.312  22.867  0.00  0.00    +0.000 A 
BRANCH  23  30
ATOM     29  C   UNL     1      -7.594  14.458  21.822  0.00  0.00    +0.000 C 
ATOM     30  O   UNL     1      -6.256  14.926  21.962  0.00  0.00    +0.000 OA
ENDBRANCH  23  30
ENDBRANCH  22  27
ENDBRANCH   1  22
TORSDOF 3
ENDMDL
MODEL 6
REMARK VINA RESULT:      -7.5      0.936      1.629
REMARK  Name = 
REMARK  6 active torsions:
REMARK  status: ('A' for Active; 'I' for Inactive)
REMARK    1  A    between atoms: C_1  and  O_2
REMARK    2  A    between atoms: O_2  and  C_3
REMARK    3  A    between atoms: C_7  and  C_8
REMARK    4  A    between atoms: C_8  and  N_9
REMARK    5  A    between atoms: C_23  and  C_24
REMARK    6  A    between atoms: C_23  and  C_25
REMARK                            x       y       z     vdW  Elec       q    Type
REMARK                         _______ _______ _______ _____ _____    ______ ____
ROOT
ATOM      1  N   UNL     1       1.297  12.107  19.781  0.00  0.00    +0.000 N 
ATOM      2  C   UNL     1       2.153  12.333  18.705  0.00  0.00    +0.000 C 
ATOM      3  O   UNL     1       2.473  11.539  17.834  0.00  0.00    +0.000 OA
ATOM      4  C   UNL     1       2.411  13.839  18.717  0.00  0.00    +0.000 C 
ATOM      5  C   UNL     1       3.357  14.859  18.050  0.00  0.00    +0.000 C 
ATOM      6  C   UNL     1       2.730  16.173  18.571  0.00  0.00    +0.000 A 
ATOM      7  C   UNL     1       2.279  16.062  19.895  0.00  0.00    +0.000 A 
ATOM      8  N   UNL     1       0.948  16.427  19.877  0.00  0.00    +0.000 N 
ATOM      9  C   UNL     1       0.622  16.906  18.633  0.00  0.00    +0.000 A 
ATOM     10  C   UNL     1      -0.623  17.216  18.086  0.00  0.00    +0.000 A 
ATOM     11  C   UNL     1      -0.614  18.073  16.991  0.00  0.00    +0.000 A 
ATOM     12  C   UNL     1       0.590  18.548  16.468  0.00  0.00    +0.000 A 
ATOM     13  C   UNL     1       1.820  18.006  16.882  0.00  0.00    +0.000 A 
ATOM     14  C   UNL     1       1.829  17.103  17.959  0.00  0.00    +0.000 A 
ATOM     15  C   UNL     1       2.833  15.186  21.042  0.00  0.00    +0.000 C 
ATOM     16  C   UNL     1       4.007  16.358  21.153  0.00  0.00    +0.000 C 
ATOM     17  C   UNL     1       3.985  14.190  21.482  0.00  0.00    +0.000 C 
ATOM     18  N   UNL     1       2.294  14.043  20.183  0.00  0.00    +0.000 N 
ATOM     19  C   UNL     1       1.395  13.120  20.690  0.00  0.00    +0.000 C 
ATOM     20  O   UNL     1       0.865  13.200  21.787  0.00  0.00    +0.000 OA
ATOM     21  H   UNL     1       0.281  16.193  20.600  0.00  0.00    +0.000 HD
ENDROOT
BRANCH   1  22
ATOM     22  C   UNL     1       0.479  10.944  20.044  0.00  0.00    +0.000 C 
BRANCH  22  27
ATOM     23  C   UNL     1      -3.019  11.598  18.646  0.00  0.00    +0.000 A 
ATOM     24  C   UNL     1      -3.022  10.827  17.488  0.00  0.00    +0.000 A 
ATOM     25  C   UNL     1      -1.896  10.060  17.153  0.00  0.00    +0.000 A 
ATOM     26  C   UNL     1      -0.766  10.082  17.975  0.00  0.00    +0.000 A 
ATOM     27  C   UNL     1      -0.737  10.880  19.134  0.00  0.00    +0.000 A 
ATOM     28  C   UNL     1      -1.888  11.615  19.466  0.00  0.00    +0.000 A 
BRANCH  23  30
ATOM     29  C   UNL     1      -4.451  12.666  20.214  0.00  0.00    +0.000 C 
ATOM     30  O   UNL     1      -4.178  12.300  18.864  0.00  0.00    +0.000 OA
ENDBRANCH  23  30
ENDBRANCH  22  27
ENDBRANCH   1  22
TORSDOF 3
ENDMDL
MODEL 7
REMARK VINA RESULT:      -7.2      3.659      6.463
REMARK  Name = 
REMARK  6 active torsions:
REMARK  status: ('A' for Active; 'I' for Inactive)
REMARK    1  A    between atoms: C_1  and  O_2
REMARK    2  A    between atoms: O_2  and  C_3
REMARK    3  A    between atoms: C_7  and  C_8
REMARK    4  A    between atoms: C_8  and  N_9
REMARK    5  A    between atoms: C_23  and  C_24
REMARK    6  A    between atoms: C_23  and  C_25
REMARK                            x       y       z     vdW  Elec       q    Type
REMARK                         _______ _______ _______ _____ _____    ______ ____
ROOT
ATOM      1  N   UNL     1      -1.129  12.808  22.778  0.00  0.00    +0.000 N 
ATOM      2  C   UNL     1      -0.767  11.471  22.624  0.00  0.00    +0.000 C 
ATOM      3  O   UNL     1      -0.821  10.589  23.466  0.00  0.00    +0.000 OA
ATOM      4  C   UNL     1      -0.518  11.301  21.126  0.00  0.00    +0.000 C 
ATOM      5  C   UNL     1       0.092  10.261  20.163  0.00  0.00    +0.000 C 
ATOM      6  C   UNL     1      -0.272  10.917  18.810  0.00  0.00    +0.000 A 
ATOM      7  C   UNL     1      -0.163  12.315  18.848  0.00  0.00    +0.000 A 
ATOM      8  N   UNL     1      -1.392  12.803  18.451  0.00  0.00    +0.000 N 
ATOM      9  C   UNL     1      -2.180  11.765  18.023  0.00  0.00    +0.000 A 
ATOM     10  C   UNL     1      -3.538  11.738  17.707  0.00  0.00    +0.000 A 
ATOM     11  C   UNL     1      -3.959  10.683  16.903  0.00  0.00    +0.000 A 
ATOM     12  C   UNL     1      -3.056   9.704  16.484  0.00  0.00    +0.000 A 
ATOM     13  C   UNL     1      -1.766   9.627  17.037  0.00  0.00    +0.000 A 
ATOM     14  C   UNL     1      -1.337  10.660  17.888  0.00  0.00    +0.000 A 
ATOM     15  C   UNL     1       0.794  13.196  19.683  0.00  0.00    +0.000 C 
ATOM     16  C   UNL     1       1.923  12.773  18.537  0.00  0.00    +0.000 C 
ATOM     17  C   UNL     1       2.022  13.199  20.686  0.00  0.00    +0.000 C 
ATOM     18  N   UNL     1      -0.046  12.681  20.851  0.00  0.00    +0.000 N 
ATOM     19  C   UNL     1      -0.676  13.549  21.726  0.00  0.00    +0.000 C 
ATOM     20  O   UNL     1      -0.729  14.761  21.581  0.00  0.00    +0.000 OA
ATOM     21  H   UNL     1      -1.720  13.742  18.633  0.00  0.00    +0.000 HD
ENDROOT
BRANCH   1  22
ATOM     22  C   UNL     1      -1.783  13.434  23.906  0.00  0.00    +0.000 C 
BRANCH  22  27
ATOM     23  C   UNL     1      -5.150  15.244  23.945  0.00  0.00    +0.000 A 
ATOM     24  C   UNL     1      -5.925  14.443  23.112  0.00  0.00    +0.000 A 
ATOM     25  C   UNL     1      -5.374  13.286  22.542  0.00  0.00    +0.000 A 
ATOM     26  C   UNL     1      -4.043  12.945  22.799  0.00  0.00    +0.000 A 
ATOM     27  C   UNL     1      -3.239  13.761  23.616  0.00  0.00    +0.000 A 
ATOM     28  C   UNL     1      -3.821  14.899  24.202  0.00  0.00    +0.000 A 
BRANCH  23  30
ATOM     29  C   UNL     1      -4.980  17.375  24.985  0.00  0.00    +0.000 C 
ATOM     30  O   UNL     1      -5.802  16.346  24.442  0.00  0.00    +0.000 OA
ENDBRANCH  23  30
ENDBRANCH  22  27
ENDBRANCH   1  22
TORSDOF 3
ENDMDL
MODEL 8
REMARK VINA RESULT:      -7.0      3.981      6.032
REMARK  Name = 
REMARK  6 active torsions:
REMARK  status: ('A' for Active; 'I' for Inactive)
REMARK    1  A    between atoms: C_1  and  O_2
REMARK    2  A    between atoms: O_2  and  C_3
REMARK    3  A    between atoms: C_7  and  C_8
REMARK    4  A    between atoms: C_8  and  N_9
REMARK    5  A    between atoms: C_23  and  C_24
REMARK    6  A    between atoms: C_23  and  C_25
REMARK                            x       y       z     vdW  Elec       q    Type
REMARK                         _______ _______ _______ _____ _____    ______ ____
ROOT
ATOM      1  N   UNL     1       1.676   8.713  19.624  0.00  0.00    +0.000 N 
ATOM      2  C   UNL     1       0.970   9.103  20.761  0.00  0.00    +0.000 C 
ATOM      3  O   UNL     1       1.016   8.596  21.871  0.00  0.00    +0.000 OA
ATOM      4  C   UNL     1       0.316  10.431  20.382  0.00  0.00    +0.000 C 
ATOM      5  C   UNL     1      -0.753  11.397  20.934  0.00  0.00    +0.000 C 
ATOM      6  C   UNL     1      -0.594  12.561  19.929  0.00  0.00    +0.000 A 
ATOM      7  C   UNL     1      -0.343  12.111  18.624  0.00  0.00    +0.000 A 
ATOM      8  N   UNL     1       0.826  12.728  18.226  0.00  0.00    +0.000 N 
ATOM      9  C   UNL     1       1.201  13.650  19.170  0.00  0.00    +0.000 A 
ATOM     10  C   UNL     1       2.385  14.375  19.300  0.00  0.00    +0.000 A 
ATOM     11  C   UNL     1       2.317  15.526  20.077  0.00  0.00    +0.000 A 
ATOM     12  C   UNL     1       1.126  15.888  20.709  0.00  0.00    +0.000 A 
ATOM     13  C   UNL     1       0.039  14.998  20.767  0.00  0.00    +0.000 A 
ATOM     14  C   UNL     1       0.107  13.807  20.024  0.00  0.00    +0.000 A 
ATOM     15  C   UNL     1      -0.812  10.808  17.936  0.00  0.00    +0.000 C 
ATOM     16  C   UNL     1      -2.262  11.607  17.774  0.00  0.00    +0.000 C 
ATOM     17  C   UNL     1      -1.706   9.507  18.079  0.00  0.00    +0.000 C 
ATOM     18  N   UNL     1       0.143  10.155  18.934  0.00  0.00    +0.000 N 
ATOM     19  C   UNL     1       1.167   9.322  18.515  0.00  0.00    +0.000 C 
ATOM     20  O   UNL     1       1.478   9.140  17.347  0.00  0.00    +0.000 OA
ATOM     21  H   UNL     1       1.409  12.410  17.464  0.00  0.00    +0.000 HD
ENDROOT
BRANCH   1  22
ATOM     22  C   UNL     1       2.726   7.725  19.519  0.00  0.00    +0.000 C 
BRANCH  22  27
ATOM     23  C   UNL     1       1.813   4.230  18.267  0.00  0.00    +0.000 A 
ATOM     24  C   UNL     1       1.206   3.665  19.385  0.00  0.00    +0.000 A 
ATOM     25  C   UNL     1       1.060   4.420  20.558  0.00  0.00    +0.000 A 
ATOM     26  C   UNL     1       1.537   5.733  20.609  0.00  0.00    +0.000 A 
ATOM     27  C   UNL     1       2.179   6.307  19.496  0.00  0.00    +0.000 A 
ATOM     28  C   UNL     1       2.286   5.543  18.321  0.00  0.00    +0.000 A 
BRANCH  23  30
ATOM     29  C   UNL     1       2.617   2.180  17.372  0.00  0.00    +0.000 C 
ATOM     30  O   UNL     1       1.895   3.393  17.181  0.00  0.00    +0.000 OA
ENDBRANCH  23  30
ENDBRANCH  22  27
ENDBRANCH   1  22
TORSDOF 3
ENDMDL
MODEL 9
REMARK VINA RESULT:      -6.9      0.867      1.055
REMARK  Name = 
REMARK  6 active torsions:
REMARK  status: ('A' for Active; 'I' for Inactive)
REMARK    1  A    between atoms: C_1  and  O_2
REMARK    2  A    between atoms: O_2  and  C_3
REMARK    3  A    between atoms: C_7  and  C_8
REMARK    4  A    between atoms: C_8  and  N_9
REMARK    5  A    between atoms: C_23  and  C_24
REMARK    6  A    between atoms: C_23  and  C_25
REMARK                            x       y       z     vdW  Elec       q    Type
REMARK                         _______ _______ _______ _____ _____    ______ ____
ROOT
ATOM      1  N   UNL     1       0.833  12.539  20.362  0.00  0.00    +0.000 N 
ATOM      2  C   UNL     1       1.606  12.490  19.203  0.00  0.00    +0.000 C 
ATOM      3  O   UNL     1       1.722  11.554  18.429  0.00  0.00    +0.000 OA
ATOM      4  C   UNL     1       2.082  13.927  18.989  0.00  0.00    +0.000 C 
ATOM      5  C   UNL     1       3.100  14.693  18.118  0.00  0.00    +0.000 C 
ATOM      6  C   UNL     1       2.725  16.144  18.499  0.00  0.00    +0.000 A 
ATOM      7  C   UNL     1       2.391  16.272  19.856  0.00  0.00    +0.000 A 
ATOM      8  N   UNL     1       1.132  16.837  19.887  0.00  0.00    +0.000 N 
ATOM      9  C   UNL     1       0.763  17.203  18.617  0.00  0.00    +0.000 A 
ATOM     10  C   UNL     1      -0.469  17.636  18.127  0.00  0.00    +0.000 A 
ATOM     11  C   UNL     1      -0.438  18.337  16.927  0.00  0.00    +0.000 A 
ATOM     12  C   UNL     1       0.768  18.546  16.255  0.00  0.00    +0.000 A 
ATOM     13  C   UNL     1       1.938  17.872  16.646  0.00  0.00    +0.000 A 
ATOM     14  C   UNL     1       1.916  17.121  17.833  0.00  0.00    +0.000 A 
ATOM     15  C   UNL     1       2.917  15.469  21.068  0.00  0.00    +0.000 C 
ATOM     16  C   UNL     1       4.256  16.445  20.928  0.00  0.00    +0.000 C 
ATOM     17  C   UNL     1       3.947  14.366  21.554  0.00  0.00    +0.000 C 
ATOM     18  N   UNL     1       2.136  14.327  20.417  0.00  0.00    +0.000 N 
ATOM     19  C   UNL     1       1.164  13.629  21.112  0.00  0.00    +0.000 C 
ATOM     20  O   UNL     1       0.758  13.928  22.225  0.00  0.00    +0.000 OA
ATOM     21  H   UNL     1       0.511  16.804  20.683  0.00  0.00    +0.000 HD
ENDROOT
BRANCH   1  22
ATOM     22  C   UNL     1      -0.119  11.562  20.843  0.00  0.00    +0.000 C 
BRANCH  22  27
ATOM     23  C   UNL     1      -3.110  11.402  18.467  0.00  0.00    +0.000 A 
ATOM     24  C   UNL     1      -4.071  12.138  19.153  0.00  0.00    +0.000 A 
ATOM     25  C   UNL     1      -3.756  12.722  20.389  0.00  0.00    +0.000 A 
ATOM     26  C   UNL     1      -2.482  12.551  20.939  0.00  0.00    +0.000 A 
ATOM     27  C   UNL     1      -1.509  11.784  20.270  0.00  0.00    +0.000 A 
ATOM     28  C   UNL     1      -1.836  11.236  19.019  0.00  0.00    +0.000 A 
BRANCH  23  30
ATOM     29  C   UNL     1      -2.606  10.929  16.193  0.00  0.00    +0.000 C 
ATOM     30  O   UNL     1      -3.538  10.885  17.269  0.00  0.00    +0.000 OA
ENDBRANCH  23  30
ENDBRANCH  22  27
ENDBRANCH   1  22
TORSDOF 3
ENDMDL
