MODEL 1
REMARK VINA RESULT:      -4.2      0.000      0.000
REMARK  Name = 
REMARK  5 active torsions:
REMARK  status: ('A' for Active; 'I' for Inactive)
REMARK    1  A    between atoms: C_1  and  C_2
REMARK    2  A    between atoms: C_2  and  C_3
REMARK    3  A    between atoms: C_2  and  O_4
REMARK    4  A    between atoms: O_4  and  S_5
REMARK    5  A    between atoms: S_5  and  N_6
REMARK                            x       y       z     vdW  Elec       q    Type
REMARK                         _______ _______ _______ _____ _____    ______ ____
ROOT
ATOM      1  S   UNL     1       7.595   5.591  18.928  0.00  0.00    +0.000 S 
ATOM      2  O   UNL     1       8.033   4.413  18.220  0.00  0.00    +0.000 OA
ATOM      3  O   UNL     1       7.930   6.931  18.511  0.00  0.00    +0.000 OA
ENDROOT
BRANCH   1   4
ATOM      4  N   UNL     1       8.162   5.424  20.493  0.00  0.00    +0.000 NA
ATOM      5  H   UNL     1       9.177   5.492  20.521  0.00  0.00    +0.000 HD
ATOM      6  H   UNL     1       7.769   4.603  20.944  0.00  0.00    +0.000 HD
ENDBRANCH   1   4
BRANCH   1   7
ATOM      7  O   UNL     1       5.989   5.503  19.139  0.00  0.00    +0.000 OA
BRANCH   7   9
ATOM      8  C   UNL     1       4.312   3.751  19.309  0.00  0.00    +0.000 C 
ATOM      9  C   UNL     1       5.248   4.537  18.397  0.00  0.00    +0.000 C 
ATOM     10  C   UNL     1       4.432   5.286  17.346  0.00  0.00    +0.000 C 
ENDBRANCH   7   9
ENDBRANCH   1   7
TORSDOF 3
ENDMDL
MODEL 2
REMARK VINA RESULT:      -4.1      3.823      4.037
REMARK  Name = 
REMARK  5 active torsions:
REMARK  status: ('A' for Active; 'I' for Inactive)
REMARK    1  A    between atoms: C_1  and  C_2
REMARK    2  A    between atoms: C_2  and  C_3
REMARK    3  A    between atoms: C_2  and  O_4
REMARK    4  A    between atoms: O_4  and  S_5
REMARK    5  A    between atoms: S_5  and  N_6
REMARK                            x       y       z     vdW  Elec       q    Type
REMARK                         _______ _______ _______ _____ _____    ______ ____
ROOT
ATOM      1  S   UNL     1       6.579   5.234  15.516  0.00  0.00    +0.000 S 
ATOM      2  O   UNL     1       6.263   3.854  15.792  0.00  0.00    +0.000 OA
ATOM      3  O   UNL     1       5.573   6.255  15.353  0.00  0.00    +0.000 OA
ENDROOT
BRANCH   1   4
ATOM      4  N   UNL     1       7.482   5.226  14.108  0.00  0.00    +0.000 NA
ATOM      5  H   UNL     1       8.426   5.565  14.280  0.00  0.00    +0.000 HD
ATOM      6  H   UNL     1       6.987   5.686  13.349  0.00  0.00    +0.000 HD
ENDBRANCH   1   4
BRANCH   1   7
ATOM      7  O   UNL     1       7.661   5.747  16.611  0.00  0.00    +0.000 OA
BRANCH   7   9
ATOM      8  C   UNL     1       7.684   5.832  19.040  0.00  0.00    +0.000 C 
ATOM      9  C   UNL     1       7.200   6.477  17.746  0.00  0.00    +0.000 C 
ATOM     10  C   UNL     1       7.756   7.895  17.641  0.00  0.00    +0.000 C 
ENDBRANCH   7   9
ENDBRANCH   1   7
TORSDOF 3
ENDMDL
MODEL 3
REMARK VINA RESULT:      -4.1      3.651      3.998
REMARK  Name = 
REMARK  5 active torsions:
REMARK  status: ('A' for Active; 'I' for Inactive)
REMARK    1  A    between atoms: C_1  and  C_2
REMARK    2  A    between atoms: C_2  and  C_3
REMARK    3  A    between atoms: C_2  and  O_4
REMARK    4  A    between atoms: O_4  and  S_5
REMARK    5  A    between atoms: S_5  and  N_6
REMARK                            x       y       z     vdW  Elec       q    Type
REMARK                         _______ _______ _______ _____ _____    ______ ____
ROOT
ATOM      1  S   UNL     1       6.445   5.226  15.578  0.00  0.00    +0.000 S 
ATOM      2  O   UNL     1       5.246   5.981  15.849  0.00  0.00    +0.000 OA
ATOM      3  O   UNL     1       7.070   5.181  14.278  0.00  0.00    +0.000 OA
ENDROOT
BRANCH   1   4
ATOM      4  N   UNL     1       6.096   3.644  15.992  0.00  0.00    +0.000 NA
ATOM      5  H   UNL     1       5.261   3.595  16.571  0.00  0.00    +0.000 HD
ATOM      6  H   UNL     1       6.913   3.171  16.368  0.00  0.00    +0.000 HD
ENDBRANCH   1   4
BRANCH   1   7
ATOM      7  O   UNL     1       7.570   5.624  16.677  0.00  0.00    +0.000 OA
BRANCH   7   9
ATOM      8  C   UNL     1       7.761   5.843  19.090  0.00  0.00    +0.000 C 
ATOM      9  C   UNL     1       7.186   6.415  17.799  0.00  0.00    +0.000 C 
ATOM     10  C   UNL     1       7.728   7.826  17.578  0.00  0.00    +0.000 C 
ENDBRANCH   7   9
ENDBRANCH   1   7
TORSDOF 3
ENDMDL
MODEL 4
REMARK VINA RESULT:      -4.1      4.021      4.336
REMARK  Name = 
REMARK  5 active torsions:
REMARK  status: ('A' for Active; 'I' for Inactive)
REMARK    1  A    between atoms: C_1  and  C_2
REMARK    2  A    between atoms: C_2  and  C_3
REMARK    3  A    between atoms: C_2  and  O_4
REMARK    4  A    between atoms: O_4  and  S_5
REMARK    5  A    between atoms: S_5  and  N_6
REMARK                            x       y       z     vdW  Elec       q    Type
REMARK                         _______ _______ _______ _____ _____    ______ ____
ROOT
ATOM      1  S   UNL     1       4.305   2.424  19.739  0.00  0.00    +0.000 S 
ATOM      2  O   UNL     1       4.904   1.942  20.960  0.00  0.00    +0.000 OA
ATOM      3  O   UNL     1       3.727   1.551  18.747  0.00  0.00    +0.000 OA
ENDROOT
BRANCH   1   4
ATOM      4  N   UNL     1       5.493   3.307  18.960  0.00  0.00    +0.000 NA
ATOM      5  H   UNL     1       5.609   2.993  18.000  0.00  0.00    +0.000 HD
ATOM      6  H   UNL     1       6.346   3.346  19.511  0.00  0.00    +0.000 HD
ENDBRANCH   1   4
BRANCH   1   7
ATOM      7  O   UNL     1       3.219   3.571  20.111  0.00  0.00    +0.000 OA
BRANCH   7   9
ATOM      8  C   UNL     1       0.827   3.939  20.333  0.00  0.00    +0.000 C 
ATOM      9  C   UNL     1       1.985   3.608  19.399  0.00  0.00    +0.000 C 
ATOM     10  C   UNL     1       2.102   4.688  18.325  0.00  0.00    +0.000 C 
ENDBRANCH   7   9
ENDBRANCH   1   7
TORSDOF 3
ENDMDL
MODEL 5
REMARK VINA RESULT:      -4.0      1.299      1.573
REMARK  Name = 
REMARK  5 active torsions:
REMARK  status: ('A' for Active; 'I' for Inactive)
REMARK    1  A    between atoms: C_1  and  C_2
REMARK    2  A    between atoms: C_2  and  C_3
REMARK    3  A    between atoms: C_2  and  O_4
REMARK    4  A    between atoms: O_4  and  S_5
REMARK    5  A    between atoms: S_5  and  N_6
REMARK                            x       y       z     vdW  Elec       q    Type
REMARK                         _______ _______ _______ _____ _____    ______ ____
ROOT
ATOM      1  S   UNL     1       7.333   5.634  18.968  0.00  0.00    +0.000 S 
ATOM      2  O   UNL     1       7.748   6.822  18.262  0.00  0.00    +0.000 OA
ATOM      3  O   UNL     1       7.747   5.334  20.316  0.00  0.00    +0.000 OA
ENDROOT
BRANCH   1   4
ATOM      4  N   UNL     1       7.821   4.343  18.022  0.00  0.00    +0.000 NA
ATOM      5  H   UNL     1       7.998   3.520  18.593  0.00  0.00    +0.000 HD
ATOM      6  H   UNL     1       8.577   4.608  17.396  0.00  0.00    +0.000 HD
ENDBRANCH   1   4
BRANCH   1   7
ATOM      7  O   UNL     1       5.717   5.520  18.888  0.00  0.00    +0.000 OA
BRANCH   7   9
ATOM      8  C   UNL     1       4.461   3.486  19.332  0.00  0.00    +0.000 C 
ATOM      9  C   UNL     1       5.136   4.365  18.285  0.00  0.00    +0.000 C 
ATOM     10  C   UNL     1       4.100   4.844  17.271  0.00  0.00    +0.000 C 
ENDBRANCH   7   9
ENDBRANCH   1   7
TORSDOF 3
ENDMDL
MODEL 6
REMARK VINA RESULT:      -4.0      2.029      2.259
REMARK  Name = 
REMARK  5 active torsions:
REMARK  status: ('A' for Active; 'I' for Inactive)
REMARK    1  A    between atoms: C_1  and  C_2
REMARK    2  A    between atoms: C_2  and  C_3
REMARK    3  A    between atoms: C_2  and  O_4
REMARK    4  A    between atoms: O_4  and  S_5
REMARK    5  A    between atoms: S_5  and  N_6
REMARK                            x       y       z     vdW  Elec       q    Type
REMARK                         _______ _______ _______ _____ _____    ______ ____
ROOT
ATOM      1  S   UNL     1       6.972   5.058  18.568  0.00  0.00    +0.000 S 
ATOM      2  O   UNL     1       7.921   4.581  17.592  0.00  0.00    +0.000 OA
ATOM      3  O   UNL     1       7.340   5.411  19.917  0.00  0.00    +0.000 OA
ENDROOT
BRANCH   1   4
ATOM      4  N   UNL     1       5.801   3.869  18.690  0.00  0.00    +0.000 NA
ATOM      5  H   UNL     1       4.878   4.279  18.809  0.00  0.00    +0.000 HD
ATOM      6  H   UNL     1       6.057   3.167  19.378  0.00  0.00    +0.000 HD
ENDBRANCH   1   4
BRANCH   1   7
ATOM      7  O   UNL     1       6.138   6.290  17.922  0.00  0.00    +0.000 OA
BRANCH   7   9
ATOM      8  C   UNL     1       3.847   7.019  17.561  0.00  0.00    +0.000 C 
ATOM      9  C   UNL     1       4.935   6.010  17.210  0.00  0.00    +0.000 C 
ATOM     10  C   UNL     1       5.249   6.094  15.718  0.00  0.00    +0.000 C 
ENDBRANCH   7   9
ENDBRANCH   1   7
TORSDOF 3
ENDMDL
MODEL 7
REMARK VINA RESULT:      -4.0      3.488      3.912
REMARK  Name = 
REMARK  5 active torsions:
REMARK  status: ('A' for Active; 'I' for Inactive)
REMARK    1  A    between atoms: C_1  and  C_2
REMARK    2  A    between atoms: C_2  and  C_3
REMARK    3  A    between atoms: C_2  and  O_4
REMARK    4  A    between atoms: O_4  and  S_5
REMARK    5  A    between atoms: S_5  and  N_6
REMARK                            x       y       z     vdW  Elec       q    Type
REMARK                         _______ _______ _______ _____ _____    ______ ____
ROOT
ATOM      1  S   UNL     1       6.836   4.920  15.189  0.00  0.00    +0.000 S 
ATOM      2  O   UNL     1       7.805   5.417  14.243  0.00  0.00    +0.000 OA
ATOM      3  O   UNL     1       6.160   3.656  15.034  0.00  0.00    +0.000 OA
ENDROOT
BRANCH   1   4
ATOM      4  N   UNL     1       5.643   6.089  15.282  0.00  0.00    +0.000 NA
ATOM      5  H   UNL     1       5.687   6.718  14.484  0.00  0.00    +0.000 HD
ATOM      6  H   UNL     1       5.639   6.542  16.192  0.00  0.00    +0.000 HD
ENDBRANCH   1   4
BRANCH   1   7
ATOM      7  O   UNL     1       7.484   4.979  16.676  0.00  0.00    +0.000 OA
BRANCH   7   9
ATOM      8  C   UNL     1       5.966   4.641  18.544  0.00  0.00    +0.000 C 
ATOM      9  C   UNL     1       6.766   5.640  17.714  0.00  0.00    +0.000 C 
ATOM     10  C   UNL     1       7.785   6.346  18.605  0.00  0.00    +0.000 C 
ENDBRANCH   7   9
ENDBRANCH   1   7
TORSDOF 3
ENDMDL
MODEL 8
REMARK VINA RESULT:      -4.0      4.441      4.930
REMARK  Name = 
REMARK  5 active torsions:
REMARK  status: ('A' for Active; 'I' for Inactive)
REMARK    1  A    between atoms: C_1  and  C_2
REMARK    2  A    between atoms: C_2  and  C_3
REMARK    3  A    between atoms: C_2  and  O_4
REMARK    4  A    between atoms: O_4  and  S_5
REMARK    5  A    between atoms: S_5  and  N_6
REMARK                            x       y       z     vdW  Elec       q    Type
REMARK                         _______ _______ _______ _____ _____    ______ ____
ROOT
ATOM      1  S   UNL     1       3.878   2.513  18.791  0.00  0.00    +0.000 S 
ATOM      2  O   UNL     1       3.842   3.200  17.523  0.00  0.00    +0.000 OA
ATOM      3  O   UNL     1       4.894   2.750  19.787  0.00  0.00    +0.000 OA
ENDROOT
BRANCH   1   4
ATOM      4  N   UNL     1       3.940   0.881  18.427  0.00  0.00    +0.000 NA
ATOM      5  H   UNL     1       3.207   0.372  18.914  0.00  0.00    +0.000 HD
ATOM      6  H   UNL     1       4.879   0.511  18.548  0.00  0.00    +0.000 HD
ENDBRANCH   1   4
BRANCH   1   7
ATOM      7  O   UNL     1       2.423   2.647  19.497  0.00  0.00    +0.000 OA
BRANCH   7   9
ATOM      8  C   UNL     1       1.559   4.725  20.415  0.00  0.00    +0.000 C 
ATOM      9  C   UNL     1       2.305   3.424  20.687  0.00  0.00    +0.000 C 
ATOM     10  C   UNL     1       1.530   2.592  21.707  0.00  0.00    +0.000 C 
ENDBRANCH   7   9
ENDBRANCH   1   7
TORSDOF 3
ENDMDL
MODEL 9
REMARK VINA RESULT:      -4.0      2.416      2.714
REMARK  Name = 
REMARK  5 active torsions:
REMARK  status: ('A' for Active; 'I' for Inactive)
REMARK    1  A    between atoms: C_1  and  C_2
REMARK    2  A    between atoms: C_2  and  C_3
REMARK    3  A    between atoms: C_2  and  O_4
REMARK    4  A    between atoms: O_4  and  S_5
REMARK    5  A    between atoms: S_5  and  N_6
REMARK                            x       y       z     vdW  Elec       q    Type
REMARK                         _______ _______ _______ _____ _____    ______ ____
ROOT
ATOM      1  S   UNL     1       7.036   4.680  16.577  0.00  0.00    +0.000 S 
ATOM      2  O   UNL     1       8.160   4.187  17.334  0.00  0.00    +0.000 OA
ATOM      3  O   UNL     1       6.598   4.085  15.338  0.00  0.00    +0.000 OA
ENDROOT
BRANCH   1   4
ATOM      4  N   UNL     1       7.374   6.283  16.241  0.00  0.00    +0.000 NA
ATOM      5  H   UNL     1       8.256   6.565  16.662  0.00  0.00    +0.000 HD
ATOM      6  H   UNL     1       6.581   6.881  16.454  0.00  0.00    +0.000 HD
ENDBRANCH   1   4
BRANCH   1   7
ATOM      7  O   UNL     1       5.757   4.804  17.569  0.00  0.00    +0.000 OA
BRANCH   7   9
ATOM      8  C   UNL     1       3.520   3.899  17.274  0.00  0.00    +0.000 C 
ATOM      9  C   UNL     1       4.472   5.060  17.007  0.00  0.00    +0.000 C 
ATOM     10  C   UNL     1       3.927   6.330  17.657  0.00  0.00    +0.000 C 
ENDBRANCH   7   9
ENDBRANCH   1   7
TORSDOF 3
ENDMDL
