MODEL 1
REMARK VINA RESULT:      -7.3      0.000      0.000
REMARK  Name = 
REMARK  4 active torsions:
REMARK  status: ('A' for Active; 'I' for Inactive)
REMARK    1  A    between atoms: N_1  and  N_2
REMARK    2  A    between atoms: C_3  and  C_5
REMARK    3  A    between atoms: N_7  and  C_8
REMARK    4  A    between atoms: C_15  and  O_16
REMARK                            x       y       z     vdW  Elec       q    Type
REMARK                         _______ _______ _______ _____ _____    ______ ____
ROOT
ATOM      1  C   UNL     1       5.912   4.383  16.301  0.00  0.00    +0.000 A 
ATOM      2  N   UNL     1       4.610   4.123  16.558  0.00  0.00    +0.000 NA
ATOM      3  N   UNL     1       4.508   4.118  17.919  0.00  0.00    +0.000 N 
ATOM      4  C   UNL     1       5.718   4.390  18.519  0.00  0.00    +0.000 A 
ATOM      5  C   UNL     1       6.620   4.557  17.507  0.00  0.00    +0.000 A 
ENDROOT
BRANCH   3   6
ATOM      6  C   UNL     1       3.263   3.857  18.563  0.00  0.00    +0.000 A 
ATOM      7  C   UNL     1       2.359   2.951  17.987  0.00  0.00    +0.000 A 
ATOM      8  C   UNL     1       1.134   2.691  18.608  0.00  0.00    +0.000 A 
ATOM      9  C   UNL     1       0.802   3.331  19.800  0.00  0.00    +0.000 A 
ATOM     10  C   UNL     1       1.696   4.229  20.380  0.00  0.00    +0.000 A 
ATOM     11  C   UNL     1       2.924   4.492  19.767  0.00  0.00    +0.000 A 
ENDBRANCH   3   6
BRANCH   1  13
ATOM     12  N   UNL     1       7.392   5.447  14.755  0.00  0.00    +0.000 N 
ATOM     13  C   UNL     1       6.430   4.447  14.925  0.00  0.00    +0.000 C 
ATOM     14  O   UNL     1       6.051   3.722  14.006  0.00  0.00    +0.000 OA
ATOM     15  H   UNL     1       7.698   5.925  15.602  0.00  0.00    +0.000 HD
BRANCH  12  16
ATOM     16  N   UNL     1       8.087   5.588  13.534  0.00  0.00    +0.000 NA
ATOM     17  H   UNL     1       7.633   5.009  12.826  0.00  0.00    +0.000 HD
ATOM     18  H   UNL     1       9.022   5.180  13.670  0.00  0.00    +0.000 HD
ENDBRANCH  12  16
ENDBRANCH   1  13
BRANCH   5  19
ATOM     19  O   UNL     1       7.919   4.832  17.691  0.00  0.00    +0.000 OA
ATOM     20  H   UNL     1       8.352   4.145  18.225  0.00  0.00    +0.000 HD
ENDBRANCH   5  19
TORSDOF 4
ENDMDL
MODEL 2
REMARK VINA RESULT:      -7.3      0.173      1.220
REMARK  Name = 
REMARK  4 active torsions:
REMARK  status: ('A' for Active; 'I' for Inactive)
REMARK    1  A    between atoms: N_1  and  N_2
REMARK    2  A    between atoms: C_3  and  C_5
REMARK    3  A    between atoms: N_7  and  C_8
REMARK    4  A    between atoms: C_15  and  O_16
REMARK                            x       y       z     vdW  Elec       q    Type
REMARK                         _______ _______ _______ _____ _____    ______ ____
ROOT
ATOM      1  C   UNL     1       5.823   4.446  16.258  0.00  0.00    +0.000 A 
ATOM      2  N   UNL     1       4.521   4.237  16.559  0.00  0.00    +0.000 NA
ATOM      3  N   UNL     1       4.477   4.156  17.921  0.00  0.00    +0.000 N 
ATOM      4  C   UNL     1       5.724   4.329  18.480  0.00  0.00    +0.000 A 
ATOM      5  C   UNL     1       6.590   4.511  17.438  0.00  0.00    +0.000 A 
ENDROOT
BRANCH   3   6
ATOM      6  C   UNL     1       3.248   3.919  18.604  0.00  0.00    +0.000 A 
ATOM      7  C   UNL     1       2.986   4.582  19.813  0.00  0.00    +0.000 A 
ATOM      8  C   UNL     1       1.786   4.355  20.493  0.00  0.00    +0.000 A 
ATOM      9  C   UNL     1       0.845   3.467  19.976  0.00  0.00    +0.000 A 
ATOM     10  C   UNL     1       1.097   2.807  18.775  0.00  0.00    +0.000 A 
ATOM     11  C   UNL     1       2.292   3.032  18.088  0.00  0.00    +0.000 A 
ENDBRANCH   3   6
BRANCH   1  13
ATOM     12  N   UNL     1       7.393   5.410  14.734  0.00  0.00    +0.000 N 
ATOM     13  C   UNL     1       6.284   4.568  14.865  0.00  0.00    +0.000 C 
ATOM     14  O   UNL     1       5.750   4.012  13.907  0.00  0.00    +0.000 OA
ATOM     15  H   UNL     1       7.811   5.741  15.603  0.00  0.00    +0.000 HD
BRANCH  12  16
ATOM     16  N   UNL     1       8.048   5.561  13.493  0.00  0.00    +0.000 NA
ATOM     17  H   UNL     1       7.841   6.488  13.120  0.00  0.00    +0.000 HD
ATOM     18  H   UNL     1       7.615   4.895  12.839  0.00  0.00    +0.000 HD
ENDBRANCH  12  16
ENDBRANCH   1  13
BRANCH   5  19
ATOM     19  O   UNL     1       7.909   4.709  17.579  0.00  0.00    +0.000 OA
ATOM     20  H   UNL     1       8.413   3.926  17.299  0.00  0.00    +0.000 HD
ENDBRANCH   5  19
TORSDOF 4
ENDMDL
MODEL 3
REMARK VINA RESULT:      -7.2      1.010      1.249
REMARK  Name = 
REMARK  4 active torsions:
REMARK  status: ('A' for Active; 'I' for Inactive)
REMARK    1  A    between atoms: N_1  and  N_2
REMARK    2  A    between atoms: C_3  and  C_5
REMARK    3  A    between atoms: N_7  and  C_8
REMARK    4  A    between atoms: C_15  and  O_16
REMARK                            x       y       z     vdW  Elec       q    Type
REMARK                         _______ _______ _______ _____ _____    ______ ____
ROOT
ATOM      1  C   UNL     1       6.131   4.358  15.768  0.00  0.00    +0.000 A 
ATOM      2  N   UNL     1       4.866   3.903  15.920  0.00  0.00    +0.000 NA
ATOM      3  N   UNL     1       4.651   3.885  17.267  0.00  0.00    +0.000 N 
ATOM      4  C   UNL     1       5.750   4.340  17.963  0.00  0.00    +0.000 A 
ATOM      5  C   UNL     1       6.699   4.641  17.027  0.00  0.00    +0.000 A 
ENDROOT
BRANCH   3   6
ATOM      6  C   UNL     1       3.410   3.438  17.808  0.00  0.00    +0.000 A 
ATOM      7  C   UNL     1       2.293   4.287  17.780  0.00  0.00    +0.000 A 
ATOM      8  C   UNL     1       1.072   3.860  18.311  0.00  0.00    +0.000 A 
ATOM      9  C   UNL     1       0.958   2.590  18.873  0.00  0.00    +0.000 A 
ATOM     10  C   UNL     1       2.061   1.741  18.901  0.00  0.00    +0.000 A 
ATOM     11  C   UNL     1       3.284   2.159  18.369  0.00  0.00    +0.000 A 
ENDBRANCH   3   6
BRANCH   1  13
ATOM     12  N   UNL     1       7.709   5.513  14.393  0.00  0.00    +0.000 N 
ATOM     13  C   UNL     1       6.748   4.498  14.440  0.00  0.00    +0.000 C 
ATOM     14  O   UNL     1       6.447   3.818  13.460  0.00  0.00    +0.000 OA
ATOM     15  H   UNL     1       7.946   5.949  15.285  0.00  0.00    +0.000 HD
BRANCH  12  16
ATOM     16  N   UNL     1       8.491   5.723  13.237  0.00  0.00    +0.000 NA
ATOM     17  H   UNL     1       9.209   4.999  13.188  0.00  0.00    +0.000 HD
ATOM     18  H   UNL     1       8.996   6.609  13.370  0.00  0.00    +0.000 HD
ENDBRANCH  12  16
ENDBRANCH   1  13
BRANCH   5  19
ATOM     19  O   UNL     1       7.921   5.112  17.315  0.00  0.00    +0.000 OA
ATOM     20  H   UNL     1       8.589   4.750  16.709  0.00  0.00    +0.000 HD
ENDBRANCH   5  19
TORSDOF 4
ENDMDL
MODEL 4
REMARK VINA RESULT:      -7.2      1.034      1.034
REMARK  Name = 
REMARK  4 active torsions:
REMARK  status: ('A' for Active; 'I' for Inactive)
REMARK    1  A    between atoms: N_1  and  N_2
REMARK    2  A    between atoms: C_3  and  C_5
REMARK    3  A    between atoms: N_7  and  C_8
REMARK    4  A    between atoms: C_15  and  O_16
REMARK                            x       y       z     vdW  Elec       q    Type
REMARK                         _______ _______ _______ _____ _____    ______ ____
ROOT
ATOM      1  C   UNL     1       5.616   5.063  16.949  0.00  0.00    +0.000 A 
ATOM      2  N   UNL     1       4.304   4.835  17.188  0.00  0.00    +0.000 NA
ATOM      3  N   UNL     1       4.260   4.258  18.424  0.00  0.00    +0.000 N 
ATOM      4  C   UNL     1       5.518   4.138  18.973  0.00  0.00    +0.000 A 
ATOM      5  C   UNL     1       6.390   4.641  18.049  0.00  0.00    +0.000 A 
ENDROOT
BRANCH   3   6
ATOM      6  C   UNL     1       3.021   3.859  19.005  0.00  0.00    +0.000 A 
ATOM      7  C   UNL     1       2.137   3.051  18.273  0.00  0.00    +0.000 A 
ATOM      8  C   UNL     1       0.918   2.657  18.832  0.00  0.00    +0.000 A 
ATOM      9  C   UNL     1       0.573   3.066  20.119  0.00  0.00    +0.000 A 
ATOM     10  C   UNL     1       1.446   3.865  20.853  0.00  0.00    +0.000 A 
ATOM     11  C   UNL     1       2.668   4.260  20.302  0.00  0.00    +0.000 A 
ENDBRANCH   3   6
BRANCH   1  13
ATOM     12  N   UNL     1       7.304   5.142  15.258  0.00  0.00    +0.000 N 
ATOM     13  C   UNL     1       6.079   5.663  15.688  0.00  0.00    +0.000 C 
ATOM     14  O   UNL     1       5.477   6.544  15.077  0.00  0.00    +0.000 OA
ATOM     15  H   UNL     1       7.667   4.351  15.790  0.00  0.00    +0.000 HD
BRANCH  12  16
ATOM     16  N   UNL     1       7.854   5.511  14.011  0.00  0.00    +0.000 NA
ATOM     17  H   UNL     1       8.367   4.716  13.629  0.00  0.00    +0.000 HD
ATOM     18  H   UNL     1       8.559   6.237  14.195  0.00  0.00    +0.000 HD
ENDBRANCH  12  16
ENDBRANCH   1  13
BRANCH   5  19
ATOM     19  O   UNL     1       7.719   4.693  18.216  0.00  0.00    +0.000 OA
ATOM     20  H   UNL     1       8.056   5.594  18.073  0.00  0.00    +0.000 HD
ENDBRANCH   5  19
TORSDOF 4
ENDMDL
MODEL 5
REMARK VINA RESULT:      -7.2      1.565      1.978
REMARK  Name = 
REMARK  4 active torsions:
REMARK  status: ('A' for Active; 'I' for Inactive)
REMARK    1  A    between atoms: N_1  and  N_2
REMARK    2  A    between atoms: C_3  and  C_5
REMARK    3  A    between atoms: N_7  and  C_8
REMARK    4  A    between atoms: C_15  and  O_16
REMARK                            x       y       z     vdW  Elec       q    Type
REMARK                         _______ _______ _______ _____ _____    ______ ____
ROOT
ATOM      1  C   UNL     1       6.110   5.132  15.770  0.00  0.00    +0.000 A 
ATOM      2  N   UNL     1       4.945   4.573  16.169  0.00  0.00    +0.000 NA
ATOM      3  N   UNL     1       4.679   5.129  17.387  0.00  0.00    +0.000 N 
ATOM      4  C   UNL     1       5.646   6.042  17.749  0.00  0.00    +0.000 A 
ATOM      5  C   UNL     1       6.563   6.053  16.736  0.00  0.00    +0.000 A 
ENDROOT
BRANCH   3   6
ATOM      6  C   UNL     1       3.520   4.758  18.128  0.00  0.00    +0.000 A 
ATOM      7  C   UNL     1       3.312   5.293  19.409  0.00  0.00    +0.000 A 
ATOM      8  C   UNL     1       2.180   4.932  20.146  0.00  0.00    +0.000 A 
ATOM      9  C   UNL     1       1.253   4.038  19.615  0.00  0.00    +0.000 A 
ATOM     10  C   UNL     1       1.451   3.506  18.343  0.00  0.00    +0.000 A 
ATOM     11  C   UNL     1       2.578   3.863  17.598  0.00  0.00    +0.000 A 
ENDBRANCH   3   6
BRANCH   1  13
ATOM     12  N   UNL     1       6.165   3.638  13.904  0.00  0.00    +0.000 N 
ATOM     13  C   UNL     1       6.746   4.764  14.495  0.00  0.00    +0.000 C 
ATOM     14  O   UNL     1       7.701   5.360  13.999  0.00  0.00    +0.000 OA
ATOM     15  H   UNL     1       5.321   3.281  14.352  0.00  0.00    +0.000 HD
BRANCH  12  16
ATOM     16  N   UNL     1       6.564   3.201  12.623  0.00  0.00    +0.000 NA
ATOM     17  H   UNL     1       7.446   2.694  12.706  0.00  0.00    +0.000 HD
ATOM     18  H   UNL     1       6.777   4.042  12.069  0.00  0.00    +0.000 HD
ENDBRANCH  12  16
ENDBRANCH   1  13
BRANCH   5  19
ATOM     19  O   UNL     1       7.664   6.818  16.723  0.00  0.00    +0.000 OA
ATOM     20  H   UNL     1       8.426   6.330  16.368  0.00  0.00    +0.000 HD
ENDBRANCH   5  19
TORSDOF 4
ENDMDL
MODEL 6
REMARK VINA RESULT:      -7.1      1.095      1.629
REMARK  Name = 
REMARK  4 active torsions:
REMARK  status: ('A' for Active; 'I' for Inactive)
REMARK    1  A    between atoms: N_1  and  N_2
REMARK    2  A    between atoms: C_3  and  C_5
REMARK    3  A    between atoms: N_7  and  C_8
REMARK    4  A    between atoms: C_15  and  O_16
REMARK                            x       y       z     vdW  Elec       q    Type
REMARK                         _______ _______ _______ _____ _____    ______ ____
ROOT
ATOM      1  C   UNL     1       6.036   4.373  16.394  0.00  0.00    +0.000 A 
ATOM      2  N   UNL     1       4.746   4.019  16.592  0.00  0.00    +0.000 NA
ATOM      3  N   UNL     1       4.566   4.061  17.944  0.00  0.00    +0.000 N 
ATOM      4  C   UNL     1       5.715   4.453  18.596  0.00  0.00    +0.000 A 
ATOM      5  C   UNL     1       6.658   4.652  17.628  0.00  0.00    +0.000 A 
ENDROOT
BRANCH   3   6
ATOM      6  C   UNL     1       3.311   3.726  18.530  0.00  0.00    +0.000 A 
ATOM      7  C   UNL     1       2.877   4.402  19.680  0.00  0.00    +0.000 A 
ATOM      8  C   UNL     1       1.649   4.079  20.265  0.00  0.00    +0.000 A 
ATOM      9  C   UNL     1       0.850   3.082  19.710  0.00  0.00    +0.000 A 
ATOM     10  C   UNL     1       1.272   2.408  18.567  0.00  0.00    +0.000 A 
ATOM     11  C   UNL     1       2.496   2.727  17.974  0.00  0.00    +0.000 A 
ENDBRANCH   3   6
BRANCH   1  13
ATOM     12  N   UNL     1       6.099   3.454  14.188  0.00  0.00    +0.000 N 
ATOM     13  C   UNL     1       6.626   4.424  15.047  0.00  0.00    +0.000 C 
ATOM     14  O   UNL     1       7.504   5.214  14.703  0.00  0.00    +0.000 OA
ATOM     15  H   UNL     1       5.311   2.917  14.548  0.00  0.00    +0.000 HD
BRANCH  12  16
ATOM     16  N   UNL     1       6.457   3.420  12.823  0.00  0.00    +0.000 NA
ATOM     17  H   UNL     1       6.413   4.367  12.445  0.00  0.00    +0.000 HD
ATOM     18  H   UNL     1       5.725   2.890  12.332  0.00  0.00    +0.000 HD
ENDBRANCH  12  16
ENDBRANCH   1  13
BRANCH   5  19
ATOM     19  O   UNL     1       7.919   5.039  17.870  0.00  0.00    +0.000 OA
ATOM     20  H   UNL     1       7.942   5.854  18.398  0.00  0.00    +0.000 HD
ENDBRANCH   5  19
TORSDOF 4
ENDMDL
MODEL 7
REMARK VINA RESULT:      -7.1      1.163      1.163
REMARK  Name = 
REMARK  4 active torsions:
REMARK  status: ('A' for Active; 'I' for Inactive)
REMARK    1  A    between atoms: N_1  and  N_2
REMARK    2  A    between atoms: C_3  and  C_5
REMARK    3  A    between atoms: N_7  and  C_8
REMARK    4  A    between atoms: C_15  and  O_16
REMARK                            x       y       z     vdW  Elec       q    Type
REMARK                         _______ _______ _______ _____ _____    ______ ____
ROOT
ATOM      1  C   UNL     1       5.979   4.547  16.799  0.00  0.00    +0.000 A 
ATOM      2  N   UNL     1       4.720   4.083  16.969  0.00  0.00    +0.000 NA
ATOM      3  N   UNL     1       4.460   4.231  18.301  0.00  0.00    +0.000 N 
ATOM      4  C   UNL     1       5.525   4.799  18.965  0.00  0.00    +0.000 A 
ATOM      5  C   UNL     1       6.498   5.003  18.028  0.00  0.00    +0.000 A 
ENDROOT
BRANCH   3   6
ATOM      6  C   UNL     1       3.211   3.825  18.856  0.00  0.00    +0.000 A 
ATOM      7  C   UNL     1       2.351   3.007  18.109  0.00  0.00    +0.000 A 
ATOM      8  C   UNL     1       1.122   2.606  18.643  0.00  0.00    +0.000 A 
ATOM      9  C   UNL     1       0.745   3.019  19.919  0.00  0.00    +0.000 A 
ATOM     10  C   UNL     1       1.595   3.828  20.668  0.00  0.00    +0.000 A 
ATOM     11  C   UNL     1       2.826   4.231  20.143  0.00  0.00    +0.000 A 
ENDBRANCH   3   6
BRANCH   1  13
ATOM     12  N   UNL     1       6.078   3.596  14.608  0.00  0.00    +0.000 N 
ATOM     13  C   UNL     1       6.637   4.533  15.483  0.00  0.00    +0.000 C 
ATOM     14  O   UNL     1       7.591   5.246  15.177  0.00  0.00    +0.000 OA
ATOM     15  H   UNL     1       5.232   3.127  14.933  0.00  0.00    +0.000 HD
BRANCH  12  16
ATOM     16  N   UNL     1       6.499   3.514  13.264  0.00  0.00    +0.000 NA
ATOM     17  H   UNL     1       5.799   2.999  12.729  0.00  0.00    +0.000 HD
ATOM     18  H   UNL     1       7.347   2.932  13.247  0.00  0.00    +0.000 HD
ENDBRANCH  12  16
ENDBRANCH   1  13
BRANCH   5  19
ATOM     19  O   UNL     1       7.699   5.537  18.291  0.00  0.00    +0.000 OA
ATOM     20  H   UNL     1       8.365   4.847  18.446  0.00  0.00    +0.000 HD
ENDBRANCH   5  19
TORSDOF 4
ENDMDL
MODEL 8
REMARK VINA RESULT:      -7.1      1.578      1.578
REMARK  Name = 
REMARK  4 active torsions:
REMARK  status: ('A' for Active; 'I' for Inactive)
REMARK    1  A    between atoms: N_1  and  N_2
REMARK    2  A    between atoms: C_3  and  C_5
REMARK    3  A    between atoms: N_7  and  C_8
REMARK    4  A    between atoms: C_15  and  O_16
REMARK                            x       y       z     vdW  Elec       q    Type
REMARK                         _______ _______ _______ _____ _____    ______ ____
ROOT
ATOM      1  C   UNL     1       5.914   5.202  15.898  0.00  0.00    +0.000 A 
ATOM      2  N   UNL     1       4.828   4.529  16.341  0.00  0.00    +0.000 NA
ATOM      3  N   UNL     1       4.466   5.154  17.498  0.00  0.00    +0.000 N 
ATOM      4  C   UNL     1       5.294   6.219  17.780  0.00  0.00    +0.000 A 
ATOM      5  C   UNL     1       6.220   6.262  16.776  0.00  0.00    +0.000 A 
ENDROOT
BRANCH   3   6
ATOM      6  C   UNL     1       3.353   4.699  18.264  0.00  0.00    +0.000 A 
ATOM      7  C   UNL     1       2.369   3.904  17.655  0.00  0.00    +0.000 A 
ATOM      8  C   UNL     1       1.271   3.455  18.395  0.00  0.00    +0.000 A 
ATOM      9  C   UNL     1       1.146   3.796  19.740  0.00  0.00    +0.000 A 
ATOM     10  C   UNL     1       2.120   4.581  20.352  0.00  0.00    +0.000 A 
ATOM     11  C   UNL     1       3.222   5.031  19.620  0.00  0.00    +0.000 A 
ENDBRANCH   3   6
BRANCH   1  13
ATOM     12  N   UNL     1       6.021   3.721  14.025  0.00  0.00    +0.000 N 
ATOM     13  C   UNL     1       6.620   4.809  14.668  0.00  0.00    +0.000 C 
ATOM     14  O   UNL     1       7.639   5.354  14.248  0.00  0.00    +0.000 OA
ATOM     15  H   UNL     1       5.128   3.409  14.407  0.00  0.00    +0.000 HD
BRANCH  12  16
ATOM     16  N   UNL     1       6.486   3.271  12.770  0.00  0.00    +0.000 NA
ATOM     17  H   UNL     1       6.089   3.863  12.039  0.00  0.00    +0.000 HD
ATOM     18  H   UNL     1       6.087   2.335  12.618  0.00  0.00    +0.000 HD
ENDBRANCH  12  16
ENDBRANCH   1  13
BRANCH   5  19
ATOM     19  O   UNL     1       7.208   7.164  16.699  0.00  0.00    +0.000 OA
ATOM     20  H   UNL     1       7.858   7.036  17.410  0.00  0.00    +0.000 HD
ENDBRANCH   5  19
TORSDOF 4
ENDMDL
MODEL 9
REMARK VINA RESULT:      -7.0      0.976      1.254
REMARK  Name = 
REMARK  4 active torsions:
REMARK  status: ('A' for Active; 'I' for Inactive)
REMARK    1  A    between atoms: N_1  and  N_2
REMARK    2  A    between atoms: C_3  and  C_5
REMARK    3  A    between atoms: N_7  and  C_8
REMARK    4  A    between atoms: C_15  and  O_16
REMARK                            x       y       z     vdW  Elec       q    Type
REMARK                         _______ _______ _______ _____ _____    ______ ____
ROOT
ATOM      1  C   UNL     1       5.904   4.492  16.946  0.00  0.00    +0.000 A 
ATOM      2  N   UNL     1       4.685   4.012  17.284  0.00  0.00    +0.000 NA
ATOM      3  N   UNL     1       4.576   4.227  18.627  0.00  0.00    +0.000 N 
ATOM      4  C   UNL     1       5.695   4.850  19.134  0.00  0.00    +0.000 A 
ATOM      5  C   UNL     1       6.549   5.023  18.081  0.00  0.00    +0.000 A 
ENDROOT
BRANCH   3   6
ATOM      6  C   UNL     1       3.410   3.826  19.344  0.00  0.00    +0.000 A 
ATOM      7  C   UNL     1       3.537   3.008  20.477  0.00  0.00    +0.000 A 
ATOM      8  C   UNL     1       2.400   2.605  21.184  0.00  0.00    +0.000 A 
ATOM      9  C   UNL     1       1.135   3.013  20.767  0.00  0.00    +0.000 A 
ATOM     10  C   UNL     1       1.001   3.828  19.645  0.00  0.00    +0.000 A 
ATOM     11  C   UNL     1       2.132   4.237  18.935  0.00  0.00    +0.000 A 
ENDBRANCH   3   6
BRANCH   1  13
ATOM     12  N   UNL     1       7.260   5.481  15.243  0.00  0.00    +0.000 N 
ATOM     13  C   UNL     1       6.407   4.420  15.565  0.00  0.00    +0.000 C 
ATOM     14  O   UNL     1       6.103   3.541  14.760  0.00  0.00    +0.000 OA
ATOM     15  H   UNL     1       7.518   6.099  16.013  0.00  0.00    +0.000 HD
BRANCH  12  16
ATOM     16  N   UNL     1       7.932   5.524  14.003  0.00  0.00    +0.000 NA
ATOM     17  H   UNL     1       8.937   5.469  14.170  0.00  0.00    +0.000 HD
ATOM     18  H   UNL     1       7.766   6.456  13.601  0.00  0.00    +0.000 HD
ENDBRANCH  12  16
ENDBRANCH   1  13
BRANCH   5  19
ATOM     19  O   UNL     1       7.758   5.594  18.176  0.00  0.00    +0.000 OA
ATOM     20  H   UNL     1       8.141   5.464  19.060  0.00  0.00    +0.000 HD
ENDBRANCH   5  19
TORSDOF 4
ENDMDL
