MODEL 1
REMARK VINA RESULT:      -7.1      0.000      0.000
REMARK  Name = 
REMARK  3 active torsions:
REMARK  status: ('A' for Active; 'I' for Inactive)
REMARK    1  A    between atoms: C_1  and  C_2
REMARK    2  A    between atoms: C_5  and  C_6
REMARK    3  A    between atoms: C_12  and  C_13
REMARK                            x       y       z     vdW  Elec       q    Type
REMARK                         _______ _______ _______ _____ _____    ______ ____
ROOT
ATOM      1  C   UNL     1       4.247   4.045  17.414  0.00  0.00    +0.000 A 
ATOM      2  C   UNL     1       3.759   2.818  17.812  0.00  0.00    +0.000 A 
ATOM      3  N   UNL     1       2.884   3.080  18.834  0.00  0.00    +0.000 N 
ATOM      4  C   UNL     1       2.101   2.197  19.570  0.00  0.00    +0.000 A 
ATOM      5  C   UNL     1       1.291   2.686  20.522  0.00  0.00    +0.000 A 
ATOM      6  C   UNL     1       1.262   4.124  20.750  0.00  0.00    +0.000 A 
ATOM      7  C   UNL     1       2.022   4.995  20.044  0.00  0.00    +0.000 A 
ATOM      8  C   UNL     1       1.947   6.473  20.322  0.00  0.00    +0.000 C 
ATOM      9  C   UNL     1       2.884   4.455  19.026  0.00  0.00    +0.000 A 
ATOM     10  N   UNL     1       3.706   5.051  18.185  0.00  0.00    +0.000 NA
ENDROOT
BRANCH   1  15
ATOM     11  C   UNL     1       7.963   5.158  13.127  0.00  0.00    +0.000 C 
ATOM     12  C   UNL     1       6.996   4.847  14.231  0.00  0.00    +0.000 A 
ATOM     13  C   UNL     1       5.758   4.259  13.958  0.00  0.00    +0.000 A 
ATOM     14  C   UNL     1       4.860   3.984  14.993  0.00  0.00    +0.000 A 
ATOM     15  C   UNL     1       5.178   4.292  16.321  0.00  0.00    +0.000 A 
ATOM     16  C   UNL     1       6.423   4.876  16.591  0.00  0.00    +0.000 A 
ATOM     17  C   UNL     1       7.324   5.151  15.557  0.00  0.00    +0.000 A 
ENDBRANCH   1  15
TORSDOF 1
ENDMDL
MODEL 2
REMARK VINA RESULT:      -7.0      0.097      1.171
REMARK  Name = 
REMARK  3 active torsions:
REMARK  status: ('A' for Active; 'I' for Inactive)
REMARK    1  A    between atoms: C_1  and  C_2
REMARK    2  A    between atoms: C_5  and  C_6
REMARK    3  A    between atoms: C_12  and  C_13
REMARK                            x       y       z     vdW  Elec       q    Type
REMARK                         _______ _______ _______ _____ _____    ______ ____
ROOT
ATOM      1  C   UNL     1       4.276   4.094  17.488  0.00  0.00    +0.000 A 
ATOM      2  C   UNL     1       3.823   2.853  17.883  0.00  0.00    +0.000 A 
ATOM      3  N   UNL     1       2.940   3.086  18.905  0.00  0.00    +0.000 N 
ATOM      4  C   UNL     1       2.182   2.180  19.638  0.00  0.00    +0.000 A 
ATOM      5  C   UNL     1       1.358   2.642  20.590  0.00  0.00    +0.000 A 
ATOM      6  C   UNL     1       1.288   4.078  20.822  0.00  0.00    +0.000 A 
ATOM      7  C   UNL     1       2.023   4.973  20.119  0.00  0.00    +0.000 A 
ATOM      8  C   UNL     1       1.904   6.447  20.401  0.00  0.00    +0.000 C 
ATOM      9  C   UNL     1       2.901   4.460  19.101  0.00  0.00    +0.000 A 
ATOM     10  N   UNL     1       3.705   5.082  18.262  0.00  0.00    +0.000 NA
ENDROOT
BRANCH   1  15
ATOM     11  C   UNL     1       7.916   5.068  13.105  0.00  0.00    +0.000 C 
ATOM     12  C   UNL     1       6.976   4.836  14.250  0.00  0.00    +0.000 A 
ATOM     13  C   UNL     1       7.367   5.102  15.565  0.00  0.00    +0.000 A 
ATOM     14  C   UNL     1       6.487   4.873  16.627  0.00  0.00    +0.000 A 
ATOM     15  C   UNL     1       5.200   4.371  16.397  0.00  0.00    +0.000 A 
ATOM     16  C   UNL     1       4.811   4.113  15.076  0.00  0.00    +0.000 A 
ATOM     17  C   UNL     1       5.688   4.343  14.012  0.00  0.00    +0.000 A 
ENDBRANCH   1  15
TORSDOF 1
ENDMDL
MODEL 3
REMARK VINA RESULT:      -6.8      2.605      4.057
REMARK  Name = 
REMARK  3 active torsions:
REMARK  status: ('A' for Active; 'I' for Inactive)
REMARK    1  A    between atoms: C_1  and  C_2
REMARK    2  A    between atoms: C_5  and  C_6
REMARK    3  A    between atoms: C_12  and  C_13
REMARK                            x       y       z     vdW  Elec       q    Type
REMARK                         _______ _______ _______ _____ _____    ______ ____
ROOT
ATOM      1  C   UNL     1       3.025   6.912  18.390  0.00  0.00    +0.000 A 
ATOM      2  C   UNL     1       2.595   6.523  19.641  0.00  0.00    +0.000 A 
ATOM      3  N   UNL     1       1.827   7.558  20.109  0.00  0.00    +0.000 N 
ATOM      4  C   UNL     1       1.135   7.667  21.310  0.00  0.00    +0.000 A 
ATOM      5  C   UNL     1       0.424   8.778  21.551  0.00  0.00    +0.000 A 
ATOM      6  C   UNL     1       0.402   9.831  20.545  0.00  0.00    +0.000 A 
ATOM      7  C   UNL     1       1.075   9.741  19.372  0.00  0.00    +0.000 A 
ATOM      8  C   UNL     1       1.012  10.861  18.368  0.00  0.00    +0.000 C 
ATOM      9  C   UNL     1       1.832   8.542  19.129  0.00  0.00    +0.000 A 
ATOM     10  N   UNL     1       2.556   8.173  18.091  0.00  0.00    +0.000 NA
ENDROOT
BRANCH   1  15
ATOM     11  C   UNL     1       6.196   3.872  14.632  0.00  0.00    +0.000 C 
ATOM     12  C   UNL     1       5.382   4.647  15.624  0.00  0.00    +0.000 A 
ATOM     13  C   UNL     1       4.550   3.993  16.537  0.00  0.00    +0.000 A 
ATOM     14  C   UNL     1       3.786   4.726  17.451  0.00  0.00    +0.000 A 
ATOM     15  C   UNL     1       3.834   6.125  17.470  0.00  0.00    +0.000 A 
ATOM     16  C   UNL     1       4.675   6.775  16.556  0.00  0.00    +0.000 A 
ATOM     17  C   UNL     1       5.442   6.045  15.643  0.00  0.00    +0.000 A 
ENDBRANCH   1  15
TORSDOF 1
ENDMDL
MODEL 4
REMARK VINA RESULT:      -6.7      2.745      4.343
REMARK  Name = 
REMARK  3 active torsions:
REMARK  status: ('A' for Active; 'I' for Inactive)
REMARK    1  A    between atoms: C_1  and  C_2
REMARK    2  A    between atoms: C_5  and  C_6
REMARK    3  A    between atoms: C_12  and  C_13
REMARK                            x       y       z     vdW  Elec       q    Type
REMARK                         _______ _______ _______ _____ _____    ______ ____
ROOT
ATOM      1  C   UNL     1       2.856   7.070  18.518  0.00  0.00    +0.000 A 
ATOM      2  C   UNL     1       2.456   6.725  19.791  0.00  0.00    +0.000 A 
ATOM      3  N   UNL     1       1.679   7.764  20.233  0.00  0.00    +0.000 N 
ATOM      4  C   UNL     1       1.006   7.909  21.441  0.00  0.00    +0.000 A 
ATOM      5  C   UNL     1       0.280   9.017  21.651  0.00  0.00    +0.000 A 
ATOM      6  C   UNL     1       0.222  10.029  20.605  0.00  0.00    +0.000 A 
ATOM      7  C   UNL     1       0.875   9.903  19.425  0.00  0.00    +0.000 A 
ATOM      8  C   UNL     1       0.775  10.981  18.379  0.00  0.00    +0.000 C 
ATOM      9  C   UNL     1       1.649   8.708  19.215  0.00  0.00    +0.000 A 
ATOM     10  N   UNL     1       2.360   8.311  18.179  0.00  0.00    +0.000 NA
ENDROOT
BRANCH   1  15
ATOM     11  C   UNL     1       6.085   3.771  15.038  0.00  0.00    +0.000 C 
ATOM     12  C   UNL     1       5.242   4.641  15.923  0.00  0.00    +0.000 A 
ATOM     13  C   UNL     1       5.420   6.027  15.947  0.00  0.00    +0.000 A 
ATOM     14  C   UNL     1       4.637   6.828  16.783  0.00  0.00    +0.000 A 
ATOM     15  C   UNL     1       3.663   6.261  17.615  0.00  0.00    +0.000 A 
ATOM     16  C   UNL     1       3.484   4.872  17.582  0.00  0.00    +0.000 A 
ATOM     17  C   UNL     1       4.265   4.069  16.745  0.00  0.00    +0.000 A 
ENDBRANCH   1  15
TORSDOF 1
ENDMDL
MODEL 5
REMARK VINA RESULT:      -6.7      2.412      6.769
REMARK  Name = 
REMARK  3 active torsions:
REMARK  status: ('A' for Active; 'I' for Inactive)
REMARK    1  A    between atoms: C_1  and  C_2
REMARK    2  A    between atoms: C_5  and  C_6
REMARK    3  A    between atoms: C_12  and  C_13
REMARK                            x       y       z     vdW  Elec       q    Type
REMARK                         _______ _______ _______ _____ _____    ______ ____
ROOT
ATOM      1  C   UNL     1       3.015   6.986  18.230  0.00  0.00    +0.000 A 
ATOM      2  C   UNL     1       3.976   7.369  17.318  0.00  0.00    +0.000 A 
ATOM      3  N   UNL     1       4.507   6.204  16.826  0.00  0.00    +0.000 N 
ATOM      4  C   UNL     1       5.491   6.025  15.861  0.00  0.00    +0.000 A 
ATOM      5  C   UNL     1       5.843   4.777  15.517  0.00  0.00    +0.000 A 
ATOM      6  C   UNL     1       5.182   3.655  16.168  0.00  0.00    +0.000 A 
ATOM      7  C   UNL     1       4.224   3.815  17.113  0.00  0.00    +0.000 A 
ATOM      8  C   UNL     1       3.572   2.616  17.749  0.00  0.00    +0.000 C 
ATOM      9  C   UNL     1       3.857   5.159  17.469  0.00  0.00    +0.000 A 
ATOM     10  N   UNL     1       2.962   5.612  18.325  0.00  0.00    +0.000 NA
ENDROOT
BRANCH   1  15
ATOM     11  C   UNL     1      -0.388  10.607  21.185  0.00  0.00    +0.000 C 
ATOM     12  C   UNL     1       0.482   9.650  20.425  0.00  0.00    +0.000 A 
ATOM     13  C   UNL     1       1.007   8.512  21.043  0.00  0.00    +0.000 A 
ATOM     14  C   UNL     1       1.826   7.631  20.330  0.00  0.00    +0.000 A 
ATOM     15  C   UNL     1       2.139   7.871  18.986  0.00  0.00    +0.000 A 
ATOM     16  C   UNL     1       1.604   9.010  18.369  0.00  0.00    +0.000 A 
ATOM     17  C   UNL     1       0.783   9.891  19.080  0.00  0.00    +0.000 A 
ENDBRANCH   1  15
TORSDOF 1
ENDMDL
MODEL 6
REMARK VINA RESULT:      -6.7      2.444      6.689
REMARK  Name = 
REMARK  3 active torsions:
REMARK  status: ('A' for Active; 'I' for Inactive)
REMARK    1  A    between atoms: C_1  and  C_2
REMARK    2  A    between atoms: C_5  and  C_6
REMARK    3  A    between atoms: C_12  and  C_13
REMARK                            x       y       z     vdW  Elec       q    Type
REMARK                         _______ _______ _______ _____ _____    ______ ____
ROOT
ATOM      1  C   UNL     1       3.044   7.013  18.146  0.00  0.00    +0.000 A 
ATOM      2  C   UNL     1       4.051   7.342  17.264  0.00  0.00    +0.000 A 
ATOM      3  N   UNL     1       4.551   6.150  16.808  0.00  0.00    +0.000 N 
ATOM      4  C   UNL     1       5.560   5.916  15.881  0.00  0.00    +0.000 A 
ATOM      5  C   UNL     1       5.873   4.650  15.568  0.00  0.00    +0.000 A 
ATOM      6  C   UNL     1       5.144   3.565  16.210  0.00  0.00    +0.000 A 
ATOM      7  C   UNL     1       4.161   3.778  17.118  0.00  0.00    +0.000 A 
ATOM      8  C   UNL     1       3.439   2.617  17.747  0.00  0.00    +0.000 C 
ATOM      9  C   UNL     1       3.837   5.142  17.442  0.00  0.00    +0.000 A 
ATOM     10  N   UNL     1       2.932   5.644  18.258  0.00  0.00    +0.000 NA
ENDROOT
BRANCH   1  15
ATOM     11  C   UNL     1      -0.464  10.598  21.022  0.00  0.00    +0.000 C 
ATOM     12  C   UNL     1       0.458   9.686  20.268  0.00  0.00    +0.000 A 
ATOM     13  C   UNL     1       0.760   9.920  18.924  0.00  0.00    +0.000 A 
ATOM     14  C   UNL     1       1.612   9.058  18.227  0.00  0.00    +0.000 A 
ATOM     15  C   UNL     1       2.178   7.944  18.858  0.00  0.00    +0.000 A 
ATOM     16  C   UNL     1       1.878   7.717  20.208  0.00  0.00    +0.000 A 
ATOM     17  C   UNL     1       1.028   8.579  20.907  0.00  0.00    +0.000 A 
ENDBRANCH   1  15
TORSDOF 1
ENDMDL
MODEL 7
REMARK VINA RESULT:      -6.7      0.987      1.988
REMARK  Name = 
REMARK  3 active torsions:
REMARK  status: ('A' for Active; 'I' for Inactive)
REMARK    1  A    between atoms: C_1  and  C_2
REMARK    2  A    between atoms: C_5  and  C_6
REMARK    3  A    between atoms: C_12  and  C_13
REMARK                            x       y       z     vdW  Elec       q    Type
REMARK                         _______ _______ _______ _____ _____    ______ ____
ROOT
ATOM      1  C   UNL     1       4.130   4.850  17.211  0.00  0.00    +0.000 A 
ATOM      2  C   UNL     1       3.988   5.812  18.188  0.00  0.00    +0.000 A 
ATOM      3  N   UNL     1       2.981   5.367  19.005  0.00  0.00    +0.000 N 
ATOM      4  C   UNL     1       2.461   5.947  20.156  0.00  0.00    +0.000 A 
ATOM      5  C   UNL     1       1.477   5.315  20.814  0.00  0.00    +0.000 A 
ATOM      6  C   UNL     1       0.991   4.043  20.299  0.00  0.00    +0.000 A 
ATOM      7  C   UNL     1       1.486   3.468  19.177  0.00  0.00    +0.000 A 
ATOM      8  C   UNL     1       0.946   2.148  18.695  0.00  0.00    +0.000 C 
ATOM      9  C   UNL     1       2.541   4.158  18.483  0.00  0.00    +0.000 A 
ATOM     10  N   UNL     1       3.215   3.836  17.398  0.00  0.00    +0.000 NA
ENDROOT
BRANCH   1  15
ATOM     11  C   UNL     1       8.023   4.986  12.939  0.00  0.00    +0.000 C 
ATOM     12  C   UNL     1       7.014   4.927  14.046  0.00  0.00    +0.000 A 
ATOM     13  C   UNL     1       5.871   4.130  13.936  0.00  0.00    +0.000 A 
ATOM     14  C   UNL     1       4.931   4.091  14.970  0.00  0.00    +0.000 A 
ATOM     15  C   UNL     1       5.110   4.849  16.133  0.00  0.00    +0.000 A 
ATOM     16  C   UNL     1       6.261   5.641  16.242  0.00  0.00    +0.000 A 
ATOM     17  C   UNL     1       7.204   5.681  15.210  0.00  0.00    +0.000 A 
ENDBRANCH   1  15
TORSDOF 1
ENDMDL
MODEL 8
REMARK VINA RESULT:      -6.6      2.888      5.744
REMARK  Name = 
REMARK  3 active torsions:
REMARK  status: ('A' for Active; 'I' for Inactive)
REMARK    1  A    between atoms: C_1  and  C_2
REMARK    2  A    between atoms: C_5  and  C_6
REMARK    3  A    between atoms: C_12  and  C_13
REMARK                            x       y       z     vdW  Elec       q    Type
REMARK                         _______ _______ _______ _____ _____    ______ ____
ROOT
ATOM      1  C   UNL     1       2.431   6.452  18.953  0.00  0.00    +0.000 A 
ATOM      2  C   UNL     1       3.078   5.796  17.928  0.00  0.00    +0.000 A 
ATOM      3  N   UNL     1       3.174   4.487  18.325  0.00  0.00    +0.000 N 
ATOM      4  C   UNL     1       3.717   3.401  17.650  0.00  0.00    +0.000 A 
ATOM      5  C   UNL     1       3.683   2.192  18.231  0.00  0.00    +0.000 A 
ATOM      6  C   UNL     1       3.080   2.063  19.550  0.00  0.00    +0.000 A 
ATOM      7  C   UNL     1       2.551   3.114  20.222  0.00  0.00    +0.000 A 
ATOM      8  C   UNL     1       1.936   2.919  21.582  0.00  0.00    +0.000 C 
ATOM      9  C   UNL     1       2.594   4.403  19.584  0.00  0.00    +0.000 A 
ATOM     10  N   UNL     1       2.149   5.578  19.981  0.00  0.00    +0.000 NA
ENDROOT
BRANCH   1  15
ATOM     11  C   UNL     1       0.803  11.997  19.098  0.00  0.00    +0.000 C 
ATOM     12  C   UNL     1       1.246  10.566  19.053  0.00  0.00    +0.000 A 
ATOM     13  C   UNL     1       1.894  10.049  17.928  0.00  0.00    +0.000 A 
ATOM     14  C   UNL     1       2.294   8.710  17.892  0.00  0.00    +0.000 A 
ATOM     15  C   UNL     1       2.053   7.859  18.978  0.00  0.00    +0.000 A 
ATOM     16  C   UNL     1       1.408   8.384  20.106  0.00  0.00    +0.000 A 
ATOM     17  C   UNL     1       1.009   9.723  20.146  0.00  0.00    +0.000 A 
ENDBRANCH   1  15
TORSDOF 1
ENDMDL
MODEL 9
REMARK VINA RESULT:      -6.6      3.618      5.669
REMARK  Name = 
REMARK  3 active torsions:
REMARK  status: ('A' for Active; 'I' for Inactive)
REMARK    1  A    between atoms: C_1  and  C_2
REMARK    2  A    between atoms: C_5  and  C_6
REMARK    3  A    between atoms: C_12  and  C_13
REMARK                            x       y       z     vdW  Elec       q    Type
REMARK                         _______ _______ _______ _____ _____    ______ ____
ROOT
ATOM      1  C   UNL     1       2.021   8.113  18.699  0.00  0.00    +0.000 A 
ATOM      2  C   UNL     1       1.543   9.213  18.019  0.00  0.00    +0.000 A 
ATOM      3  N   UNL     1       0.906   9.984  18.957  0.00  0.00    +0.000 N 
ATOM      4  C   UNL     1       0.274  11.212  18.804  0.00  0.00    +0.000 A 
ATOM      5  C   UNL     1      -0.271  11.800  19.880  0.00  0.00    +0.000 A 
ATOM      6  C   UNL     1      -0.180  11.130  21.169  0.00  0.00    +0.000 A 
ATOM      7  C   UNL     1       0.430   9.931  21.332  0.00  0.00    +0.000 A 
ATOM      8  C   UNL     1       0.497   9.288  22.692  0.00  0.00    +0.000 C 
ATOM      9  C   UNL     1       1.010   9.314  20.169  0.00  0.00    +0.000 A 
ATOM     10  N   UNL     1       1.670   8.182  20.031  0.00  0.00    +0.000 NA
ENDROOT
BRANCH   1  15
ATOM     11  C   UNL     1       5.166   3.866  16.356  0.00  0.00    +0.000 C 
ATOM     12  C   UNL     1       4.350   4.956  16.984  0.00  0.00    +0.000 A 
ATOM     13  C   UNL     1       3.175   4.663  17.682  0.00  0.00    +0.000 A 
ATOM     14  C   UNL     1       2.415   5.687  18.255  0.00  0.00    +0.000 A 
ATOM     15  C   UNL     1       2.811   7.025  18.139  0.00  0.00    +0.000 A 
ATOM     16  C   UNL     1       3.994   7.314  17.444  0.00  0.00    +0.000 A 
ATOM     17  C   UNL     1       4.756   6.291  16.873  0.00  0.00    +0.000 A 
ENDBRANCH   1  15
TORSDOF 1
ENDMDL
