MODEL 1
REMARK VINA RESULT:      -6.7      0.000      0.000
REMARK  Name = 
REMARK  4 active torsions:
REMARK  status: ('A' for Active; 'I' for Inactive)
REMARK    1  A    between atoms: C_2  and  C_3
REMARK    2  A    between atoms: N_12  and  C_13
REMARK    3  A    between atoms: N_20  and  C_21
REMARK    4  A    between atoms: N_28  and  C_29
REMARK                            x       y       z     vdW  Elec       q    Type
REMARK                         _______ _______ _______ _____ _____    ______ ____
ROOT
ATOM      1  O   UNL     1       7.600  15.029  17.176  0.00  0.00    +0.000 OA
ATOM      2  C   UNL     1       7.934  14.449  18.206  0.00  0.00    +0.000 C 
ATOM      3  N   UNL     1       7.355  14.655  19.466  0.00  0.00    +0.000 N 
ATOM      4  C   UNL     1       8.044  14.592  20.656  0.00  0.00    +0.000 C 
ATOM      5  O   UNL     1       9.262  14.740  20.775  0.00  0.00    +0.000 OA
ATOM      6  N   UNL     1       7.147  14.465  21.688  0.00  0.00    +0.000 N 
ATOM      7  C   UNL     1       5.880  14.718  21.225  0.00  0.00    +0.000 C 
ATOM      8  N   UNL     1       4.877  14.571  22.025  0.00  0.00    +0.000 NA
ATOM      9  C   UNL     1       6.062  15.051  19.748  0.00  0.00    +0.000 C 
ATOM     10  N   UNL     1       5.329  15.622  18.848  0.00  0.00    +0.000 NA
ENDROOT
BRANCH   2  11
ATOM     11  C   UNL     1       9.109  13.515  18.129  0.00  0.00    +0.000 A 
ATOM     12  C   UNL     1      10.346  14.038  17.728  0.00  0.00    +0.000 A 
ATOM     13  C   UNL     1      11.475  13.217  17.669  0.00  0.00    +0.000 A 
ATOM     14  C   UNL     1      11.378  11.868  18.009  0.00  0.00    +0.000 A 
ATOM     15  C   UNL     1      10.149  11.332  18.384  0.00  0.00    +0.000 A 
ATOM     16  C   UNL     1       9.012  12.145  18.423  0.00  0.00    +0.000 A 
ENDBRANCH   2  11
BRANCH   6  17
ATOM     17  C   UNL     1       7.487  13.699  22.836  0.00  0.00    +0.000 A 
ATOM     18  C   UNL     1       7.881  14.317  24.029  0.00  0.00    +0.000 A 
ATOM     19  C   UNL     1       8.355  13.553  25.100  0.00  0.00    +0.000 A 
ATOM     20  C   UNL     1       8.464  12.168  24.981  0.00  0.00    +0.000 A 
ATOM     21  C   UNL     1       8.081  11.542  23.800  0.00  0.00    +0.000 A 
ATOM     22  C   UNL     1       7.584  12.302  22.741  0.00  0.00    +0.000 A 
ENDBRANCH   6  17
BRANCH   8  23
ATOM     23  C   UNL     1       3.517  14.623  21.758  0.00  0.00    +0.000 A 
ATOM     24  C   UNL     1       2.873  13.735  20.902  0.00  0.00    +0.000 A 
ATOM     25  C   UNL     1       1.504  13.863  20.657  0.00  0.00    +0.000 A 
ATOM     26  C   UNL     1       0.757  14.836  21.323  0.00  0.00    +0.000 A 
ATOM     27  C   UNL     1       1.373  15.663  22.257  0.00  0.00    +0.000 A 
ATOM     28  C   UNL     1       2.747  15.550  22.475  0.00  0.00    +0.000 A 
ENDBRANCH   8  23
BRANCH  10  29
ATOM     29  C   UNL     1       4.117  16.278  19.030  0.00  0.00    +0.000 A 
ATOM     30  C   UNL     1       3.957  17.350  19.907  0.00  0.00    +0.000 A 
ATOM     31  C   UNL     1       2.707  17.955  20.073  0.00  0.00    +0.000 A 
ATOM     32  C   UNL     1       1.619  17.539  19.308  0.00  0.00    +0.000 A 
ATOM     33  C   UNL     1       1.786  16.531  18.361  0.00  0.00    +0.000 A 
ATOM     34  C   UNL     1       3.032  15.910  18.220  0.00  0.00    +0.000 A 
ENDBRANCH  10  29
TORSDOF 4
ENDMDL
MODEL 2
REMARK VINA RESULT:      -6.5      5.801      8.715
REMARK  Name = 
REMARK  4 active torsions:
REMARK  status: ('A' for Active; 'I' for Inactive)
REMARK    1  A    between atoms: C_2  and  C_3
REMARK    2  A    between atoms: N_12  and  C_13
REMARK    3  A    between atoms: N_20  and  C_21
REMARK    4  A    between atoms: N_28  and  C_29
REMARK                            x       y       z     vdW  Elec       q    Type
REMARK                         _______ _______ _______ _____ _____    ______ ____
ROOT
ATOM      1  O   UNL     1      -0.533  16.903  19.959  0.00  0.00    +0.000 OA
ATOM      2  C   UNL     1      -0.196  15.731  20.103  0.00  0.00    +0.000 C 
ATOM      3  N   UNL     1      -0.925  14.769  20.815  0.00  0.00    +0.000 N 
ATOM      4  C   UNL     1      -0.358  13.749  21.545  0.00  0.00    +0.000 C 
ATOM      5  O   UNL     1       0.790  13.757  21.994  0.00  0.00    +0.000 OA
ATOM      6  N   UNL     1      -1.310  12.791  21.794  0.00  0.00    +0.000 N 
ATOM      7  C   UNL     1      -2.550  13.289  21.480  0.00  0.00    +0.000 C 
ATOM      8  N   UNL     1      -3.579  12.513  21.566  0.00  0.00    +0.000 NA
ATOM      9  C   UNL     1      -2.291  14.716  21.008  0.00  0.00    +0.000 C 
ATOM     10  N   UNL     1      -3.030  15.765  20.838  0.00  0.00    +0.000 NA
ENDROOT
BRANCH   2  11
ATOM     11  C   UNL     1       1.141  15.319  19.553  0.00  0.00    +0.000 A 
ATOM     12  C   UNL     1       2.275  16.032  19.964  0.00  0.00    +0.000 A 
ATOM     13  C   UNL     1       3.544  15.668  19.504  0.00  0.00    +0.000 A 
ATOM     14  C   UNL     1       3.690  14.591  18.630  0.00  0.00    +0.000 A 
ATOM     15  C   UNL     1       2.567  13.892  18.195  0.00  0.00    +0.000 A 
ATOM     16  C   UNL     1       1.294  14.267  18.635  0.00  0.00    +0.000 A 
ENDBRANCH   2  11
BRANCH   6  17
ATOM     17  C   UNL     1      -0.943  11.419  21.850  0.00  0.00    +0.000 A 
ATOM     18  C   UNL     1      -0.856  10.742  23.072  0.00  0.00    +0.000 A 
ATOM     19  C   UNL     1      -0.350   9.440  23.126  0.00  0.00    +0.000 A 
ATOM     20  C   UNL     1       0.098   8.812  21.965  0.00  0.00    +0.000 A 
ATOM     21  C   UNL     1       0.023   9.475  20.745  0.00  0.00    +0.000 A 
ATOM     22  C   UNL     1      -0.506  10.764  20.688  0.00  0.00    +0.000 A 
ENDBRANCH   6  17
BRANCH   8  23
ATOM     23  C   UNL     1      -4.890  12.735  21.171  0.00  0.00    +0.000 A 
ATOM     24  C   UNL     1      -5.263  12.946  19.847  0.00  0.00    +0.000 A 
ATOM     25  C   UNL     1      -6.599  13.191  19.524  0.00  0.00    +0.000 A 
ATOM     26  C   UNL     1      -7.582  13.154  20.514  0.00  0.00    +0.000 A 
ATOM     27  C   UNL     1      -7.233  12.845  21.825  0.00  0.00    +0.000 A 
ATOM     28  C   UNL     1      -5.891  12.631  22.147  0.00  0.00    +0.000 A 
ENDBRANCH   8  23
BRANCH  10  29
ATOM     29  C   UNL     1      -4.359  15.938  21.208  0.00  0.00    +0.000 A 
ATOM     30  C   UNL     1      -4.800  15.837  22.527  0.00  0.00    +0.000 A 
ATOM     31  C   UNL     1      -6.154  15.992  22.840  0.00  0.00    +0.000 A 
ATOM     32  C   UNL     1      -7.071  16.320  21.843  0.00  0.00    +0.000 A 
ATOM     33  C   UNL     1      -6.630  16.516  20.536  0.00  0.00    +0.000 A 
ATOM     34  C   UNL     1      -5.278  16.332  20.224  0.00  0.00    +0.000 A 
ENDBRANCH  10  29
TORSDOF 4
ENDMDL
MODEL 3
REMARK VINA RESULT:      -6.4      2.175      2.839
REMARK  Name = 
REMARK  4 active torsions:
REMARK  status: ('A' for Active; 'I' for Inactive)
REMARK    1  A    between atoms: C_2  and  C_3
REMARK    2  A    between atoms: N_12  and  C_13
REMARK    3  A    between atoms: N_20  and  C_21
REMARK    4  A    between atoms: N_28  and  C_29
REMARK                            x       y       z     vdW  Elec       q    Type
REMARK                         _______ _______ _______ _____ _____    ______ ____
ROOT
ATOM      1  O   UNL     1       7.409  12.793  16.977  0.00  0.00    +0.000 OA
ATOM      2  C   UNL     1       8.089  13.330  17.847  0.00  0.00    +0.000 C 
ATOM      3  N   UNL     1       7.725  14.486  18.550  0.00  0.00    +0.000 N 
ATOM      4  C   UNL     1       8.613  15.448  18.976  0.00  0.00    +0.000 C 
ATOM      5  O   UNL     1       9.730  15.641  18.491  0.00  0.00    +0.000 OA
ATOM      6  N   UNL     1       8.008  16.227  19.932  0.00  0.00    +0.000 N 
ATOM      7  C   UNL     1       6.660  15.970  19.942  0.00  0.00    +0.000 C 
ATOM      8  N   UNL     1       5.918  16.543  20.831  0.00  0.00    +0.000 NA
ATOM      9  C   UNL     1       6.451  14.928  18.848  0.00  0.00    +0.000 C 
ATOM     10  N   UNL     1       5.423  14.489  18.195  0.00  0.00    +0.000 NA
ENDROOT
BRANCH   2  11
ATOM     11  C   UNL     1       9.454  12.760  18.114  0.00  0.00    +0.000 A 
ATOM     12  C   UNL     1       9.670  12.101  19.332  0.00  0.00    +0.000 A 
ATOM     13  C   UNL     1      10.913  11.528  19.615  0.00  0.00    +0.000 A 
ATOM     14  C   UNL     1      11.949  11.608  18.685  0.00  0.00    +0.000 A 
ATOM     15  C   UNL     1      11.753  12.282  17.482  0.00  0.00    +0.000 A 
ATOM     16  C   UNL     1      10.518  12.877  17.205  0.00  0.00    +0.000 A 
ENDBRANCH   2  11
BRANCH   6  17
ATOM     17  C   UNL     1       8.772  16.760  21.004  0.00  0.00    +0.000 A 
ATOM     18  C   UNL     1       9.138  18.111  21.034  0.00  0.00    +0.000 A 
ATOM     19  C   UNL     1      10.013  18.588  22.014  0.00  0.00    +0.000 A 
ATOM     20  C   UNL     1      10.552  17.715  22.958  0.00  0.00    +0.000 A 
ATOM     21  C   UNL     1      10.203  16.370  22.938  0.00  0.00    +0.000 A 
ATOM     22  C   UNL     1       9.310  15.900  21.975  0.00  0.00    +0.000 A 
ENDBRANCH   6  17
BRANCH   8  23
ATOM     23  C   UNL     1       4.580  16.337  21.132  0.00  0.00    +0.000 A 
ATOM     24  C   UNL     1       4.083  15.126  21.607  0.00  0.00    +0.000 A 
ATOM     25  C   UNL     1       2.718  14.981  21.865  0.00  0.00    +0.000 A 
ATOM     26  C   UNL     1       1.853  16.066  21.719  0.00  0.00    +0.000 A 
ATOM     27  C   UNL     1       2.357  17.307  21.342  0.00  0.00    +0.000 A 
ATOM     28  C   UNL     1       3.717  17.439  21.056  0.00  0.00    +0.000 A 
ENDBRANCH   8  23
BRANCH  10  29
ATOM     29  C   UNL     1       4.128  14.993  18.212  0.00  0.00    +0.000 A 
ATOM     30  C   UNL     1       3.812  16.293  17.819  0.00  0.00    +0.000 A 
ATOM     31  C   UNL     1       2.495  16.757  17.882  0.00  0.00    +0.000 A 
ATOM     32  C   UNL     1       1.468  15.901  18.274  0.00  0.00    +0.000 A 
ATOM     33  C   UNL     1       1.755  14.573  18.580  0.00  0.00    +0.000 A 
ATOM     34  C   UNL     1       3.078  14.122  18.542  0.00  0.00    +0.000 A 
ENDBRANCH  10  29
TORSDOF 4
ENDMDL
MODEL 4
REMARK VINA RESULT:      -6.4      1.479      1.901
REMARK  Name = 
REMARK  4 active torsions:
REMARK  status: ('A' for Active; 'I' for Inactive)
REMARK    1  A    between atoms: C_2  and  C_3
REMARK    2  A    between atoms: N_12  and  C_13
REMARK    3  A    between atoms: N_20  and  C_21
REMARK    4  A    between atoms: N_28  and  C_29
REMARK                            x       y       z     vdW  Elec       q    Type
REMARK                         _______ _______ _______ _____ _____    ______ ____
ROOT
ATOM      1  O   UNL     1       8.095  15.314  18.508  0.00  0.00    +0.000 OA
ATOM      2  C   UNL     1       8.099  14.649  19.541  0.00  0.00    +0.000 C 
ATOM      3  N   UNL     1       7.124  14.723  20.546  0.00  0.00    +0.000 N 
ATOM      4  C   UNL     1       7.381  14.567  21.889  0.00  0.00    +0.000 C 
ATOM      5  O   UNL     1       8.481  14.734  22.421  0.00  0.00    +0.000 OA
ATOM      6  N   UNL     1       6.201  14.322  22.548  0.00  0.00    +0.000 N 
ATOM      7  C   UNL     1       5.148  14.585  21.708  0.00  0.00    +0.000 C 
ATOM      8  N   UNL     1       3.946  14.339  22.111  0.00  0.00    +0.000 NA
ATOM      9  C   UNL     1       5.792  15.058  20.408  0.00  0.00    +0.000 C 
ATOM     10  N   UNL     1       5.369  15.691  19.362  0.00  0.00    +0.000 NA
ENDROOT
BRANCH   2  11
ATOM     11  C   UNL     1       9.282  13.756  19.790  0.00  0.00    +0.000 A 
ATOM     12  C   UNL     1       9.047  12.396  20.031  0.00  0.00    +0.000 A 
ATOM     13  C   UNL     1      10.117  11.520  20.238  0.00  0.00    +0.000 A 
ATOM     14  C   UNL     1      11.427  11.995  20.207  0.00  0.00    +0.000 A 
ATOM     15  C   UNL     1      11.671  13.350  19.994  0.00  0.00    +0.000 A 
ATOM     16  C   UNL     1      10.603  14.233  19.809  0.00  0.00    +0.000 A 
ENDBRANCH   2  11
BRANCH   6  17
ATOM     17  C   UNL     1       6.182  13.462  23.679  0.00  0.00    +0.000 A 
ATOM     18  C   UNL     1       6.313  12.076  23.538  0.00  0.00    +0.000 A 
ATOM     19  C   UNL     1       6.142  11.232  24.639  0.00  0.00    +0.000 A 
ATOM     20  C   UNL     1       5.813  11.763  25.886  0.00  0.00    +0.000 A 
ATOM     21  C   UNL     1       5.673  13.137  26.039  0.00  0.00    +0.000 A 
ATOM     22  C   UNL     1       5.869  13.980  24.945  0.00  0.00    +0.000 A 
ENDBRANCH   6  17
BRANCH   8  23
ATOM     23  C   UNL     1       2.751  14.382  21.408  0.00  0.00    +0.000 A 
ATOM     24  C   UNL     1       2.487  13.577  20.303  0.00  0.00    +0.000 A 
ATOM     25  C   UNL     1       1.271  13.692  19.626  0.00  0.00    +0.000 A 
ATOM     26  C   UNL     1       0.283  14.561  20.092  0.00  0.00    +0.000 A 
ATOM     27  C   UNL     1       0.499  15.295  21.254  0.00  0.00    +0.000 A 
ATOM     28  C   UNL     1       1.728  15.199  21.910  0.00  0.00    +0.000 A 
ENDBRANCH   8  23
BRANCH  10  29
ATOM     29  C   UNL     1       4.130  16.297  19.179  0.00  0.00    +0.000 A 
ATOM     30  C   UNL     1       3.619  17.260  20.047  0.00  0.00    +0.000 A 
ATOM     31  C   UNL     1       2.354  17.817  19.830  0.00  0.00    +0.000 A 
ATOM     32  C   UNL     1       1.618  17.465  18.700  0.00  0.00    +0.000 A 
ATOM     33  C   UNL     1       2.156  16.573  17.775  0.00  0.00    +0.000 A 
ATOM     34  C   UNL     1       3.410  15.998  18.012  0.00  0.00    +0.000 A 
ENDBRANCH  10  29
TORSDOF 4
ENDMDL
MODEL 5
REMARK VINA RESULT:      -6.3      5.612      8.547
REMARK  Name = 
REMARK  4 active torsions:
REMARK  status: ('A' for Active; 'I' for Inactive)
REMARK    1  A    between atoms: C_2  and  C_3
REMARK    2  A    between atoms: N_12  and  C_13
REMARK    3  A    between atoms: N_20  and  C_21
REMARK    4  A    between atoms: N_28  and  C_29
REMARK                            x       y       z     vdW  Elec       q    Type
REMARK                         _______ _______ _______ _____ _____    ______ ____
ROOT
ATOM      1  O   UNL     1      -0.262  16.965  19.957  0.00  0.00    +0.000 OA
ATOM      2  C   UNL     1       0.081  15.796  20.111  0.00  0.00    +0.000 C 
ATOM      3  N   UNL     1      -0.644  14.835  20.829  0.00  0.00    +0.000 N 
ATOM      4  C   UNL     1      -0.073  13.824  21.569  0.00  0.00    +0.000 C 
ATOM      5  O   UNL     1       1.074  13.843  22.021  0.00  0.00    +0.000 OA
ATOM      6  N   UNL     1      -1.020  12.863  21.822  0.00  0.00    +0.000 N 
ATOM      7  C   UNL     1      -2.262  13.351  21.502  0.00  0.00    +0.000 C 
ATOM      8  N   UNL     1      -3.287  12.569  21.591  0.00  0.00    +0.000 NA
ATOM      9  C   UNL     1      -2.011  14.776  21.019  0.00  0.00    +0.000 C 
ATOM     10  N   UNL     1      -2.755  15.819  20.838  0.00  0.00    +0.000 NA
ENDROOT
BRANCH   2  11
ATOM     11  C   UNL     1       1.422  15.387  19.568  0.00  0.00    +0.000 A 
ATOM     12  C   UNL     1       1.476  14.299  18.686  0.00  0.00    +0.000 A 
ATOM     13  C   UNL     1       2.695  13.899  18.131  0.00  0.00    +0.000 A 
ATOM     14  C   UNL     1       3.868  14.581  18.453  0.00  0.00    +0.000 A 
ATOM     15  C   UNL     1       3.830  15.647  19.349  0.00  0.00    +0.000 A 
ATOM     16  C   UNL     1       2.616  16.036  19.924  0.00  0.00    +0.000 A 
ENDBRANCH   2  11
BRANCH   6  17
ATOM     17  C   UNL     1      -0.645  11.494  21.891  0.00  0.00    +0.000 A 
ATOM     18  C   UNL     1      -0.242  10.795  20.747  0.00  0.00    +0.000 A 
ATOM     19  C   UNL     1      -0.021   9.415  20.801  0.00  0.00    +0.000 A 
ATOM     20  C   UNL     1      -0.226   8.717  21.990  0.00  0.00    +0.000 A 
ATOM     21  C   UNL     1      -0.632   9.397  23.133  0.00  0.00    +0.000 A 
ATOM     22  C   UNL     1      -0.828  10.778  23.085  0.00  0.00    +0.000 A 
ENDBRANCH   6  17
BRANCH   8  23
ATOM     23  C   UNL     1      -4.598  12.781  21.191  0.00  0.00    +0.000 A 
ATOM     24  C   UNL     1      -4.970  12.967  19.862  0.00  0.00    +0.000 A 
ATOM     25  C   UNL     1      -6.307  13.202  19.534  0.00  0.00    +0.000 A 
ATOM     26  C   UNL     1      -7.291  13.181  20.524  0.00  0.00    +0.000 A 
ATOM     27  C   UNL     1      -6.942  12.896  21.841  0.00  0.00    +0.000 A 
ATOM     28  C   UNL     1      -5.600  12.692  22.168  0.00  0.00    +0.000 A 
ENDBRANCH   8  23
BRANCH  10  29
ATOM     29  C   UNL     1      -4.086  15.987  21.204  0.00  0.00    +0.000 A 
ATOM     30  C   UNL     1      -4.529  15.898  22.523  0.00  0.00    +0.000 A 
ATOM     31  C   UNL     1      -5.885  16.048  22.831  0.00  0.00    +0.000 A 
ATOM     32  C   UNL     1      -6.802  16.358  21.829  0.00  0.00    +0.000 A 
ATOM     33  C   UNL     1      -6.359  16.541  20.521  0.00  0.00    +0.000 A 
ATOM     34  C   UNL     1      -5.006  16.362  20.214  0.00  0.00    +0.000 A 
ENDBRANCH  10  29
TORSDOF 4
ENDMDL
MODEL 6
REMARK VINA RESULT:      -6.2      0.091      1.171
REMARK  Name = 
REMARK  4 active torsions:
REMARK  status: ('A' for Active; 'I' for Inactive)
REMARK    1  A    between atoms: C_2  and  C_3
REMARK    2  A    between atoms: N_12  and  C_13
REMARK    3  A    between atoms: N_20  and  C_21
REMARK    4  A    between atoms: N_28  and  C_29
REMARK                            x       y       z     vdW  Elec       q    Type
REMARK                         _______ _______ _______ _____ _____    ______ ____
ROOT
ATOM      1  O   UNL     1       7.628  15.043  17.167  0.00  0.00    +0.000 OA
ATOM      2  C   UNL     1       7.960  14.470  18.202  0.00  0.00    +0.000 C 
ATOM      3  N   UNL     1       7.362  14.666  19.454  0.00  0.00    +0.000 N 
ATOM      4  C   UNL     1       8.038  14.618  20.653  0.00  0.00    +0.000 C 
ATOM      5  O   UNL     1       9.251  14.791  20.786  0.00  0.00    +0.000 OA
ATOM      6  N   UNL     1       7.132  14.474  21.675  0.00  0.00    +0.000 N 
ATOM      7  C   UNL     1       5.866  14.703  21.196  0.00  0.00    +0.000 C 
ATOM      8  N   UNL     1       4.856  14.536  21.984  0.00  0.00    +0.000 NA
ATOM      9  C   UNL     1       6.059  15.038  19.720  0.00  0.00    +0.000 C 
ATOM     10  N   UNL     1       5.325  15.593  18.811  0.00  0.00    +0.000 NA
ENDROOT
BRANCH   2  11
ATOM     11  C   UNL     1       9.154  13.560  18.141  0.00  0.00    +0.000 A 
ATOM     12  C   UNL     1       8.966  12.200  18.422  0.00  0.00    +0.000 A 
ATOM     13  C   UNL     1      10.040  11.308  18.350  0.00  0.00    +0.000 A 
ATOM     14  C   UNL     1      11.308  11.767  17.996  0.00  0.00    +0.000 A 
ATOM     15  C   UNL     1      11.512  13.120  17.739  0.00  0.00    +0.000 A 
ATOM     16  C   UNL     1      10.445  14.019  17.833  0.00  0.00    +0.000 A 
ENDBRANCH   2  11
BRANCH   6  17
ATOM     17  C   UNL     1       7.472  13.717  22.828  0.00  0.00    +0.000 A 
ATOM     18  C   UNL     1       7.849  14.343  24.021  0.00  0.00    +0.000 A 
ATOM     19  C   UNL     1       8.325  13.590  25.098  0.00  0.00    +0.000 A 
ATOM     20  C   UNL     1       8.453  12.206  24.984  0.00  0.00    +0.000 A 
ATOM     21  C   UNL     1       8.088  11.571  23.803  0.00  0.00    +0.000 A 
ATOM     22  C   UNL     1       7.590  12.321  22.737  0.00  0.00    +0.000 A 
ENDBRANCH   6  17
BRANCH   8  23
ATOM     23  C   UNL     1       3.499  14.562  21.700  0.00  0.00    +0.000 A 
ATOM     24  C   UNL     1       2.882  13.659  20.838  0.00  0.00    +0.000 A 
ATOM     25  C   UNL     1       1.514  13.760  20.577  0.00  0.00    +0.000 A 
ATOM     26  C   UNL     1       0.740  14.719  21.233  0.00  0.00    +0.000 A 
ATOM     27  C   UNL     1       1.329  15.561  22.172  0.00  0.00    +0.000 A 
ATOM     28  C   UNL     1       2.702  15.475  22.406  0.00  0.00    +0.000 A 
ENDBRANCH   8  23
BRANCH  10  29
ATOM     29  C   UNL     1       4.098  16.225  18.978  0.00  0.00    +0.000 A 
ATOM     30  C   UNL     1       2.935  15.811  18.331  0.00  0.00    +0.000 A 
ATOM     31  C   UNL     1       1.733  16.501  18.514  0.00  0.00    +0.000 A 
ATOM     32  C   UNL     1       1.667  17.572  19.402  0.00  0.00    +0.000 A 
ATOM     33  C   UNL     1       2.799  17.939  20.126  0.00  0.00    +0.000 A 
ATOM     34  C   UNL     1       4.006  17.263  19.918  0.00  0.00    +0.000 A 
ENDBRANCH  10  29
TORSDOF 4
ENDMDL
MODEL 7
REMARK VINA RESULT:      -6.2      1.973      2.588
REMARK  Name = 
REMARK  4 active torsions:
REMARK  status: ('A' for Active; 'I' for Inactive)
REMARK    1  A    between atoms: C_2  and  C_3
REMARK    2  A    between atoms: N_12  and  C_13
REMARK    3  A    between atoms: N_20  and  C_21
REMARK    4  A    between atoms: N_28  and  C_29
REMARK                            x       y       z     vdW  Elec       q    Type
REMARK                         _______ _______ _______ _____ _____    ______ ____
ROOT
ATOM      1  O   UNL     1       7.531  12.967  17.199  0.00  0.00    +0.000 OA
ATOM      2  C   UNL     1       8.171  13.428  18.141  0.00  0.00    +0.000 C 
ATOM      3  N   UNL     1       7.790  14.543  18.899  0.00  0.00    +0.000 N 
ATOM      4  C   UNL     1       8.671  15.451  19.440  0.00  0.00    +0.000 C 
ATOM      5  O   UNL     1       9.818  15.649  19.034  0.00  0.00    +0.000 OA
ATOM      6  N   UNL     1       8.028  16.179  20.411  0.00  0.00    +0.000 N 
ATOM      7  C   UNL     1       6.676  15.955  20.327  0.00  0.00    +0.000 C 
ATOM      8  N   UNL     1       5.895  16.486  21.208  0.00  0.00    +0.000 NA
ATOM      9  C   UNL     1       6.510  14.995  19.154  0.00  0.00    +0.000 C 
ATOM     10  N   UNL     1       5.514  14.626  18.415  0.00  0.00    +0.000 NA
ENDROOT
BRANCH   2  11
ATOM     11  C   UNL     1       9.505  12.807  18.445  0.00  0.00    +0.000 A 
ATOM     12  C   UNL     1      10.476  12.793  17.435  0.00  0.00    +0.000 A 
ATOM     13  C   UNL     1      11.742  12.254  17.678  0.00  0.00    +0.000 A 
ATOM     14  C   UNL     1      12.049  11.724  18.931  0.00  0.00    +0.000 A 
ATOM     15  C   UNL     1      11.083  11.709  19.935  0.00  0.00    +0.000 A 
ATOM     16  C   UNL     1       9.808  12.227  19.688  0.00  0.00    +0.000 A 
ENDBRANCH   2  11
BRANCH   6  17
ATOM     17  C   UNL     1       8.739  16.620  21.559  0.00  0.00    +0.000 A 
ATOM     18  C   UNL     1       9.098  15.728  22.576  0.00  0.00    +0.000 A 
ATOM     19  C   UNL     1       9.662  16.199  23.766  0.00  0.00    +0.000 A 
ATOM     20  C   UNL     1       9.849  17.567  23.961  0.00  0.00    +0.000 A 
ATOM     21  C   UNL     1       9.491  18.465  22.962  0.00  0.00    +0.000 A 
ATOM     22  C   UNL     1       8.952  17.992  21.765  0.00  0.00    +0.000 A 
ENDBRANCH   6  17
BRANCH   8  23
ATOM     23  C   UNL     1       4.538  16.292  21.419  0.00  0.00    +0.000 A 
ATOM     24  C   UNL     1       3.986  15.059  21.753  0.00  0.00    +0.000 A 
ATOM     25  C   UNL     1       2.606  14.931  21.924  0.00  0.00    +0.000 A 
ATOM     26  C   UNL     1       1.777  16.050  21.833  0.00  0.00    +0.000 A 
ATOM     27  C   UNL     1       2.331  17.305  21.598  0.00  0.00    +0.000 A 
ATOM     28  C   UNL     1       3.708  17.422  21.398  0.00  0.00    +0.000 A 
ENDBRANCH   8  23
BRANCH  10  29
ATOM     29  C   UNL     1       4.230  15.159  18.392  0.00  0.00    +0.000 A 
ATOM     30  C   UNL     1       3.966  16.491  18.077  0.00  0.00    +0.000 A 
ATOM     31  C   UNL     1       2.656  16.983  18.096  0.00  0.00    +0.000 A 
ATOM     32  C   UNL     1       1.590  16.126  18.364  0.00  0.00    +0.000 A 
ATOM     33  C   UNL     1       1.831  14.773  18.589  0.00  0.00    +0.000 A 
ATOM     34  C   UNL     1       3.145  14.293  18.596  0.00  0.00    +0.000 A 
ENDBRANCH  10  29
TORSDOF 4
ENDMDL
MODEL 8
REMARK VINA RESULT:      -6.1      4.580      7.352
REMARK  Name = 
REMARK  4 active torsions:
REMARK  status: ('A' for Active; 'I' for Inactive)
REMARK    1  A    between atoms: C_2  and  C_3
REMARK    2  A    between atoms: N_12  and  C_13
REMARK    3  A    between atoms: N_20  and  C_21
REMARK    4  A    between atoms: N_28  and  C_29
REMARK                            x       y       z     vdW  Elec       q    Type
REMARK                         _______ _______ _______ _____ _____    ______ ____
ROOT
ATOM      1  O   UNL     1       1.829  17.019  21.403  0.00  0.00    +0.000 OA
ATOM      2  C   UNL     1       1.918  15.913  20.876  0.00  0.00    +0.000 C 
ATOM      3  N   UNL     1       1.209  14.773  21.279  0.00  0.00    +0.000 N 
ATOM      4  C   UNL     1       1.706  13.490  21.223  0.00  0.00    +0.000 C 
ATOM      5  O   UNL     1       2.903  13.198  21.200  0.00  0.00    +0.000 OA
ATOM      6  N   UNL     1       0.664  12.600  21.325  0.00  0.00    +0.000 N 
ATOM      7  C   UNL     1      -0.468  13.268  21.720  0.00  0.00    +0.000 C 
ATOM      8  N   UNL     1      -1.584  12.622  21.796  0.00  0.00    +0.000 NA
ATOM      9  C   UNL     1      -0.030  14.719  21.887  0.00  0.00    +0.000 C 
ATOM     10  N   UNL     1      -0.529  15.758  22.475  0.00  0.00    +0.000 NA
ENDROOT
BRANCH   2  11
ATOM     11  C   UNL     1       2.928  15.746  19.775  0.00  0.00    +0.000 A 
ATOM     12  C   UNL     1       4.284  15.912  20.089  0.00  0.00    +0.000 A 
ATOM     13  C   UNL     1       5.263  15.738  19.107  0.00  0.00    +0.000 A 
ATOM     14  C   UNL     1       4.896  15.398  17.805  0.00  0.00    +0.000 A 
ATOM     15  C   UNL     1       3.551  15.256  17.476  0.00  0.00    +0.000 A 
ATOM     16  C   UNL     1       2.567  15.451  18.450  0.00  0.00    +0.000 A 
ENDBRANCH   2  11
BRANCH   6  17
ATOM     17  C   UNL     1       0.713  11.365  20.625  0.00  0.00    +0.000 A 
ATOM     18  C   UNL     1       0.887  10.153  21.304  0.00  0.00    +0.000 A 
ATOM     19  C   UNL     1       1.083   8.964  20.595  0.00  0.00    +0.000 A 
ATOM     20  C   UNL     1       1.132   8.978  19.202  0.00  0.00    +0.000 A 
ATOM     21  C   UNL     1       0.967  10.175  18.514  0.00  0.00    +0.000 A 
ATOM     22  C   UNL     1       0.746  11.357  19.222  0.00  0.00    +0.000 A 
ENDBRANCH   6  17
BRANCH   8  23
ATOM     23  C   UNL     1      -2.867  13.096  22.025  0.00  0.00    +0.000 A 
ATOM     24  C   UNL     1      -3.527  13.960  21.156  0.00  0.00    +0.000 A 
ATOM     25  C   UNL     1      -4.810  14.420  21.463  0.00  0.00    +0.000 A 
ATOM     26  C   UNL     1      -5.468  13.962  22.605  0.00  0.00    +0.000 A 
ATOM     27  C   UNL     1      -4.856  13.021  23.427  0.00  0.00    +0.000 A 
ATOM     28  C   UNL     1      -3.562  12.588  23.131  0.00  0.00    +0.000 A 
ENDBRANCH   8  23
BRANCH  10  29
ATOM     29  C   UNL     1      -1.635  15.807  23.318  0.00  0.00    +0.000 A 
ATOM     30  C   UNL     1      -1.712  15.095  24.514  0.00  0.00    +0.000 A 
ATOM     31  C   UNL     1      -2.860  15.160  25.309  0.00  0.00    +0.000 A 
ATOM     32  C   UNL     1      -3.916  15.994  24.950  0.00  0.00    +0.000 A 
ATOM     33  C   UNL     1      -3.815  16.783  23.806  0.00  0.00    +0.000 A 
ATOM     34  C   UNL     1      -2.675  16.692  22.999  0.00  0.00    +0.000 A 
ENDBRANCH  10  29
TORSDOF 4
ENDMDL
MODEL 9
REMARK VINA RESULT:      -6.0      5.987      9.133
REMARK  Name = 
REMARK  4 active torsions:
REMARK  status: ('A' for Active; 'I' for Inactive)
REMARK    1  A    between atoms: C_2  and  C_3
REMARK    2  A    between atoms: N_12  and  C_13
REMARK    3  A    between atoms: N_20  and  C_21
REMARK    4  A    between atoms: N_28  and  C_29
REMARK                            x       y       z     vdW  Elec       q    Type
REMARK                         _______ _______ _______ _____ _____    ______ ____
ROOT
ATOM      1  O   UNL     1      -0.913  17.232  20.879  0.00  0.00    +0.000 OA
ATOM      2  C   UNL     1      -0.544  16.061  20.845  0.00  0.00    +0.000 C 
ATOM      3  N   UNL     1      -1.224  14.989  21.438  0.00  0.00    +0.000 N 
ATOM      4  C   UNL     1      -0.607  13.893  21.998  0.00  0.00    +0.000 C 
ATOM      5  O   UNL     1       0.556  13.871  22.407  0.00  0.00    +0.000 OA
ATOM      6  N   UNL     1      -1.526  12.883  22.140  0.00  0.00    +0.000 N 
ATOM      7  C   UNL     1      -2.788  13.384  21.941  0.00  0.00    +0.000 C 
ATOM      8  N   UNL     1      -3.795  12.575  21.950  0.00  0.00    +0.000 NA
ATOM      9  C   UNL     1      -2.581  14.870  21.666  0.00  0.00    +0.000 C 
ATOM     10  N   UNL     1      -3.349  15.911  21.670  0.00  0.00    +0.000 NA
ENDROOT
BRANCH   2  11
ATOM     11  C   UNL     1       0.781  15.768  20.199  0.00  0.00    +0.000 A 
ATOM     12  C   UNL     1       0.806  14.894  19.104  0.00  0.00    +0.000 A 
ATOM     13  C   UNL     1       2.010  14.613  18.451  0.00  0.00    +0.000 A 
ATOM     14  C   UNL     1       3.196  15.202  18.887  0.00  0.00    +0.000 A 
ATOM     15  C   UNL     1       3.187  16.051  19.990  0.00  0.00    +0.000 A 
ATOM     16  C   UNL     1       1.989  16.317  20.660  0.00  0.00    +0.000 A 
ENDBRANCH   2  11
BRANCH   6  17
ATOM     17  C   UNL     1      -1.125  11.528  21.991  0.00  0.00    +0.000 A 
ATOM     18  C   UNL     1      -0.940  10.699  23.104  0.00  0.00    +0.000 A 
ATOM     19  C   UNL     1      -0.402   9.418  22.953  0.00  0.00    +0.000 A 
ATOM     20  C   UNL     1      -0.020   8.962  21.692  0.00  0.00    +0.000 A 
ATOM     21  C   UNL     1      -0.191   9.776  20.579  0.00  0.00    +0.000 A 
ATOM     22  C   UNL     1      -0.751  11.045  20.727  0.00  0.00    +0.000 A 
ENDBRANCH   6  17
BRANCH   8  23
ATOM     23  C   UNL     1      -5.124  12.813  21.633  0.00  0.00    +0.000 A 
ATOM     24  C   UNL     1      -6.155  12.738  22.564  0.00  0.00    +0.000 A 
ATOM     25  C   UNL     1      -7.476  12.965  22.170  0.00  0.00    +0.000 A 
ATOM     26  C   UNL     1      -7.765  13.338  20.856  0.00  0.00    +0.000 A 
ATOM     27  C   UNL     1      -6.730  13.513  19.942  0.00  0.00    +0.000 A 
ATOM     28  C   UNL     1      -5.415  13.256  20.335  0.00  0.00    +0.000 A 
ENDBRANCH   8  23
BRANCH  10  29
ATOM     29  C   UNL     1      -4.668  15.992  22.104  0.00  0.00    +0.000 A 
ATOM     30  C   UNL     1      -5.056  15.706  23.412  0.00  0.00    +0.000 A 
ATOM     31  C   UNL     1      -6.401  15.777  23.788  0.00  0.00    +0.000 A 
ATOM     32  C   UNL     1      -7.363  16.203  22.874  0.00  0.00    +0.000 A 
ATOM     33  C   UNL     1      -6.977  16.582  21.590  0.00  0.00    +0.000 A 
ATOM     34  C   UNL     1      -5.634  16.482  21.212  0.00  0.00    +0.000 A 
ENDBRANCH  10  29
TORSDOF 4
ENDMDL
