MODEL 1
REMARK VINA RESULT:      -6.5      0.000      0.000
REMARK  Name = 
REMARK  10 active torsions:
REMARK  status: ('A' for Active; 'I' for Inactive)
REMARK    1  A    between atoms: C_1  and  C_2
REMARK    2  A    between atoms: C_2  and  C_3
REMARK    3  A    between atoms: C_3  and  C_4
REMARK    4  A    between atoms: C_4  and  C_5
REMARK    5  A    between atoms: C_5  and  C_6
REMARK    6  A    between atoms: C_6  and  C_7
REMARK    7  A    between atoms: C_7  and  C_8
REMARK    8  A    between atoms: C_8  and  C_9
REMARK    9  A    between atoms: C_10  and  O_11
REMARK   10  A    between atoms: C_13  and  C_14
REMARK                            x       y       z     vdW  Elec       q    Type
REMARK                         _______ _______ _______ _____ _____    ______ ____
ROOT
ATOM      1  C   UNL     1       5.978   5.432  17.029  0.00  0.00    +0.000 A 
ATOM      2  C   UNL     1       6.842   5.380  18.044  0.00  0.00    +0.000 A 
ATOM      3  C   UNL     1       7.654   6.504  18.401  0.00  0.00    +0.000 A 
ATOM      4  C   UNL     1       7.498   7.660  17.744  0.00  0.00    +0.000 A 
ATOM      5  C   UNL     1       8.276   8.897  18.041  0.00  0.00    +0.000 C 
ATOM      6  O   UNL     1       6.565   7.782  16.694  0.00  0.00    +0.000 OA
ATOM      7  C   UNL     1       5.815   6.712  16.283  0.00  0.00    +0.000 A 
ATOM      8  O   UNL     1       5.026   6.813  15.343  0.00  0.00    +0.000 OA
ENDROOT
BRANCH   2   9
ATOM      9  O   UNL     1       7.069   4.290  18.852  0.00  0.00    +0.000 OA
ATOM     10  H   UNL     1       7.985   3.988  18.744  0.00  0.00    +0.000 HD
ENDBRANCH   2   9
BRANCH   1  11
ATOM     11  C   UNL     1       5.154   4.269  16.547  0.00  0.00    +0.000 C 
BRANCH  11  12
ATOM     12  C   UNL     1       4.093   3.874  17.575  0.00  0.00    +0.000 C 
BRANCH  12  13
ATOM     13  C   UNL     1       3.079   4.992  17.797  0.00  0.00    +0.000 C 
BRANCH  13  14
ATOM     14  C   UNL     1       1.675   4.411  17.935  0.00  0.00    +0.000 C 
BRANCH  14  15
ATOM     15  C   UNL     1       1.714   2.909  18.130  0.00  0.00    +0.000 C 
BRANCH  15  16
ATOM     16  C   UNL     1       0.793   2.499  19.272  0.00  0.00    +0.000 C 
BRANCH  16  18
ATOM     17  C   UNL     1       1.850   2.777  21.528  0.00  0.00    +0.000 C 
ATOM     18  C   UNL     1       0.977   3.424  20.469  0.00  0.00    +0.000 C 
ENDBRANCH  16  18
ENDBRANCH  15  16
ENDBRANCH  14  15
ENDBRANCH  13  14
ENDBRANCH  12  13
ENDBRANCH  11  12
ENDBRANCH   1  11
TORSDOF 8
ENDMDL
MODEL 2
REMARK VINA RESULT:      -6.4      2.915      6.391
REMARK  Name = 
REMARK  10 active torsions:
REMARK  status: ('A' for Active; 'I' for Inactive)
REMARK    1  A    between atoms: C_1  and  C_2
REMARK    2  A    between atoms: C_2  and  C_3
REMARK    3  A    between atoms: C_3  and  C_4
REMARK    4  A    between atoms: C_4  and  C_5
REMARK    5  A    between atoms: C_5  and  C_6
REMARK    6  A    between atoms: C_6  and  C_7
REMARK    7  A    between atoms: C_7  and  C_8
REMARK    8  A    between atoms: C_8  and  C_9
REMARK    9  A    between atoms: C_10  and  O_11
REMARK   10  A    between atoms: C_13  and  C_14
REMARK                            x       y       z     vdW  Elec       q    Type
REMARK                         _______ _______ _______ _____ _____    ______ ____
ROOT
ATOM      1  C   UNL     1       3.411   3.511  18.176  0.00  0.00    +0.000 A 
ATOM      2  C   UNL     1       4.131   3.110  19.225  0.00  0.00    +0.000 A 
ATOM      3  C   UNL     1       3.521   2.791  20.480  0.00  0.00    +0.000 A 
ATOM      4  C   UNL     1       2.187   2.831  20.590  0.00  0.00    +0.000 A 
ATOM      5  C   UNL     1       1.446   2.504  21.842  0.00  0.00    +0.000 C 
ATOM      6  O   UNL     1       1.377   3.204  19.498  0.00  0.00    +0.000 OA
ATOM      7  C   UNL     1       1.927   3.576  18.300  0.00  0.00    +0.000 A 
ATOM      8  O   UNL     1       1.218   3.934  17.360  0.00  0.00    +0.000 OA
ENDROOT
BRANCH   2   9
ATOM      9  O   UNL     1       5.498   2.955  19.251  0.00  0.00    +0.000 OA
ATOM     10  H   UNL     1       5.772   2.357  18.538  0.00  0.00    +0.000 HD
ENDBRANCH   2   9
BRANCH   1  11
ATOM     11  C   UNL     1       3.989   3.940  16.855  0.00  0.00    +0.000 C 
BRANCH  11  12
ATOM     12  C   UNL     1       4.630   5.326  16.952  0.00  0.00    +0.000 C 
BRANCH  12  13
ATOM     13  C   UNL     1       5.294   5.732  15.641  0.00  0.00    +0.000 C 
BRANCH  13  14
ATOM     14  C   UNL     1       6.779   5.380  15.670  0.00  0.00    +0.000 C 
BRANCH  14  15
ATOM     15  C   UNL     1       7.201   4.662  14.403  0.00  0.00    +0.000 C 
BRANCH  15  16
ATOM     16  C   UNL     1       5.990   4.037  13.721  0.00  0.00    +0.000 C 
BRANCH  16  18
ATOM     17  C   UNL     1       5.359   2.544  11.810  0.00  0.00    +0.000 C 
ATOM     18  C   UNL     1       6.341   3.587  12.309  0.00  0.00    +0.000 C 
ENDBRANCH  16  18
ENDBRANCH  15  16
ENDBRANCH  14  15
ENDBRANCH  13  14
ENDBRANCH  12  13
ENDBRANCH  11  12
ENDBRANCH   1  11
TORSDOF 8
ENDMDL
MODEL 3
REMARK VINA RESULT:      -6.3      0.985      1.367
REMARK  Name = 
REMARK  10 active torsions:
REMARK  status: ('A' for Active; 'I' for Inactive)
REMARK    1  A    between atoms: C_1  and  C_2
REMARK    2  A    between atoms: C_2  and  C_3
REMARK    3  A    between atoms: C_3  and  C_4
REMARK    4  A    between atoms: C_4  and  C_5
REMARK    5  A    between atoms: C_5  and  C_6
REMARK    6  A    between atoms: C_6  and  C_7
REMARK    7  A    between atoms: C_7  and  C_8
REMARK    8  A    between atoms: C_8  and  C_9
REMARK    9  A    between atoms: C_10  and  O_11
REMARK   10  A    between atoms: C_13  and  C_14
REMARK                            x       y       z     vdW  Elec       q    Type
REMARK                         _______ _______ _______ _____ _____    ______ ____
ROOT
ATOM      1  C   UNL     1       5.688   5.213  16.872  0.00  0.00    +0.000 A 
ATOM      2  C   UNL     1       6.457   5.042  17.948  0.00  0.00    +0.000 A 
ATOM      3  C   UNL     1       7.365   6.055  18.394  0.00  0.00    +0.000 A 
ATOM      4  C   UNL     1       7.400   7.231  17.757  0.00  0.00    +0.000 A 
ATOM      5  C   UNL     1       8.292   8.361  18.144  0.00  0.00    +0.000 C 
ATOM      6  O   UNL     1       6.574   7.480  16.641  0.00  0.00    +0.000 OA
ATOM      7  C   UNL     1       5.737   6.515  16.148  0.00  0.00    +0.000 A 
ATOM      8  O   UNL     1       5.044   6.724  15.153  0.00  0.00    +0.000 OA
ENDROOT
BRANCH   2   9
ATOM      9  O   UNL     1       6.488   3.920  18.745  0.00  0.00    +0.000 OA
ATOM     10  H   UNL     1       5.600   3.533  18.799  0.00  0.00    +0.000 HD
ENDBRANCH   2   9
BRANCH   1  11
ATOM     11  C   UNL     1       4.774   4.165  16.299  0.00  0.00    +0.000 C 
BRANCH  11  12
ATOM     12  C   UNL     1       3.638   3.828  17.266  0.00  0.00    +0.000 C 
BRANCH  12  13
ATOM     13  C   UNL     1       3.554   2.329  17.536  0.00  0.00    +0.000 C 
BRANCH  13  14
ATOM     14  C   UNL     1       2.455   2.036  18.553  0.00  0.00    +0.000 C 
BRANCH  14  15
ATOM     15  C   UNL     1       2.734   2.713  19.880  0.00  0.00    +0.000 C 
BRANCH  15  16
ATOM     16  C   UNL     1       1.436   2.925  20.649  0.00  0.00    +0.000 C 
BRANCH  16  18
ATOM     17  C   UNL     1       2.182   5.305  20.396  0.00  0.00    +0.000 C 
ATOM     18  C   UNL     1       0.990   4.379  20.561  0.00  0.00    +0.000 C 
ENDBRANCH  16  18
ENDBRANCH  15  16
ENDBRANCH  14  15
ENDBRANCH  13  14
ENDBRANCH  12  13
ENDBRANCH  11  12
ENDBRANCH   1  11
TORSDOF 8
ENDMDL
MODEL 4
REMARK VINA RESULT:      -6.2      0.901      1.105
REMARK  Name = 
REMARK  10 active torsions:
REMARK  status: ('A' for Active; 'I' for Inactive)
REMARK    1  A    between atoms: C_1  and  C_2
REMARK    2  A    between atoms: C_2  and  C_3
REMARK    3  A    between atoms: C_3  and  C_4
REMARK    4  A    between atoms: C_4  and  C_5
REMARK    5  A    between atoms: C_5  and  C_6
REMARK    6  A    between atoms: C_6  and  C_7
REMARK    7  A    between atoms: C_7  and  C_8
REMARK    8  A    between atoms: C_8  and  C_9
REMARK    9  A    between atoms: C_10  and  O_11
REMARK   10  A    between atoms: C_13  and  C_14
REMARK                            x       y       z     vdW  Elec       q    Type
REMARK                         _______ _______ _______ _____ _____    ______ ____
ROOT
ATOM      1  C   UNL     1       5.543   5.159  16.873  0.00  0.00    +0.000 A 
ATOM      2  C   UNL     1       6.308   4.991  17.952  0.00  0.00    +0.000 A 
ATOM      3  C   UNL     1       7.245   5.988  18.374  0.00  0.00    +0.000 A 
ATOM      4  C   UNL     1       7.312   7.148  17.709  0.00  0.00    +0.000 A 
ATOM      5  C   UNL     1       8.237   8.261  18.069  0.00  0.00    +0.000 C 
ATOM      6  O   UNL     1       6.492   7.394  16.589  0.00  0.00    +0.000 OA
ATOM      7  C   UNL     1       5.628   6.441  16.119  0.00  0.00    +0.000 A 
ATOM      8  O   UNL     1       4.939   6.647  15.119  0.00  0.00    +0.000 OA
ENDROOT
BRANCH   2   9
ATOM      9  O   UNL     1       6.309   3.888  18.775  0.00  0.00    +0.000 OA
ATOM     10  H   UNL     1       7.176   3.452  18.735  0.00  0.00    +0.000 HD
ENDBRANCH   2   9
BRANCH   1  11
ATOM     11  C   UNL     1       4.598   4.124  16.325  0.00  0.00    +0.000 C 
BRANCH  11  12
ATOM     12  C   UNL     1       3.741   3.511  17.433  0.00  0.00    +0.000 C 
BRANCH  12  13
ATOM     13  C   UNL     1       2.291   3.977  17.346  0.00  0.00    +0.000 C 
BRANCH  13  14
ATOM     14  C   UNL     1       2.095   5.249  18.165  0.00  0.00    +0.000 C 
BRANCH  14  15
ATOM     15  C   UNL     1       2.365   5.007  19.637  0.00  0.00    +0.000 C 
BRANCH  15  16
ATOM     16  C   UNL     1       1.157   4.354  20.295  0.00  0.00    +0.000 C 
BRANCH  16  18
ATOM     17  C   UNL     1       2.860   2.625  20.922  0.00  0.00    +0.000 C 
ATOM     18  C   UNL     1       1.597   3.349  21.352  0.00  0.00    +0.000 C 
ENDBRANCH  16  18
ENDBRANCH  15  16
ENDBRANCH  14  15
ENDBRANCH  13  14
ENDBRANCH  12  13
ENDBRANCH  11  12
ENDBRANCH   1  11
TORSDOF 8
ENDMDL
MODEL 5
REMARK VINA RESULT:      -6.1      1.740      2.687
REMARK  Name = 
REMARK  10 active torsions:
REMARK  status: ('A' for Active; 'I' for Inactive)
REMARK    1  A    between atoms: C_1  and  C_2
REMARK    2  A    between atoms: C_2  and  C_3
REMARK    3  A    between atoms: C_3  and  C_4
REMARK    4  A    between atoms: C_4  and  C_5
REMARK    5  A    between atoms: C_5  and  C_6
REMARK    6  A    between atoms: C_6  and  C_7
REMARK    7  A    between atoms: C_7  and  C_8
REMARK    8  A    between atoms: C_8  and  C_9
REMARK    9  A    between atoms: C_10  and  O_11
REMARK   10  A    between atoms: C_13  and  C_14
REMARK                            x       y       z     vdW  Elec       q    Type
REMARK                         _______ _______ _______ _____ _____    ______ ____
ROOT
ATOM      1  C   UNL     1       6.034   4.856  17.496  0.00  0.00    +0.000 A 
ATOM      2  C   UNL     1       5.678   3.895  16.644  0.00  0.00    +0.000 A 
ATOM      3  C   UNL     1       6.100   3.908  15.275  0.00  0.00    +0.000 A 
ATOM      4  C   UNL     1       6.927   4.872  14.853  0.00  0.00    +0.000 A 
ATOM      5  C   UNL     1       7.443   4.973  13.458  0.00  0.00    +0.000 C 
ATOM      6  O   UNL     1       7.371   5.886  15.727  0.00  0.00    +0.000 OA
ATOM      7  C   UNL     1       6.939   5.943  17.026  0.00  0.00    +0.000 A 
ATOM      8  O   UNL     1       7.301   6.849  17.776  0.00  0.00    +0.000 OA
ENDROOT
BRANCH   2   9
ATOM      9  O   UNL     1       4.889   2.808  16.940  0.00  0.00    +0.000 OA
ATOM     10  H   UNL     1       4.431   2.956  17.782  0.00  0.00    +0.000 HD
ENDBRANCH   2   9
BRANCH   1  11
ATOM     11  C   UNL     1       5.562   4.953  18.922  0.00  0.00    +0.000 C 
BRANCH  11  12
ATOM     12  C   UNL     1       4.338   5.861  19.043  0.00  0.00    +0.000 C 
BRANCH  12  13
ATOM     13  C   UNL     1       3.340   5.616  17.917  0.00  0.00    +0.000 C 
BRANCH  13  14
ATOM     14  C   UNL     1       2.009   5.133  18.487  0.00  0.00    +0.000 C 
BRANCH  14  15
ATOM     15  C   UNL     1       1.669   3.740  17.994  0.00  0.00    +0.000 C 
BRANCH  15  16
ATOM     16  C   UNL     1       1.007   2.933  19.104  0.00  0.00    +0.000 C 
BRANCH  16  18
ATOM     17  C   UNL     1       1.725   2.884  21.505  0.00  0.00    +0.000 C 
ATOM     18  C   UNL     1       1.043   3.699  20.421  0.00  0.00    +0.000 C 
ENDBRANCH  16  18
ENDBRANCH  15  16
ENDBRANCH  14  15
ENDBRANCH  13  14
ENDBRANCH  12  13
ENDBRANCH  11  12
ENDBRANCH   1  11
TORSDOF 8
ENDMDL
MODEL 6
REMARK VINA RESULT:      -6.1      1.971      2.934
REMARK  Name = 
REMARK  10 active torsions:
REMARK  status: ('A' for Active; 'I' for Inactive)
REMARK    1  A    between atoms: C_1  and  C_2
REMARK    2  A    between atoms: C_2  and  C_3
REMARK    3  A    between atoms: C_3  and  C_4
REMARK    4  A    between atoms: C_4  and  C_5
REMARK    5  A    between atoms: C_5  and  C_6
REMARK    6  A    between atoms: C_6  and  C_7
REMARK    7  A    between atoms: C_7  and  C_8
REMARK    8  A    between atoms: C_8  and  C_9
REMARK    9  A    between atoms: C_10  and  O_11
REMARK   10  A    between atoms: C_13  and  C_14
REMARK                            x       y       z     vdW  Elec       q    Type
REMARK                         _______ _______ _______ _____ _____    ______ ____
ROOT
ATOM      1  C   UNL     1       4.755   5.545  18.072  0.00  0.00    +0.000 A 
ATOM      2  C   UNL     1       5.449   4.422  17.881  0.00  0.00    +0.000 A 
ATOM      3  C   UNL     1       6.078   4.129  16.629  0.00  0.00    +0.000 A 
ATOM      4  C   UNL     1       6.027   5.032  15.642  0.00  0.00    +0.000 A 
ATOM      5  C   UNL     1       6.660   4.840  14.306  0.00  0.00    +0.000 C 
ATOM      6  O   UNL     1       5.346   6.255  15.808  0.00  0.00    +0.000 OA
ATOM      7  C   UNL     1       4.679   6.545  16.969  0.00  0.00    +0.000 A 
ATOM      8  O   UNL     1       4.056   7.599  17.098  0.00  0.00    +0.000 OA
ENDROOT
BRANCH   2   9
ATOM      9  O   UNL     1       5.647   3.431  18.814  0.00  0.00    +0.000 OA
ATOM     10  H   UNL     1       5.341   3.734  19.684  0.00  0.00    +0.000 HD
ENDBRANCH   2   9
BRANCH   1  11
ATOM     11  C   UNL     1       4.000   5.881  19.330  0.00  0.00    +0.000 C 
BRANCH  11  12
ATOM     12  C   UNL     1       2.493   5.709  19.137  0.00  0.00    +0.000 C 
BRANCH  12  13
ATOM     13  C   UNL     1       1.768   5.559  20.470  0.00  0.00    +0.000 C 
BRANCH  13  14
ATOM     14  C   UNL     1       0.961   4.264  20.491  0.00  0.00    +0.000 C 
BRANCH  14  15
ATOM     15  C   UNL     1       1.714   3.154  21.197  0.00  0.00    +0.000 C 
BRANCH  15  16
ATOM     16  C   UNL     1       2.429   2.271  20.181  0.00  0.00    +0.000 C 
BRANCH  16  18
ATOM     17  C   UNL     1       2.465   2.262  17.675  0.00  0.00    +0.000 C 
ATOM     18  C   UNL     1       1.597   2.127  18.914  0.00  0.00    +0.000 C 
ENDBRANCH  16  18
ENDBRANCH  15  16
ENDBRANCH  14  15
ENDBRANCH  13  14
ENDBRANCH  12  13
ENDBRANCH  11  12
ENDBRANCH   1  11
TORSDOF 8
ENDMDL
MODEL 7
REMARK VINA RESULT:      -6.0      2.119      3.465
REMARK  Name = 
REMARK  10 active torsions:
REMARK  status: ('A' for Active; 'I' for Inactive)
REMARK    1  A    between atoms: C_1  and  C_2
REMARK    2  A    between atoms: C_2  and  C_3
REMARK    3  A    between atoms: C_3  and  C_4
REMARK    4  A    between atoms: C_4  and  C_5
REMARK    5  A    between atoms: C_5  and  C_6
REMARK    6  A    between atoms: C_6  and  C_7
REMARK    7  A    between atoms: C_7  and  C_8
REMARK    8  A    between atoms: C_8  and  C_9
REMARK    9  A    between atoms: C_10  and  O_11
REMARK   10  A    between atoms: C_13  and  C_14
REMARK                            x       y       z     vdW  Elec       q    Type
REMARK                         _______ _______ _______ _____ _____    ______ ____
ROOT
ATOM      1  C   UNL     1       4.635   5.645  18.294  0.00  0.00    +0.000 A 
ATOM      2  C   UNL     1       4.451   6.389  17.202  0.00  0.00    +0.000 A 
ATOM      3  C   UNL     1       5.207   6.171  16.006  0.00  0.00    +0.000 A 
ATOM      4  C   UNL     1       6.076   5.155  15.955  0.00  0.00    +0.000 A 
ATOM      5  C   UNL     1       6.903   4.826  14.759  0.00  0.00    +0.000 C 
ATOM      6  O   UNL     1       6.275   4.310  17.066  0.00  0.00    +0.000 OA
ATOM      7  C   UNL     1       5.615   4.523  18.248  0.00  0.00    +0.000 A 
ATOM      8  O   UNL     1       5.817   3.805  19.227  0.00  0.00    +0.000 OA
ENDROOT
BRANCH   2   9
ATOM      9  O   UNL     1       3.553   7.424  17.076  0.00  0.00    +0.000 OA
ATOM     10  H   UNL     1       2.902   7.382  17.795  0.00  0.00    +0.000 HD
ENDBRANCH   2   9
BRANCH   1  11
ATOM     11  C   UNL     1       3.937   5.867  19.608  0.00  0.00    +0.000 C 
BRANCH  11  12
ATOM     12  C   UNL     1       2.453   5.510  19.518  0.00  0.00    +0.000 C 
BRANCH  12  13
ATOM     13  C   UNL     1       1.909   5.019  20.856  0.00  0.00    +0.000 C 
BRANCH  13  14
ATOM     14  C   UNL     1       1.395   3.589  20.724  0.00  0.00    +0.000 C 
BRANCH  14  15
ATOM     15  C   UNL     1       0.670   3.381  19.409  0.00  0.00    +0.000 C 
BRANCH  15  16
ATOM     16  C   UNL     1       1.117   2.078  18.759  0.00  0.00    +0.000 C 
BRANCH  16  18
ATOM     17  C   UNL     1       3.518   1.470  18.370  0.00  0.00    +0.000 C 
ATOM     18  C   UNL     1       2.346   2.306  17.888  0.00  0.00    +0.000 C 
ENDBRANCH  16  18
ENDBRANCH  15  16
ENDBRANCH  14  15
ENDBRANCH  13  14
ENDBRANCH  12  13
ENDBRANCH  11  12
ENDBRANCH   1  11
TORSDOF 8
ENDMDL
MODEL 8
REMARK VINA RESULT:      -6.0      3.134      6.410
REMARK  Name = 
REMARK  10 active torsions:
REMARK  status: ('A' for Active; 'I' for Inactive)
REMARK    1  A    between atoms: C_1  and  C_2
REMARK    2  A    between atoms: C_2  and  C_3
REMARK    3  A    between atoms: C_3  and  C_4
REMARK    4  A    between atoms: C_4  and  C_5
REMARK    5  A    between atoms: C_5  and  C_6
REMARK    6  A    between atoms: C_6  and  C_7
REMARK    7  A    between atoms: C_7  and  C_8
REMARK    8  A    between atoms: C_8  and  C_9
REMARK    9  A    between atoms: C_10  and  O_11
REMARK   10  A    between atoms: C_13  and  C_14
REMARK                            x       y       z     vdW  Elec       q    Type
REMARK                         _______ _______ _______ _____ _____    ______ ____
ROOT
ATOM      1  C   UNL     1       3.447   4.242  18.229  0.00  0.00    +0.000 A 
ATOM      2  C   UNL     1       3.720   4.676  19.459  0.00  0.00    +0.000 A 
ATOM      3  C   UNL     1       2.994   4.209  20.602  0.00  0.00    +0.000 A 
ATOM      4  C   UNL     1       2.059   3.264  20.443  0.00  0.00    +0.000 A 
ATOM      5  C   UNL     1       1.254   2.694  21.561  0.00  0.00    +0.000 C 
ATOM      6  O   UNL     1       1.764   2.738  19.168  0.00  0.00    +0.000 OA
ATOM      7  C   UNL     1       2.394   3.203  18.044  0.00  0.00    +0.000 A 
ATOM      8  O   UNL     1       2.109   2.766  16.930  0.00  0.00    +0.000 OA
ENDROOT
BRANCH   2   9
ATOM      9  O   UNL     1       4.691   5.592  19.793  0.00  0.00    +0.000 OA
ATOM     10  H   UNL     1       5.048   5.385  20.672  0.00  0.00    +0.000 HD
ENDBRANCH   2   9
BRANCH   1  11
ATOM     11  C   UNL     1       4.111   4.747  16.976  0.00  0.00    +0.000 C 
BRANCH  11  12
ATOM     12  C   UNL     1       5.111   3.728  16.427  0.00  0.00    +0.000 C 
BRANCH  12  13
ATOM     13  C   UNL     1       6.441   4.381  16.067  0.00  0.00    +0.000 C 
BRANCH  13  14
ATOM     14  C   UNL     1       6.390   4.936  14.647  0.00  0.00    +0.000 C 
BRANCH  14  15
ATOM     15  C   UNL     1       5.528   4.073  13.747  0.00  0.00    +0.000 C 
BRANCH  15  16
ATOM     16  C   UNL     1       6.334   3.592  12.546  0.00  0.00    +0.000 C 
BRANCH  16  18
ATOM     17  C   UNL     1       4.163   3.231  11.346  0.00  0.00    +0.000 C 
ATOM     18  C   UNL     1       5.512   2.631  11.697  0.00  0.00    +0.000 C 
ENDBRANCH  16  18
ENDBRANCH  15  16
ENDBRANCH  14  15
ENDBRANCH  13  14
ENDBRANCH  12  13
ENDBRANCH  11  12
ENDBRANCH   1  11
TORSDOF 8
ENDMDL
MODEL 9
REMARK VINA RESULT:      -6.0      2.298      6.317
REMARK  Name = 
REMARK  10 active torsions:
REMARK  status: ('A' for Active; 'I' for Inactive)
REMARK    1  A    between atoms: C_1  and  C_2
REMARK    2  A    between atoms: C_2  and  C_3
REMARK    3  A    between atoms: C_3  and  C_4
REMARK    4  A    between atoms: C_4  and  C_5
REMARK    5  A    between atoms: C_5  and  C_6
REMARK    6  A    between atoms: C_6  and  C_7
REMARK    7  A    between atoms: C_7  and  C_8
REMARK    8  A    between atoms: C_8  and  C_9
REMARK    9  A    between atoms: C_10  and  O_11
REMARK   10  A    between atoms: C_13  and  C_14
REMARK                            x       y       z     vdW  Elec       q    Type
REMARK                         _______ _______ _______ _____ _____    ______ ____
ROOT
ATOM      1  C   UNL     1       3.089   4.034  18.412  0.00  0.00    +0.000 A 
ATOM      2  C   UNL     1       3.148   4.768  19.524  0.00  0.00    +0.000 A 
ATOM      3  C   UNL     1       2.569   4.319  20.754  0.00  0.00    +0.000 A 
ATOM      4  C   UNL     1       2.009   3.104  20.810  0.00  0.00    +0.000 A 
ATOM      5  C   UNL     1       1.392   2.529  22.040  0.00  0.00    +0.000 C 
ATOM      6  O   UNL     1       1.962   2.270  19.675  0.00  0.00    +0.000 OA
ATOM      7  C   UNL     1       2.451   2.689  18.465  0.00  0.00    +0.000 A 
ATOM      8  O   UNL     1       2.376   1.972  17.468  0.00  0.00    +0.000 OA
ENDROOT
BRANCH   2   9
ATOM      9  O   UNL     1       3.743   6.002  19.643  0.00  0.00    +0.000 OA
ATOM     10  H   UNL     1       4.345   6.149  18.896  0.00  0.00    +0.000 HD
ENDBRANCH   2   9
BRANCH   1  11
ATOM     11  C   UNL     1       3.602   4.476  17.068  0.00  0.00    +0.000 C 
BRANCH  11  12
ATOM     12  C   UNL     1       5.081   4.127  16.894  0.00  0.00    +0.000 C 
BRANCH  12  13
ATOM     13  C   UNL     1       5.726   4.946  15.782  0.00  0.00    +0.000 C 
BRANCH  13  14
ATOM     14  C   UNL     1       7.158   5.315  16.160  0.00  0.00    +0.000 C 
BRANCH  14  15
ATOM     15  C   UNL     1       7.436   5.026  17.622  0.00  0.00    +0.000 C 
BRANCH  15  16
ATOM     16  C   UNL     1       7.669   6.324  18.383  0.00  0.00    +0.000 C 
BRANCH  16  18
ATOM     17  C   UNL     1       8.241   8.741  18.044  0.00  0.00    +0.000 C 
ATOM     18  C   UNL     1       7.559   7.523  17.449  0.00  0.00    +0.000 C 
ENDBRANCH  16  18
ENDBRANCH  15  16
ENDBRANCH  14  15
ENDBRANCH  13  14
ENDBRANCH  12  13
ENDBRANCH  11  12
ENDBRANCH   1  11
TORSDOF 8
ENDMDL
