MODEL 1
REMARK VINA RESULT:      -9.9      0.000      0.000
REMARK  Name = 
REMARK  8 active torsions:
REMARK  status: ('A' for Active; 'I' for Inactive)
REMARK    1  A    between atoms: C_1  and  C_2
REMARK    2  A    between atoms: C_4  and  C_5
REMARK    3  A    between atoms: C_13  and  C_14
REMARK    4  A    between atoms: C_14  and  N_15
REMARK    5  A    between atoms: C_19  and  C_20
REMARK    6  A    between atoms: N_22  and  C_23
REMARK    7  A    between atoms: C_23  and  C_24
REMARK    8  A    between atoms: C_23  and  C_25
REMARK                            x       y       z     vdW  Elec       q    Type
REMARK                         _______ _______ _______ _____ _____    ______ ____
ROOT
ATOM      1  N   UNL     1       3.701   4.242  19.152  0.00  0.00    +0.000 NA
ATOM      2  C   UNL     1       2.929   3.367  20.040  0.00  0.00    +0.000 C 
ATOM      3  C   UNL     1       1.436   3.686  20.077  0.00  0.00    +0.000 C 
ATOM      4  C   UNL     1       1.180   5.156  20.379  0.00  0.00    +0.000 C 
ATOM      5  C   UNL     1       1.894   6.051  19.362  0.00  0.00    +0.000 C 
ATOM      6  C   UNL     1       3.379   5.667  19.243  0.00  0.00    +0.000 C 
ENDROOT
BRANCH   5   7
ATOM      7  C   UNL     1       1.822   7.530  19.758  0.00  0.00    +0.000 C 
ATOM      8  O   UNL     1       2.012   7.919  20.909  0.00  0.00    +0.000 OA
ATOM      9  N   UNL     1       1.570   8.402  18.727  0.00  0.00    +0.000 N 
ATOM     10  H   UNL     1       1.399   8.043  17.800  0.00  0.00    +0.000 HD
BRANCH   9  11
ATOM     11  C   UNL     1       1.429   9.834  18.947  0.00  0.00    +0.000 C 
ATOM     12  C   UNL     1       2.401  10.612  18.060  0.00  0.00    +0.000 C 
BRANCH  11  13
ATOM     13  C   UNL     1      -0.004  10.273  18.710  0.00  0.00    +0.000 A 
ATOM     14  C   UNL     1      -0.651  11.105  19.640  0.00  0.00    +0.000 A 
ATOM     15  C   UNL     1      -1.956  11.550  19.412  0.00  0.00    +0.000 A 
ATOM     16  C   UNL     1      -2.628  11.168  18.256  0.00  0.00    +0.000 A 
ATOM     17  C   UNL     1      -1.996  10.348  17.321  0.00  0.00    +0.000 A 
ATOM     18  C   UNL     1      -0.700   9.889  17.552  0.00  0.00    +0.000 A 
ATOM     19  O   UNL     1      -2.580   9.949  16.145  0.00  0.00    +0.000 OA
ATOM     20  C   UNL     1      -3.723  10.755  15.838  0.00  0.00    +0.000 C 
ATOM     21  C   UNL     1      -4.601  10.932  17.066  0.00  0.00    +0.000 C 
ATOM     22  O   UNL     1      -3.904  11.644  18.094  0.00  0.00    +0.000 OA
ENDBRANCH  11  13
ENDBRANCH   9  11
ENDBRANCH   5   7
BRANCH   1  23
ATOM     23  C   UNL     1       5.170   4.024  19.283  0.00  0.00    +0.000 C 
BRANCH  23  29
ATOM     24  C   UNL     1       7.937   6.116  18.935  0.00  0.00    +0.000 C 
ATOM     25  C   UNL     1       7.095   5.325  18.019  0.00  0.00    +0.000 A 
ATOM     26  O   UNL     1       7.453   5.401  16.705  0.00  0.00    +0.000 OA
ATOM     27  C   UNL     1       6.556   4.621  16.041  0.00  0.00    +0.000 A 
ATOM     28  N   UNL     1       5.651   4.070  16.823  0.00  0.00    +0.000 NA
ATOM     29  C   UNL     1       5.995   4.490  18.102  0.00  0.00    +0.000 A 
BRANCH  27  30
ATOM     30  C   UNL     1       6.723   4.519  14.597  0.00  0.00    +0.000 A 
ATOM     31  C   UNL     1       7.678   5.309  13.921  0.00  0.00    +0.000 A 
ATOM     32  C   UNL     1       7.830   5.210  12.533  0.00  0.00    +0.000 A 
ATOM     33  C   UNL     1       7.040   4.322  11.814  0.00  0.00    +0.000 A 
ATOM     34  C   UNL     1       6.101   3.531  12.469  0.00  0.00    +0.000 A 
ATOM     35 CL   UNL     1       5.127   2.435  11.575  0.00  0.00    +0.000 Cl
ATOM     36  C   UNL     1       5.938   3.625  13.858  0.00  0.00    +0.000 A 
ENDBRANCH  27  30
ENDBRANCH  23  29
ENDBRANCH   1  23
TORSDOF 6
ENDMDL
MODEL 2
REMARK VINA RESULT:      -9.3      1.944      2.653
REMARK  Name = 
REMARK  8 active torsions:
REMARK  status: ('A' for Active; 'I' for Inactive)
REMARK    1  A    between atoms: C_1  and  C_2
REMARK    2  A    between atoms: C_4  and  C_5
REMARK    3  A    between atoms: C_13  and  C_14
REMARK    4  A    between atoms: C_14  and  N_15
REMARK    5  A    between atoms: C_19  and  C_20
REMARK    6  A    between atoms: N_22  and  C_23
REMARK    7  A    between atoms: C_23  and  C_24
REMARK    8  A    between atoms: C_23  and  C_25
REMARK                            x       y       z     vdW  Elec       q    Type
REMARK                         _______ _______ _______ _____ _____    ______ ____
ROOT
ATOM      1  N   UNL     1       3.714   4.079  19.198  0.00  0.00    +0.000 NA
ATOM      2  C   UNL     1       3.036   3.651  20.426  0.00  0.00    +0.000 C 
ATOM      3  C   UNL     1       1.595   4.145  20.540  0.00  0.00    +0.000 C 
ATOM      4  C   UNL     1       1.497   5.651  20.342  0.00  0.00    +0.000 C 
ATOM      5  C   UNL     1       2.099   6.061  18.996  0.00  0.00    +0.000 C 
ATOM      6  C   UNL     1       3.514   5.481  18.829  0.00  0.00    +0.000 C 
ENDROOT
BRANCH   5   7
ATOM      7  C   UNL     1       2.197   7.585  18.858  0.00  0.00    +0.000 C 
ATOM      8  O   UNL     1       3.077   8.137  18.200  0.00  0.00    +0.000 OA
ATOM      9  N   UNL     1       1.207   8.297  19.490  0.00  0.00    +0.000 N 
ATOM     10  H   UNL     1       0.513   7.810  20.038  0.00  0.00    +0.000 HD
BRANCH   9  11
ATOM     11  C   UNL     1       1.184   9.752  19.488  0.00  0.00    +0.000 C 
ATOM     12  C   UNL     1       0.771  10.282  18.116  0.00  0.00    +0.000 C 
BRANCH  11  13
ATOM     13  C   UNL     1       0.265  10.273  20.578  0.00  0.00    +0.000 A 
ATOM     14  C   UNL     1       0.393   9.801  21.896  0.00  0.00    +0.000 A 
ATOM     15  C   UNL     1      -0.419  10.305  22.916  0.00  0.00    +0.000 A 
ATOM     16  C   UNL     1      -1.366  11.282  22.632  0.00  0.00    +0.000 A 
ATOM     17  C   UNL     1      -1.499  11.765  21.329  0.00  0.00    +0.000 A 
ATOM     18  C   UNL     1      -0.702  11.254  20.305  0.00  0.00    +0.000 A 
ATOM     19  O   UNL     1      -2.390  12.746  20.972  0.00  0.00    +0.000 OA
ATOM     20  C   UNL     1      -2.875  13.445  22.123  0.00  0.00    +0.000 C 
ATOM     21  C   UNL     1      -3.265  12.469  23.220  0.00  0.00    +0.000 C 
ATOM     22  O   UNL     1      -2.125  11.734  23.680  0.00  0.00    +0.000 OA
ENDBRANCH  11  13
ENDBRANCH   9  11
ENDBRANCH   5   7
BRANCH   1  23
ATOM     23  C   UNL     1       5.166   3.739  19.209  0.00  0.00    +0.000 C 
BRANCH  23  29
ATOM     24  C   UNL     1       7.767   6.040  18.906  0.00  0.00    +0.000 C 
ATOM     25  C   UNL     1       6.993   5.200  17.974  0.00  0.00    +0.000 A 
ATOM     26  O   UNL     1       7.351   5.321  16.664  0.00  0.00    +0.000 OA
ATOM     27  C   UNL     1       6.519   4.483  15.983  0.00  0.00    +0.000 A 
ATOM     28  N   UNL     1       5.656   3.855  16.752  0.00  0.00    +0.000 NA
ATOM     29  C   UNL     1       5.959   4.282  18.039  0.00  0.00    +0.000 A 
BRANCH  27  30
ATOM     30  C   UNL     1       6.702   4.414  14.539  0.00  0.00    +0.000 A 
ATOM     31  C   UNL     1       7.680   5.201  13.894  0.00  0.00    +0.000 A 
ATOM     32  C   UNL     1       7.848   5.133  12.506  0.00  0.00    +0.000 A 
ATOM     33  C   UNL     1       7.048   4.279  11.756  0.00  0.00    +0.000 A 
ATOM     34  C   UNL     1       6.085   3.492  12.380  0.00  0.00    +0.000 A 
ATOM     35 CL   UNL     1       5.100   2.439  11.448  0.00  0.00    +0.000 Cl
ATOM     36  C   UNL     1       5.908   3.555  13.770  0.00  0.00    +0.000 A 
ENDBRANCH  27  30
ENDBRANCH  23  29
ENDBRANCH   1  23
TORSDOF 6
ENDMDL
MODEL 3
REMARK VINA RESULT:      -8.9      2.500      4.660
REMARK  Name = 
REMARK  8 active torsions:
REMARK  status: ('A' for Active; 'I' for Inactive)
REMARK    1  A    between atoms: C_1  and  C_2
REMARK    2  A    between atoms: C_4  and  C_5
REMARK    3  A    between atoms: C_13  and  C_14
REMARK    4  A    between atoms: C_14  and  N_15
REMARK    5  A    between atoms: C_19  and  C_20
REMARK    6  A    between atoms: N_22  and  C_23
REMARK    7  A    between atoms: C_23  and  C_24
REMARK    8  A    between atoms: C_23  and  C_25
REMARK                            x       y       z     vdW  Elec       q    Type
REMARK                         _______ _______ _______ _____ _____    ______ ____
ROOT
ATOM      1  N   UNL     1       1.697   8.193  20.353  0.00  0.00    +0.000 NA
ATOM      2  C   UNL     1       1.438   8.400  18.925  0.00  0.00    +0.000 C 
ATOM      3  C   UNL     1       1.449   9.867  18.500  0.00  0.00    +0.000 C 
ATOM      4  C   UNL     1       0.524  10.712  19.364  0.00  0.00    +0.000 C 
ATOM      5  C   UNL     1       0.893  10.579  20.844  0.00  0.00    +0.000 C 
ATOM      6  C   UNL     1       0.985   9.100  21.256  0.00  0.00    +0.000 C 
ENDROOT
BRANCH   5   7
ATOM      7  C   UNL     1      -0.142  11.255  21.750  0.00  0.00    +0.000 C 
ATOM      8  O   UNL     1      -0.313  10.927  22.923  0.00  0.00    +0.000 OA
ATOM      9  N   UNL     1      -0.843  12.287  21.174  0.00  0.00    +0.000 N 
ATOM     10  H   UNL     1      -0.690  12.513  20.203  0.00  0.00    +0.000 HD
BRANCH   9  11
ATOM     11  C   UNL     1      -1.890  13.001  21.890  0.00  0.00    +0.000 C 
ATOM     12  C   UNL     1      -1.583  14.497  21.939  0.00  0.00    +0.000 C 
BRANCH  11  13
ATOM     13  C   UNL     1      -3.245  12.737  21.259  0.00  0.00    +0.000 A 
ATOM     14  C   UNL     1      -4.415  12.836  22.032  0.00  0.00    +0.000 A 
ATOM     15  C   UNL     1      -5.671  12.637  21.452  0.00  0.00    +0.000 A 
ATOM     16  C   UNL     1      -5.771  12.335  20.098  0.00  0.00    +0.000 A 
ATOM     17  C   UNL     1      -4.618  12.240  19.318  0.00  0.00    +0.000 A 
ATOM     18  C   UNL     1      -3.362  12.423  19.896  0.00  0.00    +0.000 A 
ATOM     19  O   UNL     1      -4.634  11.973  17.972  0.00  0.00    +0.000 OA
ATOM     20  C   UNL     1      -5.940  12.173  17.422  0.00  0.00    +0.000 C 
ATOM     21  C   UNL     1      -6.999  11.533  18.306  0.00  0.00    +0.000 C 
ATOM     22  O   UNL     1      -7.034  12.157  19.594  0.00  0.00    +0.000 OA
ENDBRANCH  11  13
ENDBRANCH   9  11
ENDBRANCH   5   7
BRANCH   1  23
ATOM     23  C   UNL     1       1.494   6.775  20.764  0.00  0.00    +0.000 C 
BRANCH  23  29
ATOM     24  C   UNL     1       0.958   3.421  19.979  0.00  0.00    +0.000 C 
ATOM     25  C   UNL     1       1.987   4.425  19.653  0.00  0.00    +0.000 A 
ATOM     26  O   UNL     1       2.991   3.974  18.849  0.00  0.00    +0.000 OA
ATOM     27  C   UNL     1       3.826   5.037  18.682  0.00  0.00    +0.000 A 
ATOM     28  N   UNL     1       3.442   6.119  19.326  0.00  0.00    +0.000 NA
ATOM     29  C   UNL     1       2.248   5.755  19.937  0.00  0.00    +0.000 A 
BRANCH  27  30
ATOM     30  C   UNL     1       4.996   4.823  17.840  0.00  0.00    +0.000 A 
ATOM     31  C   UNL     1       6.298   4.866  18.384  0.00  0.00    +0.000 A 
ATOM     32  C   UNL     1       7.418   4.664  17.568  0.00  0.00    +0.000 A 
ATOM     33  C   UNL     1       7.247   4.413  16.212  0.00  0.00    +0.000 A 
ATOM     34  C   UNL     1       5.968   4.361  15.664  0.00  0.00    +0.000 A 
ATOM     35 CL   UNL     1       5.764   4.051  13.988  0.00  0.00    +0.000 Cl
ATOM     36  C   UNL     1       4.841   4.565  16.473  0.00  0.00    +0.000 A 
ENDBRANCH  27  30
ENDBRANCH  23  29
ENDBRANCH   1  23
TORSDOF 6
ENDMDL
MODEL 4
REMARK VINA RESULT:      -8.5      3.414      4.870
REMARK  Name = 
REMARK  8 active torsions:
REMARK  status: ('A' for Active; 'I' for Inactive)
REMARK    1  A    between atoms: C_1  and  C_2
REMARK    2  A    between atoms: C_4  and  C_5
REMARK    3  A    between atoms: C_13  and  C_14
REMARK    4  A    between atoms: C_14  and  N_15
REMARK    5  A    between atoms: C_19  and  C_20
REMARK    6  A    between atoms: N_22  and  C_23
REMARK    7  A    between atoms: C_23  and  C_24
REMARK    8  A    between atoms: C_23  and  C_25
REMARK                            x       y       z     vdW  Elec       q    Type
REMARK                         _______ _______ _______ _____ _____    ______ ____
ROOT
ATOM      1  N   UNL     1       4.447   6.224  16.887  0.00  0.00    +0.000 NA
ATOM      2  C   UNL     1       4.693   5.097  17.792  0.00  0.00    +0.000 C 
ATOM      3  C   UNL     1       3.475   4.690  18.618  0.00  0.00    +0.000 C 
ATOM      4  C   UNL     1       2.870   5.878  19.354  0.00  0.00    +0.000 C 
ATOM      5  C   UNL     1       2.504   6.995  18.373  0.00  0.00    +0.000 C 
ATOM      6  C   UNL     1       3.697   7.340  17.466  0.00  0.00    +0.000 C 
ENDROOT
BRANCH   5   7
ATOM      7  C   UNL     1       2.082   8.275  19.103  0.00  0.00    +0.000 C 
ATOM      8  O   UNL     1       1.848   8.305  20.310  0.00  0.00    +0.000 OA
ATOM      9  N   UNL     1       2.023   9.404  18.323  0.00  0.00    +0.000 N 
ATOM     10  H   UNL     1       2.203   9.336  17.332  0.00  0.00    +0.000 HD
BRANCH   9  11
ATOM     11  C   UNL     1       1.599  10.689  18.858  0.00  0.00    +0.000 C 
ATOM     12  C   UNL     1       2.363  11.830  18.186  0.00  0.00    +0.000 C 
BRANCH  11  13
ATOM     13  C   UNL     1       0.100  10.865  18.702  0.00  0.00    +0.000 A 
ATOM     14  C   UNL     1      -0.624  11.620  19.641  0.00  0.00    +0.000 A 
ATOM     15  C   UNL     1      -1.998  11.824  19.485  0.00  0.00    +0.000 A 
ATOM     16  C   UNL     1      -2.663  11.275  18.394  0.00  0.00    +0.000 A 
ATOM     17  C   UNL     1      -1.955  10.528  17.451  0.00  0.00    +0.000 A 
ATOM     18  C   UNL     1      -0.587  10.309  17.611  0.00  0.00    +0.000 A 
ATOM     19  O   UNL     1      -2.531   9.976  16.335  0.00  0.00    +0.000 OA
ATOM     20  C   UNL     1      -3.813  10.558  16.075  0.00  0.00    +0.000 C 
ATOM     21  C   UNL     1      -4.633  10.645  17.353  0.00  0.00    +0.000 C 
ATOM     22  O   UNL     1      -4.009  11.517  18.301  0.00  0.00    +0.000 OA
ENDBRANCH  11  13
ENDBRANCH   9  11
ENDBRANCH   5   7
BRANCH   1  23
ATOM     23  C   UNL     1       5.698   6.711  16.239  0.00  0.00    +0.000 C 
BRANCH  23  29
ATOM     24  C   UNL     1       7.736   5.108  18.570  0.00  0.00    +0.000 C 
ATOM     25  C   UNL     1       7.561   6.496  18.106  0.00  0.00    +0.000 A 
ATOM     26  O   UNL     1       8.377   7.407  18.707  0.00  0.00    +0.000 OA
ATOM     27  C   UNL     1       8.052   8.607  18.152  0.00  0.00    +0.000 A 
ATOM     28  N   UNL     1       7.087   8.533  17.260  0.00  0.00    +0.000 NA
ATOM     29  C   UNL     1       6.774   7.181  17.196  0.00  0.00    +0.000 A 
BRANCH  27  30
ATOM     30  C   UNL     1       8.798   9.767  18.620  0.00  0.00    +0.000 A 
ATOM     31  C   UNL     1       9.022   9.977  19.998  0.00  0.00    +0.000 A 
ATOM     32  C   UNL     1       9.736  11.096  20.442  0.00  0.00    +0.000 A 
ATOM     33  C   UNL     1      10.234  12.007  19.518  0.00  0.00    +0.000 A 
ATOM     34  C   UNL     1      10.027  11.809  18.157  0.00  0.00    +0.000 A 
ATOM     35 CL   UNL     1      10.644  12.939  17.021  0.00  0.00    +0.000 Cl
ATOM     36  C   UNL     1       9.311  10.692  17.702  0.00  0.00    +0.000 A 
ENDBRANCH  27  30
ENDBRANCH  23  29
ENDBRANCH   1  23
TORSDOF 6
ENDMDL
MODEL 5
REMARK VINA RESULT:      -8.5      3.383      5.402
REMARK  Name = 
REMARK  8 active torsions:
REMARK  status: ('A' for Active; 'I' for Inactive)
REMARK    1  A    between atoms: C_1  and  C_2
REMARK    2  A    between atoms: C_4  and  C_5
REMARK    3  A    between atoms: C_13  and  C_14
REMARK    4  A    between atoms: C_14  and  N_15
REMARK    5  A    between atoms: C_19  and  C_20
REMARK    6  A    between atoms: N_22  and  C_23
REMARK    7  A    between atoms: C_23  and  C_24
REMARK    8  A    between atoms: C_23  and  C_25
REMARK                            x       y       z     vdW  Elec       q    Type
REMARK                         _______ _______ _______ _____ _____    ______ ____
ROOT
ATOM      1  N   UNL     1       1.550   8.355  20.646  0.00  0.00    +0.000 NA
ATOM      2  C   UNL     1       1.173   8.669  19.265  0.00  0.00    +0.000 C 
ATOM      3  C   UNL     1       1.066  10.165  18.978  0.00  0.00    +0.000 C 
ATOM      4  C   UNL     1       0.159  10.868  19.979  0.00  0.00    +0.000 C 
ATOM      5  C   UNL     1       0.646  10.630  21.411  0.00  0.00    +0.000 C 
ATOM      6  C   UNL     1       0.855   9.129  21.676  0.00  0.00    +0.000 C 
ENDROOT
BRANCH   5   7
ATOM      7  C   UNL     1      -0.357  11.154  22.445  0.00  0.00    +0.000 C 
ATOM      8  O   UNL     1      -0.818  10.448  23.341  0.00  0.00    +0.000 OA
ATOM      9  N   UNL     1      -0.678  12.485  22.331  0.00  0.00    +0.000 N 
ATOM     10  H   UNL     1      -0.296  13.027  21.571  0.00  0.00    +0.000 HD
BRANCH   9  11
ATOM     11  C   UNL     1      -1.646  13.122  23.210  0.00  0.00    +0.000 C 
ATOM     12  C   UNL     1      -1.186  14.529  23.589  0.00  0.00    +0.000 C 
BRANCH  11  13
ATOM     13  C   UNL     1      -3.020  13.148  22.565  0.00  0.00    +0.000 A 
ATOM     14  C   UNL     1      -3.153  13.452  21.199  0.00  0.00    +0.000 A 
ATOM     15  C   UNL     1      -4.408  13.437  20.585  0.00  0.00    +0.000 A 
ATOM     16  C   UNL     1      -5.541  13.122  21.326  0.00  0.00    +0.000 A 
ATOM     17  C   UNL     1      -5.422  12.812  22.682  0.00  0.00    +0.000 A 
ATOM     18  C   UNL     1      -4.174  12.840  23.302  0.00  0.00    +0.000 A 
ATOM     19  O   UNL     1      -6.487  12.464  23.475  0.00  0.00    +0.000 OA
ATOM     20  C   UNL     1      -7.625  12.107  22.684  0.00  0.00    +0.000 C 
ATOM     21  C   UNL     1      -7.844  13.118  21.570  0.00  0.00    +0.000 C 
ATOM     22  O   UNL     1      -6.739  13.123  20.659  0.00  0.00    +0.000 OA
ENDBRANCH  11  13
ENDBRANCH   9  11
ENDBRANCH   5   7
BRANCH   1  23
ATOM     23  C   UNL     1       1.462   6.895  20.937  0.00  0.00    +0.000 C 
BRANCH  23  29
ATOM     24  C   UNL     1       0.979   3.645  19.772  0.00  0.00    +0.000 C 
ATOM     25  C   UNL     1       1.970   4.710  19.534  0.00  0.00    +0.000 A 
ATOM     26  O   UNL     1       2.954   4.388  18.647  0.00  0.00    +0.000 OA
ATOM     27  C   UNL     1       3.756   5.487  18.581  0.00  0.00    +0.000 A 
ATOM     28  N   UNL     1       3.369   6.472  19.364  0.00  0.00    +0.000 NA
ATOM     29  C   UNL     1       2.209   6.003  19.967  0.00  0.00    +0.000 A 
BRANCH  27  30
ATOM     30  C   UNL     1       4.898   5.409  17.680  0.00  0.00    +0.000 A 
ATOM     31  C   UNL     1       6.147   5.954  18.044  0.00  0.00    +0.000 A 
ATOM     32  C   UNL     1       7.239   5.879  17.171  0.00  0.00    +0.000 A 
ATOM     33  C   UNL     1       7.094   5.259  15.937  0.00  0.00    +0.000 A 
ATOM     34  C   UNL     1       5.869   4.710  15.568  0.00  0.00    +0.000 A 
ATOM     35 CL   UNL     1       5.696   3.945  14.040  0.00  0.00    +0.000 Cl
ATOM     36  C   UNL     1       4.769   4.782  16.434  0.00  0.00    +0.000 A 
ENDBRANCH  27  30
ENDBRANCH  23  29
ENDBRANCH   1  23
TORSDOF 6
ENDMDL
MODEL 6
REMARK VINA RESULT:      -8.3      1.413      1.754
REMARK  Name = 
REMARK  8 active torsions:
REMARK  status: ('A' for Active; 'I' for Inactive)
REMARK    1  A    between atoms: C_1  and  C_2
REMARK    2  A    between atoms: C_4  and  C_5
REMARK    3  A    between atoms: C_13  and  C_14
REMARK    4  A    between atoms: C_14  and  N_15
REMARK    5  A    between atoms: C_19  and  C_20
REMARK    6  A    between atoms: N_22  and  C_23
REMARK    7  A    between atoms: C_23  and  C_24
REMARK    8  A    between atoms: C_23  and  C_25
REMARK                            x       y       z     vdW  Elec       q    Type
REMARK                         _______ _______ _______ _____ _____    ______ ____
ROOT
ATOM      1  N   UNL     1       3.637   6.368  18.071  0.00  0.00    +0.000 NA
ATOM      2  C   UNL     1       3.890   5.246  18.981  0.00  0.00    +0.000 C 
ATOM      3  C   UNL     1       2.685   4.859  19.834  0.00  0.00    +0.000 C 
ATOM      4  C   UNL     1       2.106   6.058  20.572  0.00  0.00    +0.000 C 
ATOM      5  C   UNL     1       1.732   7.170  19.589  0.00  0.00    +0.000 C 
ATOM      6  C   UNL     1       2.910   7.496  18.655  0.00  0.00    +0.000 C 
ENDROOT
BRANCH   5   7
ATOM      7  C   UNL     1       1.337   8.461  20.315  0.00  0.00    +0.000 C 
ATOM      8  O   UNL     1       1.330   8.557  21.542  0.00  0.00    +0.000 OA
ATOM      9  N   UNL     1       1.030   9.524  19.501  0.00  0.00    +0.000 N 
ATOM     10  H   UNL     1       1.027   9.400  18.500  0.00  0.00    +0.000 HD
BRANCH   9  11
ATOM     11  C   UNL     1       0.596  10.805  20.037  0.00  0.00    +0.000 C 
ATOM     12  C   UNL     1       1.571  11.913  19.638  0.00  0.00    +0.000 C 
BRANCH  11  13
ATOM     13  C   UNL     1      -0.816  11.124  19.583  0.00  0.00    +0.000 A 
ATOM     14  C   UNL     1      -1.622  11.993  20.340  0.00  0.00    +0.000 A 
ATOM     15  C   UNL     1      -2.909  12.328  19.909  0.00  0.00    +0.000 A 
ATOM     16  C   UNL     1      -3.405  11.798  18.723  0.00  0.00    +0.000 A 
ATOM     17  C   UNL     1      -2.613  10.940  17.960  0.00  0.00    +0.000 A 
ATOM     18  C   UNL     1      -1.335  10.591  18.393  0.00  0.00    +0.000 A 
ATOM     19  O   UNL     1      -3.018  10.397  16.766  0.00  0.00    +0.000 OA
ATOM     20  C   UNL     1      -4.154  11.093  16.242  0.00  0.00    +0.000 C 
ATOM     21  C   UNL     1      -5.191  11.324  17.329  0.00  0.00    +0.000 C 
ATOM     22  O   UNL     1      -4.673  12.172  18.359  0.00  0.00    +0.000 OA
ENDBRANCH  11  13
ENDBRANCH   9  11
ENDBRANCH   5   7
BRANCH   1  23
ATOM     23  C   UNL     1       4.880   6.837  17.394  0.00  0.00    +0.000 C 
BRANCH  23  29
ATOM     24  C   UNL     1       7.622   4.733  17.853  0.00  0.00    +0.000 C 
ATOM     25  C   UNL     1       6.662   4.985  16.763  0.00  0.00    +0.000 A 
ATOM     26  O   UNL     1       6.856   4.231  15.645  0.00  0.00    +0.000 OA
ATOM     27  C   UNL     1       5.884   4.621  14.772  0.00  0.00    +0.000 A 
ATOM     28  N   UNL     1       5.102   5.570  15.241  0.00  0.00    +0.000 NA
ATOM     29  C   UNL     1       5.568   5.802  16.530  0.00  0.00    +0.000 A 
BRANCH  27  30
ATOM     30  C   UNL     1       5.861   3.950  13.479  0.00  0.00    +0.000 A 
ATOM     31  C   UNL     1       7.049   3.462  12.894  0.00  0.00    +0.000 A 
ATOM     32  C   UNL     1       7.020   2.823  11.649  0.00  0.00    +0.000 A 
ATOM     33  C   UNL     1       5.810   2.662  10.985  0.00  0.00    +0.000 A 
ATOM     34  C   UNL     1       4.630   3.131  11.554  0.00  0.00    +0.000 A 
ATOM     35 CL   UNL     1       3.138   2.929  10.728  0.00  0.00    +0.000 Cl
ATOM     36  C   UNL     1       4.649   3.776  12.799  0.00  0.00    +0.000 A 
ENDBRANCH  27  30
ENDBRANCH  23  29
ENDBRANCH   1  23
TORSDOF 6
ENDMDL
MODEL 7
REMARK VINA RESULT:      -8.3      2.300      2.978
REMARK  Name = 
REMARK  8 active torsions:
REMARK  status: ('A' for Active; 'I' for Inactive)
REMARK    1  A    between atoms: C_1  and  C_2
REMARK    2  A    between atoms: C_4  and  C_5
REMARK    3  A    between atoms: C_13  and  C_14
REMARK    4  A    between atoms: C_14  and  N_15
REMARK    5  A    between atoms: C_19  and  C_20
REMARK    6  A    between atoms: N_22  and  C_23
REMARK    7  A    between atoms: C_23  and  C_24
REMARK    8  A    between atoms: C_23  and  C_25
REMARK                            x       y       z     vdW  Elec       q    Type
REMARK                         _______ _______ _______ _____ _____    ______ ____
ROOT
ATOM      1  N   UNL     1       3.365   3.588  19.296  0.00  0.00    +0.000 NA
ATOM      2  C   UNL     1       2.793   3.212  20.592  0.00  0.00    +0.000 C 
ATOM      3  C   UNL     1       1.426   3.835  20.869  0.00  0.00    +0.000 C 
ATOM      4  C   UNL     1       1.446   5.346  20.684  0.00  0.00    +0.000 C 
ATOM      5  C   UNL     1       1.929   5.714  19.278  0.00  0.00    +0.000 C 
ATOM      6  C   UNL     1       3.256   5.007  18.952  0.00  0.00    +0.000 C 
ENDROOT
BRANCH   5   7
ATOM      7  C   UNL     1       2.152   7.223  19.132  0.00  0.00    +0.000 C 
ATOM      8  O   UNL     1       3.060   7.697  18.451  0.00  0.00    +0.000 OA
ATOM      9  N   UNL     1       1.239   8.018  19.782  0.00  0.00    +0.000 N 
ATOM     10  H   UNL     1       0.520   7.592  20.347  0.00  0.00    +0.000 HD
BRANCH   9  11
ATOM     11  C   UNL     1       1.339   9.469  19.774  0.00  0.00    +0.000 C 
ATOM     12  C   UNL     1       1.104  10.017  18.367  0.00  0.00    +0.000 C 
BRANCH  11  13
ATOM     13  C   UNL     1       0.369  10.078  20.770  0.00  0.00    +0.000 A 
ATOM     14  C   UNL     1       0.221   9.512  22.048  0.00  0.00    +0.000 A 
ATOM     15  C   UNL     1      -0.637  10.089  22.989  0.00  0.00    +0.000 A 
ATOM     16  C   UNL     1      -1.358  11.232  22.663  0.00  0.00    +0.000 A 
ATOM     17  C   UNL     1      -1.216  11.807  21.399  0.00  0.00    +0.000 A 
ATOM     18  C   UNL     1      -0.372  11.227  20.453  0.00  0.00    +0.000 A 
ATOM     19  O   UNL     1      -1.871  12.949  21.009  0.00  0.00    +0.000 OA
ATOM     20  C   UNL     1      -2.398  13.652  22.139  0.00  0.00    +0.000 C 
ATOM     21  C   UNL     1      -3.101  12.696  23.088  0.00  0.00    +0.000 C 
ATOM     22  O   UNL     1      -2.178  11.746  23.633  0.00  0.00    +0.000 OA
ENDBRANCH  11  13
ENDBRANCH   9  11
ENDBRANCH   5   7
BRANCH   1  23
ATOM     23  C   UNL     1       4.771   3.116  19.142  0.00  0.00    +0.000 C 
BRANCH  23  29
ATOM     24  C   UNL     1       7.135   5.679  19.130  0.00  0.00    +0.000 C 
ATOM     25  C   UNL     1       6.500   4.829  18.106  0.00  0.00    +0.000 A 
ATOM     26  O   UNL     1       6.912   5.069  16.829  0.00  0.00    +0.000 OA
ATOM     27  C   UNL     1       6.208   4.200  16.052  0.00  0.00    +0.000 A 
ATOM     28  N   UNL     1       5.374   3.440  16.730  0.00  0.00    +0.000 NA
ATOM     29  C   UNL     1       5.564   3.810  18.055  0.00  0.00    +0.000 A 
BRANCH  27  30
ATOM     30  C   UNL     1       6.472   4.243  14.620  0.00  0.00    +0.000 A 
ATOM     31  C   UNL     1       5.813   3.363  13.734  0.00  0.00    +0.000 A 
ATOM     32  C   UNL     1       6.075   3.407  12.359  0.00  0.00    +0.000 A 
ATOM     33  C   UNL     1       6.989   4.327  11.861  0.00  0.00    +0.000 A 
ATOM     34  C   UNL     1       7.640   5.206  12.721  0.00  0.00    +0.000 A 
ATOM     35 CL   UNL     1       8.768   6.341  12.099  0.00  0.00    +0.000 Cl
ATOM     36  C   UNL     1       7.386   5.168  14.100  0.00  0.00    +0.000 A 
ENDBRANCH  27  30
ENDBRANCH  23  29
ENDBRANCH   1  23
TORSDOF 6
ENDMDL
MODEL 8
REMARK VINA RESULT:      -8.3      3.296      4.755
REMARK  Name = 
REMARK  8 active torsions:
REMARK  status: ('A' for Active; 'I' for Inactive)
REMARK    1  A    between atoms: C_1  and  C_2
REMARK    2  A    between atoms: C_4  and  C_5
REMARK    3  A    between atoms: C_13  and  C_14
REMARK    4  A    between atoms: C_14  and  N_15
REMARK    5  A    between atoms: C_19  and  C_20
REMARK    6  A    between atoms: N_22  and  C_23
REMARK    7  A    between atoms: C_23  and  C_24
REMARK    8  A    between atoms: C_23  and  C_25
REMARK                            x       y       z     vdW  Elec       q    Type
REMARK                         _______ _______ _______ _____ _____    ______ ____
ROOT
ATOM      1  N   UNL     1       3.925   5.896  17.328  0.00  0.00    +0.000 NA
ATOM      2  C   UNL     1       4.418   4.975  18.357  0.00  0.00    +0.000 C 
ATOM      3  C   UNL     1       3.385   4.635  19.429  0.00  0.00    +0.000 C 
ATOM      4  C   UNL     1       2.776   5.887  20.044  0.00  0.00    +0.000 C 
ATOM      5  C   UNL     1       2.154   6.775  18.963  0.00  0.00    +0.000 C 
ATOM      6  C   UNL     1       3.158   7.039  17.827  0.00  0.00    +0.000 C 
ENDROOT
BRANCH   5   7
ATOM      7  C   UNL     1       1.715   8.132  19.527  0.00  0.00    +0.000 C 
ATOM      8  O   UNL     1       1.717   8.382  20.731  0.00  0.00    +0.000 OA
ATOM      9  N   UNL     1       1.356   9.069  18.589  0.00  0.00    +0.000 N 
ATOM     10  H   UNL     1       1.348   8.819  17.612  0.00  0.00    +0.000 HD
BRANCH   9  11
ATOM     11  C   UNL     1       0.876  10.390  18.966  0.00  0.00    +0.000 C 
ATOM     12  C   UNL     1       1.780  11.477  18.384  0.00  0.00    +0.000 C 
BRANCH  11  13
ATOM     13  C   UNL     1      -0.564  10.581  18.528  0.00  0.00    +0.000 A 
ATOM     14  C   UNL     1      -1.067   9.871  17.425  0.00  0.00    +0.000 A 
ATOM     15  C   UNL     1      -2.404  10.006  17.039  0.00  0.00    +0.000 A 
ATOM     16  C   UNL     1      -3.250  10.852  17.748  0.00  0.00    +0.000 A 
ATOM     17  C   UNL     1      -2.765  11.558  18.849  0.00  0.00    +0.000 A 
ATOM     18  C   UNL     1      -1.428  11.438  19.229  0.00  0.00    +0.000 A 
ATOM     19  O   UNL     1      -3.540  12.391  19.617  0.00  0.00    +0.000 OA
ATOM     20  C   UNL     1      -4.933  12.158  19.383  0.00  0.00    +0.000 C 
ATOM     21  C   UNL     1      -5.220  12.060  17.894  0.00  0.00    +0.000 C 
ATOM     22  O   UNL     1      -4.549  10.935  17.317  0.00  0.00    +0.000 OA
ENDBRANCH  11  13
ENDBRANCH   9  11
ENDBRANCH   5   7
BRANCH   1  23
ATOM     23  C   UNL     1       5.009   6.351  16.412  0.00  0.00    +0.000 C 
BRANCH  23  29
ATOM     24  C   UNL     1       7.768   4.774  17.845  0.00  0.00    +0.000 C 
ATOM     25  C   UNL     1       7.339   6.171  17.652  0.00  0.00    +0.000 A 
ATOM     26  O   UNL     1       8.204   7.107  18.136  0.00  0.00    +0.000 OA
ATOM     27  C   UNL     1       7.622   8.310  17.870  0.00  0.00    +0.000 A 
ATOM     28  N   UNL     1       6.454   8.211  17.272  0.00  0.00    +0.000 NA
ATOM     29  C   UNL     1       6.264   6.846  17.099  0.00  0.00    +0.000 A 
BRANCH  27  30
ATOM     30  C   UNL     1       8.359   9.497  18.282  0.00  0.00    +0.000 A 
ATOM     31  C   UNL     1       9.232   9.459  19.391  0.00  0.00    +0.000 A 
ATOM     32  C   UNL     1       9.933  10.605  19.785  0.00  0.00    +0.000 A 
ATOM     33  C   UNL     1       9.774  11.789  19.076  0.00  0.00    +0.000 A 
ATOM     34  C   UNL     1       8.922  11.838  17.976  0.00  0.00    +0.000 A 
ATOM     35 CL   UNL     1       8.729  13.304  17.104  0.00  0.00    +0.000 Cl
ATOM     36  C   UNL     1       8.213  10.697  17.575  0.00  0.00    +0.000 A 
ENDBRANCH  27  30
ENDBRANCH  23  29
ENDBRANCH   1  23
TORSDOF 6
ENDMDL
MODEL 9
REMARK VINA RESULT:      -8.1      6.488      9.820
REMARK  Name = 
REMARK  8 active torsions:
REMARK  status: ('A' for Active; 'I' for Inactive)
REMARK    1  A    between atoms: C_1  and  C_2
REMARK    2  A    between atoms: C_4  and  C_5
REMARK    3  A    between atoms: C_13  and  C_14
REMARK    4  A    between atoms: C_14  and  N_15
REMARK    5  A    between atoms: C_19  and  C_20
REMARK    6  A    between atoms: N_22  and  C_23
REMARK    7  A    between atoms: C_23  and  C_24
REMARK    8  A    between atoms: C_23  and  C_25
REMARK                            x       y       z     vdW  Elec       q    Type
REMARK                         _______ _______ _______ _____ _____    ______ ____
ROOT
ATOM      1  N   UNL     1      -6.173  12.291  18.058  0.00  0.00    +0.000 NA
ATOM      2  C   UNL     1      -6.667  10.935  18.318  0.00  0.00    +0.000 C 
ATOM      3  C   UNL     1      -7.388  10.785  19.655  0.00  0.00    +0.000 C 
ATOM      4  C   UNL     1      -6.545  11.305  20.812  0.00  0.00    +0.000 C 
ATOM      5  C   UNL     1      -6.145  12.764  20.579  0.00  0.00    +0.000 C 
ATOM      6  C   UNL     1      -5.510  12.943  19.189  0.00  0.00    +0.000 C 
ENDROOT
BRANCH   5   7
ATOM      7  C   UNL     1      -5.133  13.249  21.624  0.00  0.00    +0.000 C 
ATOM      8  O   UNL     1      -5.464  13.884  22.623  0.00  0.00    +0.000 OA
ATOM      9  N   UNL     1      -3.828  12.889  21.389  0.00  0.00    +0.000 N 
ATOM     10  H   UNL     1      -3.593  12.385  20.547  0.00  0.00    +0.000 HD
BRANCH   9  11
ATOM     11  C   UNL     1      -2.745  13.308  22.265  0.00  0.00    +0.000 C 
ATOM     12  C   UNL     1      -2.478  12.249  23.334  0.00  0.00    +0.000 C 
BRANCH  11  13
ATOM     13  C   UNL     1      -1.492  13.607  21.462  0.00  0.00    +0.000 A 
ATOM     14  C   UNL     1      -1.587  13.908  20.092  0.00  0.00    +0.000 A 
ATOM     15  C   UNL     1      -0.444  14.226  19.352  0.00  0.00    +0.000 A 
ATOM     16  C   UNL     1       0.801  14.244  19.969  0.00  0.00    +0.000 A 
ATOM     17  C   UNL     1       0.908  13.954  21.330  0.00  0.00    +0.000 A 
ATOM     18  C   UNL     1      -0.226  13.621  22.069  0.00  0.00    +0.000 A 
ATOM     19  O   UNL     1       2.095  13.977  22.018  0.00  0.00    +0.000 OA
ATOM     20  C   UNL     1       3.105  14.675  21.282  0.00  0.00    +0.000 C 
ATOM     21  C   UNL     1       3.112  14.232  19.828  0.00  0.00    +0.000 C 
ATOM     22  O   UNL     1       1.878  14.568  19.185  0.00  0.00    +0.000 OA
ENDBRANCH  11  13
ENDBRANCH   9  11
ENDBRANCH   5   7
BRANCH   1  23
ATOM     23  C   UNL     1      -5.317  12.355  16.839  0.00  0.00    +0.000 C 
BRANCH  23  29
ATOM     24  C   UNL     1      -3.854  10.104  14.615  0.00  0.00    +0.000 C 
ATOM     25  C   UNL     1      -3.532  10.610  15.962  0.00  0.00    +0.000 A 
ATOM     26  O   UNL     1      -2.391  10.101  16.507  0.00  0.00    +0.000 OA
ATOM     27  C   UNL     1      -2.287  10.682  17.735  0.00  0.00    +0.000 A 
ATOM     28  N   UNL     1      -3.275  11.503  18.018  0.00  0.00    +0.000 NA
ATOM     29  C   UNL     1      -4.074  11.492  16.882  0.00  0.00    +0.000 A 
BRANCH  27  30
ATOM     30  C   UNL     1      -1.127  10.310  18.535  0.00  0.00    +0.000 A 
ATOM     31  C   UNL     1      -1.132  10.475  19.937  0.00  0.00    +0.000 A 
ATOM     32  C   UNL     1      -0.012  10.121  20.700  0.00  0.00    +0.000 A 
ATOM     33  C   UNL     1       1.112   9.598  20.073  0.00  0.00    +0.000 A 
ATOM     34  C   UNL     1       1.127   9.424  18.692  0.00  0.00    +0.000 A 
ATOM     35 CL   UNL     1       2.520   8.778  17.923  0.00  0.00    +0.000 Cl
ATOM     36  C   UNL     1       0.012   9.778  17.919  0.00  0.00    +0.000 A 
ENDBRANCH  27  30
ENDBRANCH  23  29
ENDBRANCH   1  23
TORSDOF 6
ENDMDL
