MODEL 1
REMARK VINA RESULT:      -8.5      0.000      0.000
REMARK  Name = 
REMARK  4 active torsions:
REMARK  status: ('A' for Active; 'I' for Inactive)
REMARK    1  A    between atoms: C_1  and  O_2
REMARK    2  A    between atoms: O_2  and  C_3
REMARK    3  A    between atoms: C_8  and  O_9
REMARK    4  A    between atoms: C_11  and  C_12
REMARK                            x       y       z     vdW  Elec       q    Type
REMARK                         _______ _______ _______ _____ _____    ______ ____
ROOT
ATOM      1  C   UNL     1      -0.544  10.563  21.785  0.00  0.00    +0.000 A 
ATOM      2  C   UNL     1      -0.364  10.738  20.414  0.00  0.00    +0.000 A 
ATOM      3  C   UNL     1       0.521   9.927  19.705  0.00  0.00    +0.000 A 
ATOM      4  C   UNL     1       1.182   8.861  20.345  0.00  0.00    +0.000 A 
ATOM      5  C   UNL     1       1.073   8.780  21.738  0.00  0.00    +0.000 A 
ATOM      6  C   UNL     1       0.184   9.582  22.442  0.00  0.00    +0.000 A 
ATOM      7  C   UNL     1       1.937   7.884  19.554  0.00  0.00    +0.000 A 
ATOM      8  C   UNL     1       2.226   6.528  19.903  0.00  0.00    +0.000 A 
ATOM      9  C   UNL     1       1.629   5.863  21.124  0.00  0.00    +0.000 C 
ATOM     10  C   UNL     1       3.148   5.793  19.118  0.00  0.00    +0.000 A 
ATOM     11  C   UNL     1       3.810   4.596  19.522  0.00  0.00    +0.000 A 
ATOM     12  C   UNL     1       4.868   4.057  18.776  0.00  0.00    +0.000 A 
ATOM     13  C   UNL     1       5.198   4.681  17.596  0.00  0.00    +0.000 A 
ATOM     14  C   UNL     1       4.476   5.744  17.122  0.00  0.00    +0.000 A 
ATOM     15  C   UNL     1       3.505   6.346  17.878  0.00  0.00    +0.000 A 
ATOM     16  C   UNL     1       3.032   7.576  17.477  0.00  0.00    +0.000 A 
ATOM     17  N   UNL     1       2.370   8.359  18.343  0.00  0.00    +0.000 N 
ATOM     18  C   UNL     1       2.214   9.793  17.982  0.00  0.00    +0.000 C 
ATOM     19  C   UNL     1       0.787  10.205  18.250  0.00  0.00    +0.000 C 
ATOM     20  O   UNL     1       5.002   6.262  15.973  0.00  0.00    +0.000 OA
ATOM     21  C   UNL     1       6.313   5.681  16.058  0.00  0.00    +0.000 C 
ATOM     22  O   UNL     1       6.308   4.464  16.837  0.00  0.00    +0.000 OA
ENDROOT
BRANCH   1  24
ATOM     23  C   UNL     1      -1.097  12.620  22.845  0.00  0.00    +0.000 C 
ATOM     24  O   UNL     1      -1.489  11.374  22.314  0.00  0.00    +0.000 OA
ENDBRANCH   1  24
BRANCH   6  25
ATOM     25  O   UNL     1       0.035   9.311  23.772  0.00  0.00    +0.000 OA
ATOM     26  H   UNL     1      -0.902   9.087  23.914  0.00  0.00    +0.000 HD
ENDBRANCH   6  25
TORSDOF 2
ENDMDL
MODEL 2
REMARK VINA RESULT:      -8.2      2.439      3.953
REMARK  Name = 
REMARK  4 active torsions:
REMARK  status: ('A' for Active; 'I' for Inactive)
REMARK    1  A    between atoms: C_1  and  O_2
REMARK    2  A    between atoms: O_2  and  C_3
REMARK    3  A    between atoms: C_8  and  O_9
REMARK    4  A    between atoms: C_11  and  C_12
REMARK                            x       y       z     vdW  Elec       q    Type
REMARK                         _______ _______ _______ _____ _____    ______ ____
ROOT
ATOM      1  C   UNL     1      -1.178  12.941  19.889  0.00  0.00    +0.000 A 
ATOM      2  C   UNL     1      -0.938  12.256  21.080  0.00  0.00    +0.000 A 
ATOM      3  C   UNL     1      -0.362  10.986  21.065  0.00  0.00    +0.000 A 
ATOM      4  C   UNL     1       0.067  10.411  19.854  0.00  0.00    +0.000 A 
ATOM      5  C   UNL     1      -0.289  11.065  18.669  0.00  0.00    +0.000 A 
ATOM      6  C   UNL     1      -0.854  12.334  18.685  0.00  0.00    +0.000 A 
ATOM      7  C   UNL     1       0.864   9.179  19.867  0.00  0.00    +0.000 A 
ATOM      8  C   UNL     1       1.787   8.737  18.869  0.00  0.00    +0.000 A 
ATOM      9  C   UNL     1       2.182   9.603  17.693  0.00  0.00    +0.000 C 
ATOM     10  C   UNL     1       2.308   7.422  18.943  0.00  0.00    +0.000 A 
ATOM     11  C   UNL     1       2.928   6.716  17.870  0.00  0.00    +0.000 A 
ATOM     12  C   UNL     1       3.215   5.346  17.965  0.00  0.00    +0.000 A 
ATOM     13  C   UNL     1       2.948   4.720  19.161  0.00  0.00    +0.000 A 
ATOM     14  C   UNL     1       2.490   5.418  20.247  0.00  0.00    +0.000 A 
ATOM     15  C   UNL     1       2.111   6.731  20.149  0.00  0.00    +0.000 A 
ATOM     16  C   UNL     1       1.387   7.282  21.183  0.00  0.00    +0.000 A 
ATOM     17  N   UNL     1       0.693   8.415  20.992  0.00  0.00    +0.000 N 
ATOM     18  C   UNL     1      -0.345   8.755  22.000  0.00  0.00    +0.000 C 
ATOM     19  C   UNL     1      -0.216  10.218  22.351  0.00  0.00    +0.000 C 
ATOM     20  O   UNL     1       2.225   4.608  21.314  0.00  0.00    +0.000 OA
ATOM     21  C   UNL     1       2.166   3.352  20.619  0.00  0.00    +0.000 C 
ATOM     22  O   UNL     1       2.944   3.380  19.401  0.00  0.00    +0.000 OA
ENDROOT
BRANCH   1  24
ATOM     23  C   UNL     1      -0.770  15.271  20.136  0.00  0.00    +0.000 C 
ATOM     24  O   UNL     1      -1.669  14.187  20.073  0.00  0.00    +0.000 OA
ENDBRANCH   1  24
BRANCH   6  25
ATOM     25  O   UNL     1      -1.011  12.950  17.476  0.00  0.00    +0.000 OA
ATOM     26  H   UNL     1      -1.968  13.049  17.330  0.00  0.00    +0.000 HD
ENDBRANCH   6  25
TORSDOF 2
ENDMDL
MODEL 3
REMARK VINA RESULT:      -7.6      2.035      7.641
REMARK  Name = 
REMARK  4 active torsions:
REMARK  status: ('A' for Active; 'I' for Inactive)
REMARK    1  A    between atoms: C_1  and  O_2
REMARK    2  A    between atoms: O_2  and  C_3
REMARK    3  A    between atoms: C_8  and  O_9
REMARK    4  A    between atoms: C_11  and  C_12
REMARK                            x       y       z     vdW  Elec       q    Type
REMARK                         _______ _______ _______ _____ _____    ______ ____
ROOT
ATOM      1  C   UNL     1       3.213   6.022  19.141  0.00  0.00    +0.000 A 
ATOM      2  C   UNL     1       3.057   7.126  18.304  0.00  0.00    +0.000 A 
ATOM      3  C   UNL     1       2.176   8.153  18.639  0.00  0.00    +0.000 A 
ATOM      4  C   UNL     1       1.493   8.134  19.870  0.00  0.00    +0.000 A 
ATOM      5  C   UNL     1       1.578   6.965  20.636  0.00  0.00    +0.000 A 
ATOM      6  C   UNL     1       2.464   5.947  20.305  0.00  0.00    +0.000 A 
ATOM      7  C   UNL     1       0.740   9.313  20.311  0.00  0.00    +0.000 A 
ATOM      8  C   UNL     1       0.431   9.688  21.656  0.00  0.00    +0.000 A 
ATOM      9  C   UNL     1       1.001   8.954  22.851  0.00  0.00    +0.000 C 
ATOM     10  C   UNL     1      -0.485  10.742  21.887  0.00  0.00    +0.000 A 
ATOM     11  C   UNL     1      -1.166  10.993  23.116  0.00  0.00    +0.000 A 
ATOM     12  C   UNL     1      -2.218  11.918  23.193  0.00  0.00    +0.000 A 
ATOM     13  C   UNL     1      -2.522  12.634  22.059  0.00  0.00    +0.000 A 
ATOM     14  C   UNL     1      -1.781  12.510  20.914  0.00  0.00    +0.000 A 
ATOM     15  C   UNL     1      -0.816  11.546  20.785  0.00  0.00    +0.000 A 
ATOM     16  C   UNL     1      -0.323  11.277  19.527  0.00  0.00    +0.000 A 
ATOM     17  N   UNL     1       0.333  10.131  19.290  0.00  0.00    +0.000 N 
ATOM     18  C   UNL     1       0.509   9.729  17.869  0.00  0.00    +0.000 C 
ATOM     19  C   UNL     1       1.937   9.279  17.670  0.00  0.00    +0.000 C 
ATOM     20  O   UNL     1      -2.282  13.253  19.885  0.00  0.00    +0.000 OA
ATOM     21  C   UNL     1      -3.601  13.480  20.407  0.00  0.00    +0.000 C 
ATOM     22  O   UNL     1      -3.621  13.410  21.851  0.00  0.00    +0.000 OA
ENDROOT
BRANCH   1  24
ATOM     23  C   UNL     1       5.475   5.287  19.198  0.00  0.00    +0.000 C 
ATOM     24  O   UNL     1       4.157   5.152  18.716  0.00  0.00    +0.000 OA
ENDBRANCH   1  24
BRANCH   6  25
ATOM     25  O   UNL     1       2.588   4.927  21.205  0.00  0.00    +0.000 OA
ATOM     26  H   UNL     1       2.626   5.331  22.090  0.00  0.00    +0.000 HD
ENDBRANCH   6  25
TORSDOF 2
ENDMDL
MODEL 4
REMARK VINA RESULT:      -7.6      1.308      7.756
REMARK  Name = 
REMARK  4 active torsions:
REMARK  status: ('A' for Active; 'I' for Inactive)
REMARK    1  A    between atoms: C_1  and  O_2
REMARK    2  A    between atoms: O_2  and  C_3
REMARK    3  A    between atoms: C_8  and  O_9
REMARK    4  A    between atoms: C_11  and  C_12
REMARK                            x       y       z     vdW  Elec       q    Type
REMARK                         _______ _______ _______ _____ _____    ______ ____
ROOT
ATOM      1  C   UNL     1       5.151   4.554  16.656  0.00  0.00    +0.000 A 
ATOM      2  C   UNL     1       4.259   3.993  17.569  0.00  0.00    +0.000 A 
ATOM      3  C   UNL     1       3.489   4.805  18.400  0.00  0.00    +0.000 A 
ATOM      4  C   UNL     1       3.534   6.206  18.271  0.00  0.00    +0.000 A 
ATOM      5  C   UNL     1       4.516   6.744  17.431  0.00  0.00    +0.000 A 
ATOM      6  C   UNL     1       5.277   5.934  16.597  0.00  0.00    +0.000 A 
ATOM      7  C   UNL     1       2.567   7.042  18.991  0.00  0.00    +0.000 A 
ATOM      8  C   UNL     1       2.117   8.350  18.629  0.00  0.00    +0.000 A 
ATOM      9  C   UNL     1       2.491   8.999  17.314  0.00  0.00    +0.000 C 
ATOM     10  C   UNL     1       1.344   9.096  19.552  0.00  0.00    +0.000 A 
ATOM     11  C   UNL     1       1.133  10.506  19.506  0.00  0.00    +0.000 A 
ATOM     12  C   UNL     1       0.542  11.192  20.577  0.00  0.00    +0.000 A 
ATOM     13  C   UNL     1       0.101  10.447  21.646  0.00  0.00    +0.000 A 
ATOM     14  C   UNL     1       0.164   9.079  21.639  0.00  0.00    +0.000 A 
ATOM     15  C   UNL     1       0.824   8.396  20.652  0.00  0.00    +0.000 A 
ATOM     16  C   UNL     1       1.109   7.064  20.856  0.00  0.00    +0.000 A 
ATOM     17  N   UNL     1       2.044   6.453  20.112  0.00  0.00    +0.000 N 
ATOM     18  C   UNL     1       2.567   5.153  20.610  0.00  0.00    +0.000 C 
ATOM     19  C   UNL     1       2.618   4.180  19.457  0.00  0.00    +0.000 C 
ATOM     20  O   UNL     1      -0.261   8.531  22.815  0.00  0.00    +0.000 OA
ATOM     21  C   UNL     1      -0.174   9.703  23.641  0.00  0.00    +0.000 C 
ATOM     22  O   UNL     1      -0.297  10.915  22.862  0.00  0.00    +0.000 OA
ENDROOT
BRANCH   1  24
ATOM     23  C   UNL     1       5.859   3.883  14.486  0.00  0.00    +0.000 C 
ATOM     24  O   UNL     1       5.767   3.641  15.872  0.00  0.00    +0.000 OA
ENDBRANCH   1  24
BRANCH   6  25
ATOM     25  O   UNL     1       6.089   6.569  15.701  0.00  0.00    +0.000 OA
ATOM     26  H   UNL     1       5.537   7.212  15.221  0.00  0.00    +0.000 HD
ENDBRANCH   6  25
TORSDOF 2
ENDMDL
MODEL 5
REMARK VINA RESULT:      -7.4      2.172      3.848
REMARK  Name = 
REMARK  4 active torsions:
REMARK  status: ('A' for Active; 'I' for Inactive)
REMARK    1  A    between atoms: C_1  and  O_2
REMARK    2  A    between atoms: O_2  and  C_3
REMARK    3  A    between atoms: C_8  and  O_9
REMARK    4  A    between atoms: C_11  and  C_12
REMARK                            x       y       z     vdW  Elec       q    Type
REMARK                         _______ _______ _______ _____ _____    ______ ____
ROOT
ATOM      1  C   UNL     1      -1.780  12.838  21.271  0.00  0.00    +0.000 A 
ATOM      2  C   UNL     1      -1.381  11.963  22.280  0.00  0.00    +0.000 A 
ATOM      3  C   UNL     1      -0.685  10.794  21.972  0.00  0.00    +0.000 A 
ATOM      4  C   UNL     1      -0.297  10.522  20.647  0.00  0.00    +0.000 A 
ATOM      5  C   UNL     1      -0.808  11.354  19.643  0.00  0.00    +0.000 A 
ATOM      6  C   UNL     1      -1.493  12.522  19.951  0.00  0.00    +0.000 A 
ATOM      7  C   UNL     1       0.617   9.411  20.361  0.00  0.00    +0.000 A 
ATOM      8  C   UNL     1       1.498   9.282  19.243  0.00  0.00    +0.000 A 
ATOM      9  C   UNL     1       1.712  10.403  18.249  0.00  0.00    +0.000 C 
ATOM     10  C   UNL     1       2.151   8.046  19.016  0.00  0.00    +0.000 A 
ATOM     11  C   UNL     1       2.753   7.641  17.787  0.00  0.00    +0.000 A 
ATOM     12  C   UNL     1       3.180   6.321  17.582  0.00  0.00    +0.000 A 
ATOM     13  C   UNL     1       3.071   5.445  18.637  0.00  0.00    +0.000 A 
ATOM     14  C   UNL     1       2.633   5.857  19.867  0.00  0.00    +0.000 A 
ATOM     15  C   UNL     1       2.119   7.112  20.063  0.00  0.00    +0.000 A 
ATOM     16  C   UNL     1       1.426   7.362  21.227  0.00  0.00    +0.000 A 
ATOM     17  N   UNL     1       0.611   8.424  21.312  0.00  0.00    +0.000 N 
ATOM     18  C   UNL     1      -0.374   8.438  22.426  0.00  0.00    +0.000 C 
ATOM     19  C   UNL     1      -0.363   9.807  23.062  0.00  0.00    +0.000 C 
ATOM     20  O   UNL     1       2.533   4.827  20.758  0.00  0.00    +0.000 OA
ATOM     21  C   UNL     1       2.545   3.735  19.825  0.00  0.00    +0.000 C 
ATOM     22  O   UNL     1       3.219   4.092  18.596  0.00  0.00    +0.000 OA
ENDROOT
BRANCH   1  24
ATOM     23  C   UNL     1      -3.681  13.869  22.261  0.00  0.00    +0.000 C 
ATOM     24  O   UNL     1      -2.377  13.960  21.734  0.00  0.00    +0.000 OA
ENDBRANCH   1  24
BRANCH   6  25
ATOM     25  O   UNL     1      -1.804  13.344  18.906  0.00  0.00    +0.000 OA
ATOM     26  H   UNL     1      -1.003  13.856  18.698  0.00  0.00    +0.000 HD
ENDBRANCH   6  25
TORSDOF 2
ENDMDL
MODEL 6
REMARK VINA RESULT:      -7.2      2.517      3.799
REMARK  Name = 
REMARK  4 active torsions:
REMARK  status: ('A' for Active; 'I' for Inactive)
REMARK    1  A    between atoms: C_1  and  O_2
REMARK    2  A    between atoms: O_2  and  C_3
REMARK    3  A    between atoms: C_8  and  O_9
REMARK    4  A    between atoms: C_11  and  C_12
REMARK                            x       y       z     vdW  Elec       q    Type
REMARK                         _______ _______ _______ _____ _____    ______ ____
ROOT
ATOM      1  C   UNL     1       0.286  12.441  20.237  0.00  0.00    +0.000 A 
ATOM      2  C   UNL     1       0.376  11.627  21.365  0.00  0.00    +0.000 A 
ATOM      3  C   UNL     1       0.670  10.270  21.241  0.00  0.00    +0.000 A 
ATOM      4  C   UNL     1       0.969   9.717  19.981  0.00  0.00    +0.000 A 
ATOM      5  C   UNL     1       0.759  10.525  18.857  0.00  0.00    +0.000 A 
ATOM      6  C   UNL     1       0.475  11.878  18.983  0.00  0.00    +0.000 A 
ATOM      7  C   UNL     1       1.487   8.348  19.883  0.00  0.00    +0.000 A 
ATOM      8  C   UNL     1       2.297   7.803  18.837  0.00  0.00    +0.000 A 
ATOM      9  C   UNL     1       2.866   8.659  17.727  0.00  0.00    +0.000 C 
ATOM     10  C   UNL     1       2.529   6.407  18.799  0.00  0.00    +0.000 A 
ATOM     11  C   UNL     1       2.986   5.675  17.663  0.00  0.00    +0.000 A 
ATOM     12  C   UNL     1       2.977   4.272  17.644  0.00  0.00    +0.000 A 
ATOM     13  C   UNL     1       2.583   3.622  18.791  0.00  0.00    +0.000 A 
ATOM     14  C   UNL     1       2.283   4.310  19.936  0.00  0.00    +0.000 A 
ATOM     15  C   UNL     1       2.190   5.677  19.949  0.00  0.00    +0.000 A 
ATOM     16  C   UNL     1       1.598   6.283  21.035  0.00  0.00    +0.000 A 
ATOM     17  N   UNL     1       1.159   7.548  20.946  0.00  0.00    +0.000 N 
ATOM     18  C   UNL     1       0.215   8.017  21.995  0.00  0.00    +0.000 C 
ATOM     19  C   UNL     1       0.651   9.386  22.458  0.00  0.00    +0.000 C 
ATOM     20  O   UNL     1       1.852   3.491  20.940  0.00  0.00    +0.000 OA
ATOM     21  C   UNL     1       1.530   2.336  20.149  0.00  0.00    +0.000 C 
ATOM     22  O   UNL     1       2.296   2.298  18.924  0.00  0.00    +0.000 OA
ENDROOT
BRANCH   1  24
ATOM     23  C   UNL     1       1.099  14.487  21.138  0.00  0.00    +0.000 C 
ATOM     24  O   UNL     1       0.069  13.744  20.527  0.00  0.00    +0.000 OA
ENDBRANCH   1  24
BRANCH   6  25
ATOM     25  O   UNL     1       0.452  12.610  17.830  0.00  0.00    +0.000 OA
ATOM     26  H   UNL     1       0.520  11.979  17.091  0.00  0.00    +0.000 HD
ENDBRANCH   6  25
TORSDOF 2
ENDMDL
MODEL 7
REMARK VINA RESULT:      -6.8      2.272      7.015
REMARK  Name = 
REMARK  4 active torsions:
REMARK  status: ('A' for Active; 'I' for Inactive)
REMARK    1  A    between atoms: C_1  and  O_2
REMARK    2  A    between atoms: O_2  and  C_3
REMARK    3  A    between atoms: C_8  and  O_9
REMARK    4  A    between atoms: C_11  and  C_12
REMARK                            x       y       z     vdW  Elec       q    Type
REMARK                         _______ _______ _______ _____ _____    ______ ____
ROOT
ATOM      1  C   UNL     1       3.221   4.136  19.757  0.00  0.00    +0.000 A 
ATOM      2  C   UNL     1       3.687   5.075  18.837  0.00  0.00    +0.000 A 
ATOM      3  C   UNL     1       3.145   6.359  18.796  0.00  0.00    +0.000 A 
ATOM      4  C   UNL     1       2.179   6.756  19.740  0.00  0.00    +0.000 A 
ATOM      5  C   UNL     1       1.648   5.766  20.574  0.00  0.00    +0.000 A 
ATOM      6  C   UNL     1       2.195   4.490  20.621  0.00  0.00    +0.000 A 
ATOM      7  C   UNL     1       1.775   8.164  19.830  0.00  0.00    +0.000 A 
ATOM      8  C   UNL     1       1.245   8.840  20.974  0.00  0.00    +0.000 A 
ATOM      9  C   UNL     1       1.176   8.188  22.337  0.00  0.00    +0.000 C 
ATOM     10  C   UNL     1       0.711  10.142  20.821  0.00  0.00    +0.000 A 
ATOM     11  C   UNL     1      -0.162  10.792  21.744  0.00  0.00    +0.000 A 
ATOM     12  C   UNL     1      -0.819  11.986  21.412  0.00  0.00    +0.000 A 
ATOM     13  C   UNL     1      -0.532  12.554  20.192  0.00  0.00    +0.000 A 
ATOM     14  C   UNL     1       0.413  12.019  19.358  0.00  0.00    +0.000 A 
ATOM     15  C   UNL     1       0.993  10.805  19.616  0.00  0.00    +0.000 A 
ATOM     16  C   UNL     1       1.699  10.189  18.606  0.00  0.00    +0.000 A 
ATOM     17  N   UNL     1       1.970   8.876  18.676  0.00  0.00    +0.000 N 
ATOM     18  C   UNL     1       2.393   8.201  17.420  0.00  0.00    +0.000 C 
ATOM     19  C   UNL     1       3.581   7.320  17.724  0.00  0.00    +0.000 C 
ATOM     20  O   UNL     1       0.502  12.688  18.172  0.00  0.00    +0.000 OA
ATOM     21  C   UNL     1      -0.754  13.383  18.225  0.00  0.00    +0.000 C 
ATOM     22  O   UNL     1      -1.202  13.573  19.586  0.00  0.00    +0.000 OA
ENDROOT
BRANCH   1  24
ATOM     23  C   UNL     1       3.562   2.015  18.736  0.00  0.00    +0.000 C 
ATOM     24  O   UNL     1       3.896   2.965  19.722  0.00  0.00    +0.000 OA
ENDBRANCH   1  24
BRANCH   6  25
ATOM     25  O   UNL     1       1.711   3.650  21.583  0.00  0.00    +0.000 OA
ATOM     26  H   UNL     1       1.333   2.879  21.124  0.00  0.00    +0.000 HD
ENDBRANCH   6  25
TORSDOF 2
ENDMDL
MODEL 8
REMARK VINA RESULT:      -6.7      2.850      9.274
REMARK  Name = 
REMARK  4 active torsions:
REMARK  status: ('A' for Active; 'I' for Inactive)
REMARK    1  A    between atoms: C_1  and  O_2
REMARK    2  A    between atoms: O_2  and  C_3
REMARK    3  A    between atoms: C_8  and  O_9
REMARK    4  A    between atoms: C_11  and  C_12
REMARK                            x       y       z     vdW  Elec       q    Type
REMARK                         _______ _______ _______ _____ _____    ______ ____
ROOT
ATOM      1  C   UNL     1       1.783   8.401  19.203  0.00  0.00    +0.000 A 
ATOM      2  C   UNL     1       1.222   8.113  20.447  0.00  0.00    +0.000 A 
ATOM      3  C   UNL     1       0.418   9.049  21.096  0.00  0.00    +0.000 A 
ATOM      4  C   UNL     1       0.087  10.264  20.468  0.00  0.00    +0.000 A 
ATOM      5  C   UNL     1       0.752  10.576  19.277  0.00  0.00    +0.000 A 
ATOM      6  C   UNL     1       1.546   9.640  18.626  0.00  0.00    +0.000 A 
ATOM      7  C   UNL     1      -0.929  11.144  21.058  0.00  0.00    +0.000 A 
ATOM      8  C   UNL     1      -1.746  12.099  20.376  0.00  0.00    +0.000 A 
ATOM      9  C   UNL     1      -1.766  12.215  18.868  0.00  0.00    +0.000 C 
ATOM     10  C   UNL     1      -2.521  13.011  21.133  0.00  0.00    +0.000 A 
ATOM     11  C   UNL     1      -3.085  14.225  20.641  0.00  0.00    +0.000 A 
ATOM     12  C   UNL     1      -3.647  15.175  21.507  0.00  0.00    +0.000 A 
ATOM     13  C   UNL     1      -3.707  14.860  22.845  0.00  0.00    +0.000 A 
ATOM     14  C   UNL     1      -3.304  13.638  23.311  0.00  0.00    +0.000 A 
ATOM     15  C   UNL     1      -2.663  12.736  22.502  0.00  0.00    +0.000 A 
ATOM     16  C   UNL     1      -2.022  11.668  23.091  0.00  0.00    +0.000 A 
ATOM     17  N   UNL     1      -1.097  10.977  22.407  0.00  0.00    +0.000 N 
ATOM     18  C   UNL     1      -0.190  10.097  23.190  0.00  0.00    +0.000 C 
ATOM     19  C   UNL     1      -0.084   8.765  22.486  0.00  0.00    +0.000 C 
ATOM     20  O   UNL     1      -3.380  13.547  24.671  0.00  0.00    +0.000 OA
ATOM     21  C   UNL     1      -3.458  14.949  24.975  0.00  0.00    +0.000 C 
ATOM     22  O   UNL     1      -4.006  15.704  23.871  0.00  0.00    +0.000 OA
ENDROOT
BRANCH   1  24
ATOM     23  C   UNL     1       2.643   6.195  19.435  0.00  0.00    +0.000 C 
ATOM     24  O   UNL     1       2.474   7.367  18.670  0.00  0.00    +0.000 OA
ENDBRANCH   1  24
BRANCH   6  25
ATOM     25  O   UNL     1       2.016   9.986  17.391  0.00  0.00    +0.000 OA
ATOM     26  H   UNL     1       2.969  10.162  17.488  0.00  0.00    +0.000 HD
ENDBRANCH   6  25
TORSDOF 2
ENDMDL
MODEL 9
REMARK VINA RESULT:      -6.7      5.853      9.898
REMARK  Name = 
REMARK  4 active torsions:
REMARK  status: ('A' for Active; 'I' for Inactive)
REMARK    1  A    between atoms: C_1  and  O_2
REMARK    2  A    between atoms: O_2  and  C_3
REMARK    3  A    between atoms: C_8  and  O_9
REMARK    4  A    between atoms: C_11  and  C_12
REMARK                            x       y       z     vdW  Elec       q    Type
REMARK                         _______ _______ _______ _____ _____    ______ ____
ROOT
ATOM      1  C   UNL     1      -3.047  10.304  16.628  0.00  0.00    +0.000 A 
ATOM      2  C   UNL     1      -1.898  10.198  17.411  0.00  0.00    +0.000 A 
ATOM      3  C   UNL     1      -1.768  10.941  18.584  0.00  0.00    +0.000 A 
ATOM      4  C   UNL     1      -2.829  11.743  19.043  0.00  0.00    +0.000 A 
ATOM      5  C   UNL     1      -3.920  11.922  18.184  0.00  0.00    +0.000 A 
ATOM      6  C   UNL     1      -4.053  11.174  17.020  0.00  0.00    +0.000 A 
ATOM      7  C   UNL     1      -2.771  12.347  20.379  0.00  0.00    +0.000 A 
ATOM      8  C   UNL     1      -3.875  12.734  21.202  0.00  0.00    +0.000 A 
ATOM      9  C   UNL     1      -5.307  12.413  20.835  0.00  0.00    +0.000 C 
ATOM     10  C   UNL     1      -3.632  13.495  22.371  0.00  0.00    +0.000 A 
ATOM     11  C   UNL     1      -4.609  14.254  23.082  0.00  0.00    +0.000 A 
ATOM     12  C   UNL     1      -4.242  15.152  24.094  0.00  0.00    +0.000 A 
ATOM     13  C   UNL     1      -2.911  15.221  24.434  0.00  0.00    +0.000 A 
ATOM     14  C   UNL     1      -1.983  14.392  23.862  0.00  0.00    +0.000 A 
ATOM     15  C   UNL     1      -2.300  13.580  22.806  0.00  0.00    +0.000 A 
ATOM     16  C   UNL     1      -1.273  13.005  22.089  0.00  0.00    +0.000 A 
ATOM     17  N   UNL     1      -1.499  12.513  20.862  0.00  0.00    +0.000 N 
ATOM     18  C   UNL     1      -0.313  12.253  20.004  0.00  0.00    +0.000 C 
ATOM     19  C   UNL     1      -0.476  10.900  19.355  0.00  0.00    +0.000 C 
ATOM     20  O   UNL     1      -0.713  14.661  24.284  0.00  0.00    +0.000 OA
ATOM     21  C   UNL     1      -0.938  15.976  24.816  0.00  0.00    +0.000 C 
ATOM     22  O   UNL     1      -2.314  16.159  25.220  0.00  0.00    +0.000 OA
ENDROOT
BRANCH   1  24
ATOM     23  C   UNL     1      -3.037  10.014  14.267  0.00  0.00    +0.000 C 
ATOM     24  O   UNL     1      -3.055   9.467  15.566  0.00  0.00    +0.000 OA
ENDBRANCH   1  24
BRANCH   6  25
ATOM     25  O   UNL     1      -5.230  11.305  16.339  0.00  0.00    +0.000 OA
ATOM     26  H   UNL     1      -5.073  10.979  15.435  0.00  0.00    +0.000 HD
ENDBRANCH   6  25
TORSDOF 2
ENDMDL
