MODEL 1
REMARK VINA RESULT:      -9.6      0.000      0.000
REMARK  Name = 
REMARK  7 active torsions:
REMARK  status: ('A' for Active; 'I' for Inactive)
REMARK    1  A    between atoms: C_1  and  C_2
REMARK    2  A    between atoms: C_5  and  C_6
REMARK    3  A    between atoms: C_10  and  C_11
REMARK    4  A    between atoms: C_11  and  N_12
REMARK    5  A    between atoms: C_13  and  C_15
REMARK    6  A    between atoms: C_15  and  C_16
REMARK    7  A    between atoms: C_16  and  C_17
REMARK                            x       y       z     vdW  Elec       q    Type
REMARK                         _______ _______ _______ _____ _____    ______ ____
ROOT
ATOM      1  N   UNL     1       7.240   7.106  16.702  0.00  0.00    +0.000 N 
ATOM      2  C   UNL     1       7.844   7.690  17.790  0.00  0.00    +0.000 C 
ATOM      3  O   UNL     1       8.226   7.074  18.780  0.00  0.00    +0.000 OA
ATOM      4  H   UNL     1       7.136   7.641  15.853  0.00  0.00    +0.000 HD
ENDROOT
BRANCH   1   5
ATOM      5  C   UNL     1       6.926   5.700  16.660  0.00  0.00    +0.000 C 
BRANCH   5  10
ATOM      6  C   UNL     1       3.367   6.243  17.977  0.00  0.00    +0.000 A 
ATOM      7  C   UNL     1       2.842   4.949  17.780  0.00  0.00    +0.000 A 
ATOM      8  C   UNL     1       3.609   3.920  17.234  0.00  0.00    +0.000 A 
ATOM      9  C   UNL     1       4.936   4.159  16.875  0.00  0.00    +0.000 A 
ATOM     10  C   UNL     1       5.494   5.433  17.056  0.00  0.00    +0.000 A 
ATOM     11  C   UNL     1       4.709   6.457  17.606  0.00  0.00    +0.000 A 
BRANCH   6  16
ATOM     12  C   UNL     1       0.178  10.601  20.168  0.00  0.00    +0.000 C 
ATOM     13  C   UNL     1       0.995   9.470  19.615  0.00  0.00    +0.000 A 
ATOM     14  C   UNL     1       1.384   8.398  20.416  0.00  0.00    +0.000 A 
ATOM     15  C   UNL     1       2.140   7.350  19.879  0.00  0.00    +0.000 A 
ATOM     16  C   UNL     1       2.541   7.340  18.530  0.00  0.00    +0.000 A 
ATOM     17  C   UNL     1       2.137   8.427  17.738  0.00  0.00    +0.000 A 
ATOM     18  C   UNL     1       1.368   9.471  18.268  0.00  0.00    +0.000 A 
ENDBRANCH   6  16
ENDBRANCH   5  10
ENDBRANCH   1   5
BRANCH   2  19
ATOM     19  C   UNL     1       7.952   9.191  17.684  0.00  0.00    +0.000 C 
BRANCH  19  20
ATOM     20  C   UNL     1       8.950   9.725  18.729  0.00  0.00    +0.000 C 
BRANCH  20  21
ATOM     21  C   UNL     1       9.538  11.038  18.277  0.00  0.00    +0.000 A 
ATOM     22  C   UNL     1      10.907  11.337  18.486  0.00  0.00    +0.000 A 
ATOM     23  C   UNL     1      11.354  12.661  18.474  0.00  0.00    +0.000 A 
ATOM     24  C   UNL     1      10.395  13.629  18.287  0.00  0.00    +0.000 A 
ATOM     25  C   UNL     1       9.105  13.324  17.907  0.00  0.00    +0.000 A 
ATOM     26  C   UNL     1       8.653  12.034  17.845  0.00  0.00    +0.000 A 
ATOM     27  O   UNL     1       8.294  14.422  17.907  0.00  0.00    +0.000 OA
ATOM     28  C   UNL     1       9.076  15.218  18.813  0.00  0.00    +0.000 C 
ATOM     29  O   UNL     1      10.490  14.942  18.666  0.00  0.00    +0.000 OA
ENDBRANCH  20  21
ENDBRANCH  19  20
ENDBRANCH   2  19
TORSDOF 6
ENDMDL
MODEL 2
REMARK VINA RESULT:      -9.6      0.919      1.442
REMARK  Name = 
REMARK  7 active torsions:
REMARK  status: ('A' for Active; 'I' for Inactive)
REMARK    1  A    between atoms: C_1  and  C_2
REMARK    2  A    between atoms: C_5  and  C_6
REMARK    3  A    between atoms: C_10  and  C_11
REMARK    4  A    between atoms: C_11  and  N_12
REMARK    5  A    between atoms: C_13  and  C_15
REMARK    6  A    between atoms: C_15  and  C_16
REMARK    7  A    between atoms: C_16  and  C_17
REMARK                            x       y       z     vdW  Elec       q    Type
REMARK                         _______ _______ _______ _____ _____    ______ ____
ROOT
ATOM      1  N   UNL     1       7.251   6.644  16.626  0.00  0.00    +0.000 N 
ATOM      2  C   UNL     1       7.785   7.161  17.782  0.00  0.00    +0.000 C 
ATOM      3  O   UNL     1       8.022   6.501  18.789  0.00  0.00    +0.000 OA
ATOM      4  H   UNL     1       7.271   7.201  15.785  0.00  0.00    +0.000 HD
ENDROOT
BRANCH   1   5
ATOM      5  C   UNL     1       6.843   5.266  16.517  0.00  0.00    +0.000 C 
BRANCH   5  10
ATOM      6  C   UNL     1       3.343   5.988  17.905  0.00  0.00    +0.000 A 
ATOM      7  C   UNL     1       2.749   4.723  17.720  0.00  0.00    +0.000 A 
ATOM      8  C   UNL     1       3.452   3.657  17.158  0.00  0.00    +0.000 A 
ATOM      9  C   UNL     1       4.781   3.828  16.773  0.00  0.00    +0.000 A 
ATOM     10  C   UNL     1       5.408   5.072  16.943  0.00  0.00    +0.000 A 
ATOM     11  C   UNL     1       4.686   6.134  17.508  0.00  0.00    +0.000 A 
BRANCH   6  16
ATOM     12  C   UNL     1       0.424  10.501  20.157  0.00  0.00    +0.000 C 
ATOM     13  C   UNL     1       1.171   9.330  19.589  0.00  0.00    +0.000 A 
ATOM     14  C   UNL     1       1.538   8.248  20.387  0.00  0.00    +0.000 A 
ATOM     15  C   UNL     1       2.229   7.164  19.836  0.00  0.00    +0.000 A 
ATOM     16  C   UNL     1       2.585   7.125  18.475  0.00  0.00    +0.000 A 
ATOM     17  C   UNL     1       2.203   8.223  17.686  0.00  0.00    +0.000 A 
ATOM     18  C   UNL     1       1.500   9.304  18.231  0.00  0.00    +0.000 A 
ENDBRANCH   6  16
ENDBRANCH   5  10
ENDBRANCH   1   5
BRANCH   2  19
ATOM     19  C   UNL     1       8.010   8.652  17.725  0.00  0.00    +0.000 C 
BRANCH  19  20
ATOM     20  C   UNL     1       8.941   9.091  18.873  0.00  0.00    +0.000 C 
BRANCH  20  21
ATOM     21  C   UNL     1       9.084  10.592  18.893  0.00  0.00    +0.000 A 
ATOM     22  C   UNL     1       8.596  11.388  17.827  0.00  0.00    +0.000 A 
ATOM     23  C   UNL     1       9.088  12.680  17.624  0.00  0.00    +0.000 A 
ATOM     24  C   UNL     1      10.075  13.102  18.484  0.00  0.00    +0.000 A 
ATOM     25  C   UNL     1      10.412  12.397  19.620  0.00  0.00    +0.000 A 
ATOM     26  C   UNL     1       9.900  11.156  19.882  0.00  0.00    +0.000 A 
ATOM     27  O   UNL     1      11.500  12.927  20.252  0.00  0.00    +0.000 OA
ATOM     28  C   UNL     1      12.043  13.620  19.115  0.00  0.00    +0.000 C 
ATOM     29  O   UNL     1      10.992  14.088  18.237  0.00  0.00    +0.000 OA
ENDBRANCH  20  21
ENDBRANCH  19  20
ENDBRANCH   2  19
TORSDOF 6
ENDMDL
MODEL 3
REMARK VINA RESULT:      -9.4      1.189      1.342
REMARK  Name = 
REMARK  7 active torsions:
REMARK  status: ('A' for Active; 'I' for Inactive)
REMARK    1  A    between atoms: C_1  and  C_2
REMARK    2  A    between atoms: C_5  and  C_6
REMARK    3  A    between atoms: C_10  and  C_11
REMARK    4  A    between atoms: C_11  and  N_12
REMARK    5  A    between atoms: C_13  and  C_15
REMARK    6  A    between atoms: C_15  and  C_16
REMARK    7  A    between atoms: C_16  and  C_17
REMARK                            x       y       z     vdW  Elec       q    Type
REMARK                         _______ _______ _______ _____ _____    ______ ____
ROOT
ATOM      1  N   UNL     1       7.122   5.892  18.451  0.00  0.00    +0.000 N 
ATOM      2  C   UNL     1       7.670   6.881  17.669  0.00  0.00    +0.000 C 
ATOM      3  O   UNL     1       7.655   6.878  16.442  0.00  0.00    +0.000 OA
ATOM      4  H   UNL     1       6.999   6.060  19.438  0.00  0.00    +0.000 HD
ENDROOT
BRANCH   1   5
ATOM      5  C   UNL     1       6.535   4.702  17.887  0.00  0.00    +0.000 C 
BRANCH   5  10
ATOM      6  C   UNL     1       2.964   6.034  18.297  0.00  0.00    +0.000 A 
ATOM      7  C   UNL     1       2.239   4.906  17.860  0.00  0.00    +0.000 A 
ATOM      8  C   UNL     1       2.879   3.741  17.438  0.00  0.00    +0.000 A 
ATOM      9  C   UNL     1       4.271   3.669  17.451  0.00  0.00    +0.000 A 
ATOM     10  C   UNL     1       5.027   4.770  17.881  0.00  0.00    +0.000 A 
ATOM     11  C   UNL     1       4.369   5.936  18.301  0.00  0.00    +0.000 A 
BRANCH   6  16
ATOM     12  C   UNL     1       0.349  10.971  19.955  0.00  0.00    +0.000 C 
ATOM     13  C   UNL     1       1.017   9.693  19.540  0.00  0.00    +0.000 A 
ATOM     14  C   UNL     1       1.272   8.677  20.460  0.00  0.00    +0.000 A 
ATOM     15  C   UNL     1       1.891   7.490  20.051  0.00  0.00    +0.000 A 
ATOM     16  C   UNL     1       2.283   7.280  18.716  0.00  0.00    +0.000 A 
ATOM     17  C   UNL     1       2.014   8.314  17.804  0.00  0.00    +0.000 A 
ATOM     18  C   UNL     1       1.384   9.497  18.206  0.00  0.00    +0.000 A 
ENDBRANCH   6  16
ENDBRANCH   5  10
ENDBRANCH   1   5
BRANCH   2  19
ATOM     19  C   UNL     1       8.354   7.965  18.464  0.00  0.00    +0.000 C 
BRANCH  19  20
ATOM     20  C   UNL     1       8.101   9.339  17.812  0.00  0.00    +0.000 C 
BRANCH  20  21
ATOM     21  C   UNL     1       8.949  10.400  18.467  0.00  0.00    +0.000 A 
ATOM     22  C   UNL     1       9.397  10.255  19.803  0.00  0.00    +0.000 A 
ATOM     23  C   UNL     1       9.793  11.373  20.543  0.00  0.00    +0.000 A 
ATOM     24  C   UNL     1       9.687  12.592  19.915  0.00  0.00    +0.000 A 
ATOM     25  C   UNL     1       9.425  12.705  18.566  0.00  0.00    +0.000 A 
ATOM     26  C   UNL     1       9.096  11.621  17.799  0.00  0.00    +0.000 A 
ATOM     27  O   UNL     1       9.234  14.002  18.185  0.00  0.00    +0.000 OA
ATOM     28  C   UNL     1       8.882  14.515  19.480  0.00  0.00    +0.000 C 
ATOM     29  O   UNL     1       9.582  13.810  20.532  0.00  0.00    +0.000 OA
ENDBRANCH  20  21
ENDBRANCH  19  20
ENDBRANCH   2  19
TORSDOF 6
ENDMDL
MODEL 4
REMARK VINA RESULT:      -9.1      1.142      1.721
REMARK  Name = 
REMARK  7 active torsions:
REMARK  status: ('A' for Active; 'I' for Inactive)
REMARK    1  A    between atoms: C_1  and  C_2
REMARK    2  A    between atoms: C_5  and  C_6
REMARK    3  A    between atoms: C_10  and  C_11
REMARK    4  A    between atoms: C_11  and  N_12
REMARK    5  A    between atoms: C_13  and  C_15
REMARK    6  A    between atoms: C_15  and  C_16
REMARK    7  A    between atoms: C_16  and  C_17
REMARK                            x       y       z     vdW  Elec       q    Type
REMARK                         _______ _______ _______ _____ _____    ______ ____
ROOT
ATOM      1  N   UNL     1       6.718   7.341  16.852  0.00  0.00    +0.000 N 
ATOM      2  C   UNL     1       7.598   6.779  17.745  0.00  0.00    +0.000 C 
ATOM      3  O   UNL     1       7.707   5.572  17.940  0.00  0.00    +0.000 OA
ATOM      4  H   UNL     1       6.825   8.314  16.605  0.00  0.00    +0.000 HD
ENDROOT
BRANCH   1   5
ATOM      5  C   UNL     1       5.771   6.552  16.104  0.00  0.00    +0.000 C 
BRANCH   5  10
ATOM      6  C   UNL     1       2.715   6.894  18.392  0.00  0.00    +0.000 A 
ATOM      7  C   UNL     1       2.315   5.543  18.457  0.00  0.00    +0.000 A 
ATOM      8  C   UNL     1       3.008   4.539  17.779  0.00  0.00    +0.000 A 
ATOM      9  C   UNL     1       4.132   4.862  17.021  0.00  0.00    +0.000 A 
ATOM     10  C   UNL     1       4.561   6.195  16.933  0.00  0.00    +0.000 A 
ATOM     11  C   UNL     1       3.853   7.193  17.619  0.00  0.00    +0.000 A 
BRANCH   6  16
ATOM     12  C   UNL     1      -0.322  11.052  21.121  0.00  0.00    +0.000 C 
ATOM     13  C   UNL     1       0.464   9.991  20.408  0.00  0.00    +0.000 A 
ATOM     14  C   UNL     1       0.804  10.123  19.062  0.00  0.00    +0.000 A 
ATOM     15  C   UNL     1       1.543   9.125  18.418  0.00  0.00    +0.000 A 
ATOM     16  C   UNL     1       1.960   7.960  19.088  0.00  0.00    +0.000 A 
ATOM     17  C   UNL     1       1.610   7.847  20.444  0.00  0.00    +0.000 A 
ATOM     18  C   UNL     1       0.882   8.850  21.096  0.00  0.00    +0.000 A 
ENDBRANCH   6  16
ENDBRANCH   5  10
ENDBRANCH   1   5
BRANCH   2  19
ATOM     19  C   UNL     1       8.399   7.796  18.521  0.00  0.00    +0.000 C 
BRANCH  19  20
ATOM     20  C   UNL     1       8.174   9.204  17.936  0.00  0.00    +0.000 C 
BRANCH  20  21
ATOM     21  C   UNL     1       9.128  10.193  18.557  0.00  0.00    +0.000 A 
ATOM     22  C   UNL     1       9.202  10.354  19.963  0.00  0.00    +0.000 A 
ATOM     23  C   UNL     1       9.734  11.522  20.517  0.00  0.00    +0.000 A 
ATOM     24  C   UNL     1      10.136  12.492  19.629  0.00  0.00    +0.000 A 
ATOM     25  C   UNL     1      10.229  12.257  18.273  0.00  0.00    +0.000 A 
ATOM     26  C   UNL     1       9.776  11.097  17.706  0.00  0.00    +0.000 A 
ATOM     27  O   UNL     1      10.521  13.391  17.572  0.00  0.00    +0.000 OA
ATOM     28  C   UNL     1      10.054  14.330  18.555  0.00  0.00    +0.000 C 
ATOM     29  O   UNL     1      10.260  13.829  19.897  0.00  0.00    +0.000 OA
ENDBRANCH  20  21
ENDBRANCH  19  20
ENDBRANCH   2  19
TORSDOF 6
ENDMDL
MODEL 5
REMARK VINA RESULT:      -9.1      1.077      1.214
REMARK  Name = 
REMARK  7 active torsions:
REMARK  status: ('A' for Active; 'I' for Inactive)
REMARK    1  A    between atoms: C_1  and  C_2
REMARK    2  A    between atoms: C_5  and  C_6
REMARK    3  A    between atoms: C_10  and  C_11
REMARK    4  A    between atoms: C_11  and  N_12
REMARK    5  A    between atoms: C_13  and  C_15
REMARK    6  A    between atoms: C_15  and  C_16
REMARK    7  A    between atoms: C_16  and  C_17
REMARK                            x       y       z     vdW  Elec       q    Type
REMARK                         _______ _______ _______ _____ _____    ______ ____
ROOT
ATOM      1  N   UNL     1       6.962   7.328  16.738  0.00  0.00    +0.000 N 
ATOM      2  C   UNL     1       7.739   7.614  17.835  0.00  0.00    +0.000 C 
ATOM      3  O   UNL     1       8.180   6.768  18.607  0.00  0.00    +0.000 OA
ATOM      4  H   UNL     1       6.807   8.047  16.047  0.00  0.00    +0.000 HD
ENDROOT
BRANCH   1   5
ATOM      5  C   UNL     1       6.524   5.989  16.433  0.00  0.00    +0.000 C 
BRANCH   5  10
ATOM      6  C   UNL     1       3.095   6.522  18.062  0.00  0.00    +0.000 A 
ATOM      7  C   UNL     1       2.594   5.206  17.993  0.00  0.00    +0.000 A 
ATOM      8  C   UNL     1       3.335   4.166  17.434  0.00  0.00    +0.000 A 
ATOM      9  C   UNL     1       4.613   4.415  16.932  0.00  0.00    +0.000 A 
ATOM     10  C   UNL     1       5.147   5.711  16.984  0.00  0.00    +0.000 A 
ATOM     11  C   UNL     1       4.387   6.747  17.549  0.00  0.00    +0.000 A 
BRANCH   6  16
ATOM     12  C   UNL     1       0.003  10.921  20.307  0.00  0.00    +0.000 C 
ATOM     13  C   UNL     1       0.795   9.780  19.740  0.00  0.00    +0.000 A 
ATOM     14  C   UNL     1       1.204   8.715  20.540  0.00  0.00    +0.000 A 
ATOM     15  C   UNL     1       1.937   7.657  19.990  0.00  0.00    +0.000 A 
ATOM     16  C   UNL     1       2.293   7.630  18.630  0.00  0.00    +0.000 A 
ATOM     17  C   UNL     1       1.869   8.710  17.839  0.00  0.00    +0.000 A 
ATOM     18  C   UNL     1       1.124   9.764  18.382  0.00  0.00    +0.000 A 
ENDBRANCH   6  16
ENDBRANCH   5  10
ENDBRANCH   1   5
BRANCH   2  19
ATOM     19  C   UNL     1       7.963   9.091  18.044  0.00  0.00    +0.000 C 
BRANCH  19  20
ATOM     20  C   UNL     1       9.264   9.322  18.838  0.00  0.00    +0.000 C 
BRANCH  20  21
ATOM     21  C   UNL     1       9.387  10.769  19.244  0.00  0.00    +0.000 A 
ATOM     22  C   UNL     1       9.351  11.152  20.607  0.00  0.00    +0.000 A 
ATOM     23  C   UNL     1       9.033  12.464  20.967  0.00  0.00    +0.000 A 
ATOM     24  C   UNL     1       8.731  13.325  19.938  0.00  0.00    +0.000 A 
ATOM     25  C   UNL     1       8.943  12.996  18.616  0.00  0.00    +0.000 A 
ATOM     26  C   UNL     1       9.317  11.737  18.234  0.00  0.00    +0.000 A 
ATOM     27  O   UNL     1       8.453  13.943  17.764  0.00  0.00    +0.000 OA
ATOM     28  C   UNL     1       7.505  14.525  18.675  0.00  0.00    +0.000 C 
ATOM     29  O   UNL     1       7.988  14.471  20.038  0.00  0.00    +0.000 OA
ENDBRANCH  20  21
ENDBRANCH  19  20
ENDBRANCH   2  19
TORSDOF 6
ENDMDL
MODEL 6
REMARK VINA RESULT:      -8.9      1.075      1.442
REMARK  Name = 
REMARK  7 active torsions:
REMARK  status: ('A' for Active; 'I' for Inactive)
REMARK    1  A    between atoms: C_1  and  C_2
REMARK    2  A    between atoms: C_5  and  C_6
REMARK    3  A    between atoms: C_10  and  C_11
REMARK    4  A    between atoms: C_11  and  N_12
REMARK    5  A    between atoms: C_13  and  C_15
REMARK    6  A    between atoms: C_15  and  C_16
REMARK    7  A    between atoms: C_16  and  C_17
REMARK                            x       y       z     vdW  Elec       q    Type
REMARK                         _______ _______ _______ _____ _____    ______ ____
ROOT
ATOM      1  N   UNL     1       7.091   7.465  16.814  0.00  0.00    +0.000 N 
ATOM      2  C   UNL     1       7.886   7.743  17.901  0.00  0.00    +0.000 C 
ATOM      3  O   UNL     1       8.220   6.913  18.741  0.00  0.00    +0.000 OA
ATOM      4  H   UNL     1       7.026   8.143  16.070  0.00  0.00    +0.000 HD
ENDROOT
BRANCH   1   5
ATOM      5  C   UNL     1       6.506   6.165  16.601  0.00  0.00    +0.000 C 
BRANCH   5  10
ATOM      6  C   UNL     1       3.316   6.713  18.656  0.00  0.00    +0.000 A 
ATOM      7  C   UNL     1       3.203   5.444  19.260  0.00  0.00    +0.000 A 
ATOM      8  C   UNL     1       4.127   4.429  19.014  0.00  0.00    +0.000 A 
ATOM      9  C   UNL     1       5.203   4.661  18.157  0.00  0.00    +0.000 A 
ATOM     10  C   UNL     1       5.350   5.911  17.538  0.00  0.00    +0.000 A 
ATOM     11  C   UNL     1       4.411   6.922  17.795  0.00  0.00    +0.000 A 
BRANCH   6  16
ATOM     12  C   UNL     1      -0.674  10.855  19.595  0.00  0.00    +0.000 C 
ATOM     13  C   UNL     1       0.358   9.796  19.341  0.00  0.00    +0.000 A 
ATOM     14  C   UNL     1       0.905   9.607  18.073  0.00  0.00    +0.000 A 
ATOM     15  C   UNL     1       1.871   8.617  17.858  0.00  0.00    +0.000 A 
ATOM     16  C   UNL     1       2.317   7.779  18.897  0.00  0.00    +0.000 A 
ATOM     17  C   UNL     1       1.756   7.986  20.168  0.00  0.00    +0.000 A 
ATOM     18  C   UNL     1       0.799   8.984  20.389  0.00  0.00    +0.000 A 
ENDBRANCH   6  16
ENDBRANCH   5  10
ENDBRANCH   1   5
BRANCH   2  19
ATOM     19  C   UNL     1       8.276   9.196  18.005  0.00  0.00    +0.000 C 
BRANCH  19  20
ATOM     20  C   UNL     1       8.955   9.466  19.361  0.00  0.00    +0.000 C 
BRANCH  20  21
ATOM     21  C   UNL     1       9.787  10.723  19.296  0.00  0.00    +0.000 A 
ATOM     22  C   UNL     1      10.254  11.353  20.476  0.00  0.00    +0.000 A 
ATOM     23  C   UNL     1      10.633  12.698  20.460  0.00  0.00    +0.000 A 
ATOM     24  C   UNL     1      10.492  13.359  19.262  0.00  0.00    +0.000 A 
ATOM     25  C   UNL     1      10.211  12.698  18.084  0.00  0.00    +0.000 A 
ATOM     26  C   UNL     1       9.898  11.367  18.058  0.00  0.00    +0.000 A 
ATOM     27  O   UNL     1       9.987  13.561  17.050  0.00  0.00    +0.000 OA
ATOM     28  C   UNL     1       9.638  14.704  17.848  0.00  0.00    +0.000 C 
ATOM     29  O   UNL     1      10.366  14.713  19.099  0.00  0.00    +0.000 OA
ENDBRANCH  20  21
ENDBRANCH  19  20
ENDBRANCH   2  19
TORSDOF 6
ENDMDL
MODEL 7
REMARK VINA RESULT:      -8.9      5.352      7.633
REMARK  Name = 
REMARK  7 active torsions:
REMARK  status: ('A' for Active; 'I' for Inactive)
REMARK    1  A    between atoms: C_1  and  C_2
REMARK    2  A    between atoms: C_5  and  C_6
REMARK    3  A    between atoms: C_10  and  C_11
REMARK    4  A    between atoms: C_11  and  N_12
REMARK    5  A    between atoms: C_13  and  C_15
REMARK    6  A    between atoms: C_15  and  C_16
REMARK    7  A    between atoms: C_16  and  C_17
REMARK                            x       y       z     vdW  Elec       q    Type
REMARK                         _______ _______ _______ _____ _____    ______ ____
ROOT
ATOM      1  N   UNL     1       1.600   4.196  20.090  0.00  0.00    +0.000 N 
ATOM      2  C   UNL     1       1.948   2.893  20.359  0.00  0.00    +0.000 C 
ATOM      3  O   UNL     1       2.392   2.505  21.435  0.00  0.00    +0.000 OA
ATOM      4  H   UNL     1       1.063   4.398  19.260  0.00  0.00    +0.000 HD
ENDROOT
BRANCH   1   5
ATOM      5  C   UNL     1       1.802   5.258  21.044  0.00  0.00    +0.000 C 
BRANCH   5  10
ATOM      6  C   UNL     1       1.037   8.971  20.476  0.00  0.00    +0.000 A 
ATOM      7  C   UNL     1       1.606   9.136  19.196  0.00  0.00    +0.000 A 
ATOM      8  C   UNL     1       2.226   8.082  18.526  0.00  0.00    +0.000 A 
ATOM      9  C   UNL     1       2.286   6.821  19.119  0.00  0.00    +0.000 A 
ATOM     10  C   UNL     1       1.730   6.617  20.391  0.00  0.00    +0.000 A 
ATOM     11  C   UNL     1       1.111   7.689  21.053  0.00  0.00    +0.000 A 
BRANCH   6  16
ATOM     12  C   UNL     1      -1.512  13.405  23.268  0.00  0.00    +0.000 C 
ATOM     13  C   UNL     1      -0.845  12.273  22.544  0.00  0.00    +0.000 A 
ATOM     14  C   UNL     1      -0.032  12.501  21.435  0.00  0.00    +0.000 A 
ATOM     15  C   UNL     1       0.585  11.431  20.776  0.00  0.00    +0.000 A 
ATOM     16  C   UNL     1       0.406  10.100  21.196  0.00  0.00    +0.000 A 
ATOM     17  C   UNL     1      -0.414   9.891  22.317  0.00  0.00    +0.000 A 
ATOM     18  C   UNL     1      -1.022  10.959  22.986  0.00  0.00    +0.000 A 
ENDBRANCH   6  16
ENDBRANCH   5  10
ENDBRANCH   1   5
BRANCH   2  19
ATOM     19  C   UNL     1       1.784   1.971  19.176  0.00  0.00    +0.000 C 
BRANCH  19  20
ATOM     20  C   UNL     1       3.145   1.747  18.487  0.00  0.00    +0.000 C 
BRANCH  20  21
ATOM     21  C   UNL     1       3.810   3.067  18.187  0.00  0.00    +0.000 A 
ATOM     22  C   UNL     1       3.541   3.764  16.983  0.00  0.00    +0.000 A 
ATOM     23  C   UNL     1       4.437   4.724  16.504  0.00  0.00    +0.000 A 
ATOM     24  C   UNL     1       5.582   4.915  17.242  0.00  0.00    +0.000 A 
ATOM     25  C   UNL     1       5.748   4.370  18.497  0.00  0.00    +0.000 A 
ATOM     26  C   UNL     1       4.857   3.475  19.023  0.00  0.00    +0.000 A 
ATOM     27  O   UNL     1       7.005   4.579  18.988  0.00  0.00    +0.000 OA
ATOM     28  C   UNL     1       7.653   4.794  17.723  0.00  0.00    +0.000 C 
ATOM     29  O   UNL     1       6.761   5.433  16.779  0.00  0.00    +0.000 OA
ENDBRANCH  20  21
ENDBRANCH  19  20
ENDBRANCH   2  19
TORSDOF 6
ENDMDL
MODEL 8
REMARK VINA RESULT:      -8.8      5.565      8.676
REMARK  Name = 
REMARK  7 active torsions:
REMARK  status: ('A' for Active; 'I' for Inactive)
REMARK    1  A    between atoms: C_1  and  C_2
REMARK    2  A    between atoms: C_5  and  C_6
REMARK    3  A    between atoms: C_10  and  C_11
REMARK    4  A    between atoms: C_11  and  N_12
REMARK    5  A    between atoms: C_13  and  C_15
REMARK    6  A    between atoms: C_15  and  C_16
REMARK    7  A    between atoms: C_16  and  C_17
REMARK                            x       y       z     vdW  Elec       q    Type
REMARK                         _______ _______ _______ _____ _____    ______ ____
ROOT
ATOM      1  N   UNL     1       2.935   5.968  18.495  0.00  0.00    +0.000 N 
ATOM      2  C   UNL     1       4.227   5.589  18.218  0.00  0.00    +0.000 C 
ATOM      3  O   UNL     1       5.182   5.799  18.959  0.00  0.00    +0.000 OA
ATOM      4  H   UNL     1       2.184   5.589  17.939  0.00  0.00    +0.000 HD
ENDROOT
BRANCH   1   5
ATOM      5  C   UNL     1       2.592   6.728  19.671  0.00  0.00    +0.000 C 
BRANCH   5  10
ATOM      6  C   UNL     1       0.499   9.928  19.931  0.00  0.00    +0.000 A 
ATOM      7  C   UNL     1       0.788  10.502  18.675  0.00  0.00    +0.000 A 
ATOM      8  C   UNL     1       1.639   9.881  17.762  0.00  0.00    +0.000 A 
ATOM      9  C   UNL     1       2.221   8.654  18.079  0.00  0.00    +0.000 A 
ATOM     10  C   UNL     1       1.957   8.050  19.318  0.00  0.00    +0.000 A 
ATOM     11  C   UNL     1       1.099   8.689  20.226  0.00  0.00    +0.000 A 
BRANCH   6  16
ATOM     12  C   UNL     1      -3.021  12.540  23.771  0.00  0.00    +0.000 C 
ATOM     13  C   UNL     1      -2.116  11.880  22.773  0.00  0.00    +0.000 A 
ATOM     14  C   UNL     1      -2.088  12.285  21.440  0.00  0.00    +0.000 A 
ATOM     15  C   UNL     1      -1.231  11.660  20.527  0.00  0.00    +0.000 A 
ATOM     16  C   UNL     1      -0.382  10.606  20.909  0.00  0.00    +0.000 A 
ATOM     17  C   UNL     1      -0.423  10.213  22.257  0.00  0.00    +0.000 A 
ATOM     18  C   UNL     1      -1.268  10.845  23.177  0.00  0.00    +0.000 A 
ENDBRANCH   6  16
ENDBRANCH   5  10
ENDBRANCH   1   5
BRANCH   2  19
ATOM     19  C   UNL     1       4.383   4.927  16.871  0.00  0.00    +0.000 C 
BRANCH  19  20
ATOM     20  C   UNL     1       4.686   3.427  17.050  0.00  0.00    +0.000 C 
BRANCH  20  21
ATOM     21  C   UNL     1       3.679   2.791  17.976  0.00  0.00    +0.000 A 
ATOM     22  C   UNL     1       2.323   2.645  17.593  0.00  0.00    +0.000 A 
ATOM     23  C   UNL     1       1.328   2.471  18.559  0.00  0.00    +0.000 A 
ATOM     24  C   UNL     1       1.739   2.487  19.871  0.00  0.00    +0.000 A 
ATOM     25  C   UNL     1       3.071   2.448  20.226  0.00  0.00    +0.000 A 
ATOM     26  C   UNL     1       4.071   2.551  19.299  0.00  0.00    +0.000 A 
ATOM     27  O   UNL     1       3.250   2.604  21.570  0.00  0.00    +0.000 OA
ATOM     28  C   UNL     1       1.999   3.257  21.840  0.00  0.00    +0.000 C 
ATOM     29  O   UNL     1       0.957   2.778  20.957  0.00  0.00    +0.000 OA
ENDBRANCH  20  21
ENDBRANCH  19  20
ENDBRANCH   2  19
TORSDOF 6
ENDMDL
MODEL 9
REMARK VINA RESULT:      -8.8      4.169      6.801
REMARK  Name = 
REMARK  7 active torsions:
REMARK  status: ('A' for Active; 'I' for Inactive)
REMARK    1  A    between atoms: C_1  and  C_2
REMARK    2  A    between atoms: C_5  and  C_6
REMARK    3  A    between atoms: C_10  and  C_11
REMARK    4  A    between atoms: C_11  and  N_12
REMARK    5  A    between atoms: C_13  and  C_15
REMARK    6  A    between atoms: C_15  and  C_16
REMARK    7  A    between atoms: C_16  and  C_17
REMARK                            x       y       z     vdW  Elec       q    Type
REMARK                         _______ _______ _______ _____ _____    ______ ____
ROOT
ATOM      1  N   UNL     1       3.114   4.926  20.019  0.00  0.00    +0.000 N 
ATOM      2  C   UNL     1       2.745   3.802  19.319  0.00  0.00    +0.000 C 
ATOM      3  O   UNL     1       1.593   3.387  19.238  0.00  0.00    +0.000 OA
ATOM      4  H   UNL     1       4.036   5.312  19.876  0.00  0.00    +0.000 HD
ENDROOT
BRANCH   1   5
ATOM      5  C   UNL     1       2.173   5.691  20.798  0.00  0.00    +0.000 C 
BRANCH   5  10
ATOM      6  C   UNL     1       0.969   9.304  20.362  0.00  0.00    +0.000 A 
ATOM      7  C   UNL     1       1.378   9.530  19.031  0.00  0.00    +0.000 A 
ATOM      8  C   UNL     1       2.030   8.548  18.286  0.00  0.00    +0.000 A 
ATOM      9  C   UNL     1       2.284   7.300  18.854  0.00  0.00    +0.000 A 
ATOM     10  C   UNL     1       1.891   7.036  20.175  0.00  0.00    +0.000 A 
ATOM     11  C   UNL     1       1.237   8.035  20.912  0.00  0.00    +0.000 A 
BRANCH   6  16
ATOM     12  C   UNL     1      -1.715  13.445  23.460  0.00  0.00    +0.000 C 
ATOM     13  C   UNL     1      -1.015  12.389  22.657  0.00  0.00    +0.000 A 
ATOM     14  C   UNL     1      -0.254  12.717  21.536  0.00  0.00    +0.000 A 
ATOM     15  C   UNL     1       0.397  11.717  20.804  0.00  0.00    +0.000 A 
ATOM     16  C   UNL     1       0.304  10.359  21.159  0.00  0.00    +0.000 A 
ATOM     17  C   UNL     1      -0.465  10.049  22.293  0.00  0.00    +0.000 A 
ATOM     18  C   UNL     1      -1.107  11.047  23.036  0.00  0.00    +0.000 A 
ENDBRANCH   6  16
ENDBRANCH   5  10
ENDBRANCH   1   5
BRANCH   2  19
ATOM     19  C   UNL     1       3.909   3.077  18.690  0.00  0.00    +0.000 C 
BRANCH  19  20
ATOM     20  C   UNL     1       3.747   3.043  17.158  0.00  0.00    +0.000 C 
BRANCH  20  21
ATOM     21  C   UNL     1       4.659   4.053  16.507  0.00  0.00    +0.000 A 
ATOM     22  C   UNL     1       5.764   3.641  15.722  0.00  0.00    +0.000 A 
ATOM     23  C   UNL     1       6.831   4.513  15.486  0.00  0.00    +0.000 A 
ATOM     24  C   UNL     1       6.753   5.751  16.080  0.00  0.00    +0.000 A 
ATOM     25  C   UNL     1       5.601   6.205  16.687  0.00  0.00    +0.000 A 
ATOM     26  C   UNL     1       4.515   5.396  16.877  0.00  0.00    +0.000 A 
ATOM     27  O   UNL     1       5.789   7.399  17.321  0.00  0.00    +0.000 OA
ATOM     28  C   UNL     1       7.215   7.294  17.474  0.00  0.00    +0.000 C 
ATOM     29  O   UNL     1       7.808   6.574  16.368  0.00  0.00    +0.000 OA
ENDBRANCH  20  21
ENDBRANCH  19  20
ENDBRANCH   2  19
TORSDOF 6
ENDMDL
