MODEL 1
REMARK VINA RESULT:      -7.4      0.000      0.000
REMARK  Name = 
REMARK  8 active torsions:
REMARK  status: ('A' for Active; 'I' for Inactive)
REMARK    1  A    between atoms: C_1  and  C_2
REMARK    2  A    between atoms: C_2  and  O_3
REMARK    3  A    between atoms: O_3  and  C_4
REMARK    4  A    between atoms: C_9  and  C_10
REMARK    5  A    between atoms: N_12  and  N_13
REMARK    6  A    between atoms: C_14  and  C_15
REMARK    7  A    between atoms: C_18  and  O_19
REMARK    8  A    between atoms: O_19  and  C_20
REMARK                            x       y       z     vdW  Elec       q    Type
REMARK                         _______ _______ _______ _____ _____    ______ ____
ROOT
ATOM      1  C   UNL     1       7.399   7.014  17.292  0.00  0.00    +0.000 C 
ATOM      2  O   UNL     1       7.964   6.884  16.209  0.00  0.00    +0.000 OA
ATOM      3  N   UNL     1       7.654   8.043  18.192  0.00  0.00    +0.000 N 
ATOM      4  H   UNL     1       7.155   8.092  19.069  0.00  0.00    +0.000 HD
ENDROOT
BRANCH   1  10
ATOM      5  C   UNL     1       3.215   3.045  19.270  0.00  0.00    +0.000 A 
ATOM      6  C   UNL     1       2.469   3.669  18.269  0.00  0.00    +0.000 A 
ATOM      7  C   UNL     1       3.017   4.693  17.480  0.00  0.00    +0.000 A 
ATOM      8  C   UNL     1       4.340   5.070  17.734  0.00  0.00    +0.000 A 
ATOM      9  N   UNL     1       5.132   6.031  17.144  0.00  0.00    +0.000 N 
ATOM     10  C   UNL     1       6.385   6.068  17.727  0.00  0.00    +0.000 A 
ATOM     11  C   UNL     1       6.387   5.087  18.703  0.00  0.00    +0.000 A 
ATOM     12  C   UNL     1       5.111   4.463  18.719  0.00  0.00    +0.000 A 
ATOM     13  C   UNL     1       4.541   3.434  19.492  0.00  0.00    +0.000 A 
ATOM     14  H   UNL     1       4.849   6.646  16.391  0.00  0.00    +0.000 HD
BRANCH   5  15
ATOM     15  O   UNL     1       2.778   2.047  20.100  0.00  0.00    +0.000 OA
BRANCH  15  17
ATOM     16  C   UNL     1       1.313   3.087  21.672  0.00  0.00    +0.000 C 
ATOM     17  C   UNL     1       2.637   2.369  21.482  0.00  0.00    +0.000 C 
ENDBRANCH  15  17
ENDBRANCH   5  15
ENDBRANCH   1  10
BRANCH   3  18
ATOM     18  N   UNL     1       8.580   9.000  17.898  0.00  0.00    +0.000 NA
ATOM     19  C   UNL     1       8.535  10.087  18.602  0.00  0.00    +0.000 C 
BRANCH  19  20
ATOM     20  C   UNL     1       9.499  11.185  18.361  0.00  0.00    +0.000 A 
ATOM     21  C   UNL     1       9.070  12.361  17.744  0.00  0.00    +0.000 A 
ATOM     22  C   UNL     1       9.978  13.394  17.508  0.00  0.00    +0.000 A 
ATOM     23  C   UNL     1      11.311  13.272  17.901  0.00  0.00    +0.000 A 
ATOM     24  C   UNL     1      11.742  12.092  18.511  0.00  0.00    +0.000 A 
ATOM     25  C   UNL     1      10.837  11.045  18.744  0.00  0.00    +0.000 A 
BRANCH  23  26
ATOM     26  O   UNL     1      12.103  14.342  17.592  0.00  0.00    +0.000 OA
ATOM     27  C   UNL     1      11.436  15.470  17.038  0.00  0.00    +0.000 C 
ENDBRANCH  23  26
ENDBRANCH  19  20
ENDBRANCH   3  18
TORSDOF 6
ENDMDL
MODEL 2
REMARK VINA RESULT:      -7.4      4.045      5.361
REMARK  Name = 
REMARK  8 active torsions:
REMARK  status: ('A' for Active; 'I' for Inactive)
REMARK    1  A    between atoms: C_1  and  C_2
REMARK    2  A    between atoms: C_2  and  O_3
REMARK    3  A    between atoms: O_3  and  C_4
REMARK    4  A    between atoms: C_9  and  C_10
REMARK    5  A    between atoms: N_12  and  N_13
REMARK    6  A    between atoms: C_14  and  C_15
REMARK    7  A    between atoms: C_18  and  O_19
REMARK    8  A    between atoms: O_19  and  C_20
REMARK                            x       y       z     vdW  Elec       q    Type
REMARK                         _______ _______ _______ _____ _____    ______ ____
ROOT
ATOM      1  C   UNL     1       7.258   6.457  17.032  0.00  0.00    +0.000 C 
ATOM      2  O   UNL     1       7.459   5.897  18.107  0.00  0.00    +0.000 OA
ATOM      3  N   UNL     1       7.365   7.828  16.828  0.00  0.00    +0.000 N 
ATOM      4  H   UNL     1       7.184   8.226  15.917  0.00  0.00    +0.000 HD
ENDROOT
BRANCH   1  10
ATOM      5  C   UNL     1       5.518   3.307  12.110  0.00  0.00    +0.000 A 
ATOM      6  C   UNL     1       6.792   3.687  11.687  0.00  0.00    +0.000 A 
ATOM      7  C   UNL     1       7.636   4.452  12.508  0.00  0.00    +0.000 A 
ATOM      8  C   UNL     1       7.154   4.824  13.767  0.00  0.00    +0.000 A 
ATOM      9  N   UNL     1       7.736   5.567  14.771  0.00  0.00    +0.000 N 
ATOM     10  C   UNL     1       6.882   5.697  15.851  0.00  0.00    +0.000 A 
ATOM     11  C   UNL     1       5.733   4.999  15.522  0.00  0.00    +0.000 A 
ATOM     12  C   UNL     1       5.892   4.455  14.220  0.00  0.00    +0.000 A 
ATOM     13  C   UNL     1       5.067   3.682  13.381  0.00  0.00    +0.000 A 
ATOM     14  H   UNL     1       8.659   5.982  14.737  0.00  0.00    +0.000 HD
BRANCH   5  15
ATOM     15  O   UNL     1       4.613   2.573  11.389  0.00  0.00    +0.000 OA
BRANCH  15  17
ATOM     16  C   UNL     1       3.296   3.973   9.972  0.00  0.00    +0.000 C 
ATOM     17  C   UNL     1       3.307   3.127  11.233  0.00  0.00    +0.000 C 
ENDBRANCH  15  17
ENDBRANCH   5  15
ENDBRANCH   1  10
BRANCH   3  18
ATOM     18  N   UNL     1       7.718   8.650  17.857  0.00  0.00    +0.000 NA
ATOM     19  C   UNL     1       8.445   9.679  17.555  0.00  0.00    +0.000 C 
BRANCH  19  20
ATOM     20  C   UNL     1       8.880  10.633  18.600  0.00  0.00    +0.000 A 
ATOM     21  C   UNL     1       9.112  10.181  19.900  0.00  0.00    +0.000 A 
ATOM     22  C   UNL     1       9.512  11.079  20.889  0.00  0.00    +0.000 A 
ATOM     23  C   UNL     1       9.703  12.428  20.587  0.00  0.00    +0.000 A 
ATOM     24  C   UNL     1       9.462  12.884  19.289  0.00  0.00    +0.000 A 
ATOM     25  C   UNL     1       9.050  11.987  18.291  0.00  0.00    +0.000 A 
BRANCH  23  26
ATOM     26  O   UNL     1      10.072  13.208  21.647  0.00  0.00    +0.000 OA
ATOM     27  C   UNL     1       9.009  13.778  22.401  0.00  0.00    +0.000 C 
ENDBRANCH  23  26
ENDBRANCH  19  20
ENDBRANCH   3  18
TORSDOF 6
ENDMDL
MODEL 3
REMARK VINA RESULT:      -7.3      1.064      1.122
REMARK  Name = 
REMARK  8 active torsions:
REMARK  status: ('A' for Active; 'I' for Inactive)
REMARK    1  A    between atoms: C_1  and  C_2
REMARK    2  A    between atoms: C_2  and  O_3
REMARK    3  A    between atoms: O_3  and  C_4
REMARK    4  A    between atoms: C_9  and  C_10
REMARK    5  A    between atoms: N_12  and  N_13
REMARK    6  A    between atoms: C_14  and  C_15
REMARK    7  A    between atoms: C_18  and  O_19
REMARK    8  A    between atoms: O_19  and  C_20
REMARK                            x       y       z     vdW  Elec       q    Type
REMARK                         _______ _______ _______ _____ _____    ______ ____
ROOT
ATOM      1  C   UNL     1       7.642   7.052  18.282  0.00  0.00    +0.000 C 
ATOM      2  O   UNL     1       8.619   6.954  19.021  0.00  0.00    +0.000 OA
ATOM      3  N   UNL     1       7.427   8.106  17.401  0.00  0.00    +0.000 N 
ATOM      4  H   UNL     1       6.601   8.127  16.820  0.00  0.00    +0.000 HD
ENDROOT
BRANCH   1  10
ATOM      5  C   UNL     1       3.260   2.816  18.407  0.00  0.00    +0.000 A 
ATOM      6  C   UNL     1       3.181   3.171  17.061  0.00  0.00    +0.000 A 
ATOM      7  C   UNL     1       4.031   4.145  16.512  0.00  0.00    +0.000 A 
ATOM      8  C   UNL     1       4.961   4.750  17.364  0.00  0.00    +0.000 A 
ATOM      9  N   UNL     1       5.903   5.726  17.122  0.00  0.00    +0.000 N 
ATOM     10  C   UNL     1       6.604   6.035  18.272  0.00  0.00    +0.000 A 
ATOM     11  C   UNL     1       6.099   5.213  19.266  0.00  0.00    +0.000 A 
ATOM     12  C   UNL     1       5.068   4.412  18.708  0.00  0.00    +0.000 A 
ATOM     13  C   UNL     1       4.209   3.428  19.233  0.00  0.00    +0.000 A 
ATOM     14  H   UNL     1       6.065   6.179  16.231  0.00  0.00    +0.000 HD
BRANCH   5  15
ATOM     15  O   UNL     1       2.476   1.890  19.045  0.00  0.00    +0.000 OA
BRANCH  15  17
ATOM     16  C   UNL     1       0.813   3.225  20.120  0.00  0.00    +0.000 C 
ATOM     17  C   UNL     1       1.073   2.145  19.085  0.00  0.00    +0.000 C 
ENDBRANCH  15  17
ENDBRANCH   5  15
ENDBRANCH   1  10
BRANCH   3  18
ATOM     18  N   UNL     1       8.332   9.122  17.310  0.00  0.00    +0.000 NA
ATOM     19  C   UNL     1       8.391   9.939  18.313  0.00  0.00    +0.000 C 
BRANCH  19  20
ATOM     20  C   UNL     1       9.341  11.074  18.312  0.00  0.00    +0.000 A 
ATOM     21  C   UNL     1       9.020  12.248  17.628  0.00  0.00    +0.000 A 
ATOM     22  C   UNL     1       9.918  13.315  17.617  0.00  0.00    +0.000 A 
ATOM     23  C   UNL     1      11.131  13.230  18.301  0.00  0.00    +0.000 A 
ATOM     24  C   UNL     1      11.457  12.053  18.978  0.00  0.00    +0.000 A 
ATOM     25  C   UNL     1      10.562  10.971  18.986  0.00  0.00    +0.000 A 
BRANCH  23  26
ATOM     26  O   UNL     1      11.931  14.333  18.194  0.00  0.00    +0.000 OA
ATOM     27  C   UNL     1      11.511  15.318  17.258  0.00  0.00    +0.000 C 
ENDBRANCH  23  26
ENDBRANCH  19  20
ENDBRANCH   3  18
TORSDOF 6
ENDMDL
MODEL 4
REMARK VINA RESULT:      -7.3      1.850     10.603
REMARK  Name = 
REMARK  8 active torsions:
REMARK  status: ('A' for Active; 'I' for Inactive)
REMARK    1  A    between atoms: C_1  and  C_2
REMARK    2  A    between atoms: C_2  and  O_3
REMARK    3  A    between atoms: O_3  and  C_4
REMARK    4  A    between atoms: C_9  and  C_10
REMARK    5  A    between atoms: N_12  and  N_13
REMARK    6  A    between atoms: C_14  and  C_15
REMARK    7  A    between atoms: C_18  and  O_19
REMARK    8  A    between atoms: O_19  and  C_20
REMARK                            x       y       z     vdW  Elec       q    Type
REMARK                         _______ _______ _______ _____ _____    ______ ____
ROOT
ATOM      1  C   UNL     1       8.179   8.351  18.281  0.00  0.00    +0.000 C 
ATOM      2  O   UNL     1       8.517   7.386  18.963  0.00  0.00    +0.000 OA
ATOM      3  N   UNL     1       7.155   8.328  17.341  0.00  0.00    +0.000 N 
ATOM      4  H   UNL     1       6.928   9.158  16.812  0.00  0.00    +0.000 HD
ENDROOT
BRANCH   1  10
ATOM      5  C   UNL     1      10.880  13.797  18.731  0.00  0.00    +0.000 A 
ATOM      6  C   UNL     1      11.180  13.300  19.999  0.00  0.00    +0.000 A 
ATOM      7  C   UNL     1      10.767  12.018  20.397  0.00  0.00    +0.000 A 
ATOM      8  C   UNL     1      10.042  11.255  19.476  0.00  0.00    +0.000 A 
ATOM      9  N   UNL     1       9.504   9.991  19.579  0.00  0.00    +0.000 N 
ATOM     10  C   UNL     1       8.849   9.633  18.415  0.00  0.00    +0.000 A 
ATOM     11  C   UNL     1       8.996  10.700  17.546  0.00  0.00    +0.000 A 
ATOM     12  C   UNL     1       9.734  11.720  18.202  0.00  0.00    +0.000 A 
ATOM     13  C   UNL     1      10.165  13.006  17.825  0.00  0.00    +0.000 A 
ATOM     14  H   UNL     1       9.558   9.393  20.395  0.00  0.00    +0.000 HD
BRANCH   5  15
ATOM     15  O   UNL     1      11.224  15.032  18.245  0.00  0.00    +0.000 OA
BRANCH  15  17
ATOM     16  C   UNL     1       9.457  16.638  18.220  0.00  0.00    +0.000 C 
ATOM     17  C   UNL     1      10.709  16.167  18.939  0.00  0.00    +0.000 C 
ENDBRANCH  15  17
ENDBRANCH   5  15
ENDBRANCH   1  10
BRANCH   3  18
ATOM     18  N   UNL     1       6.444   7.185  17.126  0.00  0.00    +0.000 NA
ATOM     19  C   UNL     1       5.342   7.051  17.795  0.00  0.00    +0.000 C 
BRANCH  19  20
ATOM     20  C   UNL     1       4.498   5.846  17.631  0.00  0.00    +0.000 A 
ATOM     21  C   UNL     1       3.151   5.888  17.994  0.00  0.00    +0.000 A 
ATOM     22  C   UNL     1       2.355   4.751  17.850  0.00  0.00    +0.000 A 
ATOM     23  C   UNL     1       2.888   3.574  17.325  0.00  0.00    +0.000 A 
ATOM     24  C   UNL     1       4.238   3.528  16.969  0.00  0.00    +0.000 A 
ATOM     25  C   UNL     1       5.047   4.665  17.120  0.00  0.00    +0.000 A 
BRANCH  23  26
ATOM     26  O   UNL     1       2.012   2.526  17.257  0.00  0.00    +0.000 OA
ATOM     27  C   UNL     1       1.358   2.182  18.471  0.00  0.00    +0.000 C 
ENDBRANCH  23  26
ENDBRANCH  19  20
ENDBRANCH   3  18
TORSDOF 6
ENDMDL
MODEL 5
REMARK VINA RESULT:      -7.3      1.038      1.397
REMARK  Name = 
REMARK  8 active torsions:
REMARK  status: ('A' for Active; 'I' for Inactive)
REMARK    1  A    between atoms: C_1  and  C_2
REMARK    2  A    between atoms: C_2  and  O_3
REMARK    3  A    between atoms: O_3  and  C_4
REMARK    4  A    between atoms: C_9  and  C_10
REMARK    5  A    between atoms: N_12  and  N_13
REMARK    6  A    between atoms: C_14  and  C_15
REMARK    7  A    between atoms: C_18  and  O_19
REMARK    8  A    between atoms: O_19  and  C_20
REMARK                            x       y       z     vdW  Elec       q    Type
REMARK                         _______ _______ _______ _____ _____    ______ ____
ROOT
ATOM      1  C   UNL     1       7.528   6.889  18.269  0.00  0.00    +0.000 C 
ATOM      2  O   UNL     1       8.541   6.739  18.948  0.00  0.00    +0.000 OA
ATOM      3  N   UNL     1       7.306   7.965  17.418  0.00  0.00    +0.000 N 
ATOM      4  H   UNL     1       6.449   8.030  16.886  0.00  0.00    +0.000 HD
ENDROOT
BRANCH   1  10
ATOM      5  C   UNL     1       2.980   2.842  18.585  0.00  0.00    +0.000 A 
ATOM      6  C   UNL     1       2.916   3.136  17.223  0.00  0.00    +0.000 A 
ATOM      7  C   UNL     1       3.804   4.048  16.630  0.00  0.00    +0.000 A 
ATOM      8  C   UNL     1       4.757   4.655  17.455  0.00  0.00    +0.000 A 
ATOM      9  N   UNL     1       5.737   5.580  17.169  0.00  0.00    +0.000 N 
ATOM     10  C   UNL     1       6.451   5.914  18.305  0.00  0.00    +0.000 A 
ATOM     11  C   UNL     1       5.913   5.162  19.335  0.00  0.00    +0.000 A 
ATOM     12  C   UNL     1       4.851   4.376  18.814  0.00  0.00    +0.000 A 
ATOM     13  C   UNL     1       3.953   3.454  19.383  0.00  0.00    +0.000 A 
ATOM     14  H   UNL     1       5.918   5.984  16.258  0.00  0.00    +0.000 HD
BRANCH   5  15
ATOM     15  O   UNL     1       2.160   1.979  19.265  0.00  0.00    +0.000 OA
BRANCH  15  17
ATOM     16  C   UNL     1       0.772   3.616  20.311  0.00  0.00    +0.000 C 
ATOM     17  C   UNL     1       1.672   2.413  20.532  0.00  0.00    +0.000 C 
ENDBRANCH  15  17
ENDBRANCH   5  15
ENDBRANCH   1  10
BRANCH   3  18
ATOM     18  N   UNL     1       8.245   8.946  17.289  0.00  0.00    +0.000 NA
ATOM     19  C   UNL     1       8.070  10.015  17.999  0.00  0.00    +0.000 C 
BRANCH  19  20
ATOM     20  C   UNL     1       9.034  11.136  17.931  0.00  0.00    +0.000 A 
ATOM     21  C   UNL     1      10.405  10.879  17.997  0.00  0.00    +0.000 A 
ATOM     22  C   UNL     1      11.315  11.934  17.943  0.00  0.00    +0.000 A 
ATOM     23  C   UNL     1      10.870  13.249  17.803  0.00  0.00    +0.000 A 
ATOM     24  C   UNL     1       9.499  13.509  17.745  0.00  0.00    +0.000 A 
ATOM     25  C   UNL     1       8.577  12.452  17.808  0.00  0.00    +0.000 A 
BRANCH  23  26
ATOM     26  O   UNL     1      11.859  14.193  17.786  0.00  0.00    +0.000 OA
ATOM     27  C   UNL     1      11.568  15.411  18.458  0.00  0.00    +0.000 C 
ENDBRANCH  23  26
ENDBRANCH  19  20
ENDBRANCH   3  18
TORSDOF 6
ENDMDL
MODEL 6
REMARK VINA RESULT:      -7.2      6.061      9.001
REMARK  Name = 
REMARK  8 active torsions:
REMARK  status: ('A' for Active; 'I' for Inactive)
REMARK    1  A    between atoms: C_1  and  C_2
REMARK    2  A    between atoms: C_2  and  O_3
REMARK    3  A    between atoms: O_3  and  C_4
REMARK    4  A    between atoms: C_9  and  C_10
REMARK    5  A    between atoms: N_12  and  N_13
REMARK    6  A    between atoms: C_14  and  C_15
REMARK    7  A    between atoms: C_18  and  O_19
REMARK    8  A    between atoms: O_19  and  C_20
REMARK                            x       y       z     vdW  Elec       q    Type
REMARK                         _______ _______ _______ _____ _____    ______ ____
ROOT
ATOM      1  C   UNL     1       2.230   6.379  19.999  0.00  0.00    +0.000 C 
ATOM      2  O   UNL     1       1.640   5.676  20.815  0.00  0.00    +0.000 OA
ATOM      3  N   UNL     1       2.067   7.755  19.885  0.00  0.00    +0.000 N 
ATOM      4  H   UNL     1       2.583   8.276  19.189  0.00  0.00    +0.000 HD
ENDROOT
BRANCH   1  10
ATOM      5  C   UNL     1       6.098   3.991  15.936  0.00  0.00    +0.000 A 
ATOM      6  C   UNL     1       7.022   4.426  16.887  0.00  0.00    +0.000 A 
ATOM      7  C   UNL     1       6.608   5.061  18.070  0.00  0.00    +0.000 A 
ATOM      8  C   UNL     1       5.235   5.244  18.262  0.00  0.00    +0.000 A 
ATOM      9  N   UNL     1       4.540   5.831  19.297  0.00  0.00    +0.000 N 
ATOM     10  C   UNL     1       3.179   5.802  19.060  0.00  0.00    +0.000 A 
ATOM     11  C   UNL     1       3.011   5.162  17.845  0.00  0.00    +0.000 A 
ATOM     12  C   UNL     1       4.290   4.815  17.336  0.00  0.00    +0.000 A 
ATOM     13  C   UNL     1       4.729   4.176  16.161  0.00  0.00    +0.000 A 
ATOM     14  H   UNL     1       4.954   6.244  20.123  0.00  0.00    +0.000 HD
BRANCH   5  15
ATOM     15  O   UNL     1       6.392   3.373  14.749  0.00  0.00    +0.000 OA
BRANCH  15  17
ATOM     16  C   UNL     1       6.314   3.530  12.367  0.00  0.00    +0.000 C 
ATOM     17  C   UNL     1       6.749   4.212  13.652  0.00  0.00    +0.000 C 
ENDBRANCH  15  17
ENDBRANCH   5  15
ENDBRANCH   1  10
BRANCH   3  18
ATOM     18  N   UNL     1       1.210   8.417  20.713  0.00  0.00    +0.000 NA
ATOM     19  C   UNL     1       0.925   9.640  20.396  0.00  0.00    +0.000 C 
BRANCH  19  20
ATOM     20  C   UNL     1       0.003  10.444  21.230  0.00  0.00    +0.000 A 
ATOM     21  C   UNL     1      -0.417   9.956  22.469  0.00  0.00    +0.000 A 
ATOM     22  C   UNL     1      -1.293  10.707  23.252  0.00  0.00    +0.000 A 
ATOM     23  C   UNL     1      -1.741  11.955  22.819  0.00  0.00    +0.000 A 
ATOM     24  C   UNL     1      -1.329  12.441  21.576  0.00  0.00    +0.000 A 
ATOM     25  C   UNL     1      -0.454  11.686  20.778  0.00  0.00    +0.000 A 
BRANCH  23  26
ATOM     26  O   UNL     1      -2.613  12.580  23.667  0.00  0.00    +0.000 OA
ATOM     27  C   UNL     1      -3.947  12.721  23.194  0.00  0.00    +0.000 C 
ENDBRANCH  23  26
ENDBRANCH  19  20
ENDBRANCH   3  18
TORSDOF 6
ENDMDL
MODEL 7
REMARK VINA RESULT:      -7.1      6.192      9.125
REMARK  Name = 
REMARK  8 active torsions:
REMARK  status: ('A' for Active; 'I' for Inactive)
REMARK    1  A    between atoms: C_1  and  C_2
REMARK    2  A    between atoms: C_2  and  O_3
REMARK    3  A    between atoms: O_3  and  C_4
REMARK    4  A    between atoms: C_9  and  C_10
REMARK    5  A    between atoms: N_12  and  N_13
REMARK    6  A    between atoms: C_14  and  C_15
REMARK    7  A    between atoms: C_18  and  O_19
REMARK    8  A    between atoms: O_19  and  C_20
REMARK                            x       y       z     vdW  Elec       q    Type
REMARK                         _______ _______ _______ _____ _____    ______ ____
ROOT
ATOM      1  C   UNL     1       2.350   6.837  19.741  0.00  0.00    +0.000 C 
ATOM      2  O   UNL     1       1.853   6.056  20.549  0.00  0.00    +0.000 OA
ATOM      3  N   UNL     1       2.023   8.184  19.649  0.00  0.00    +0.000 N 
ATOM      4  H   UNL     1       2.468   8.774  18.960  0.00  0.00    +0.000 HD
ENDROOT
BRANCH   1  10
ATOM      5  C   UNL     1       6.536   5.109  15.660  0.00  0.00    +0.000 A 
ATOM      6  C   UNL     1       7.086   4.519  16.799  0.00  0.00    +0.000 A 
ATOM      7  C   UNL     1       6.458   4.626  18.051  0.00  0.00    +0.000 A 
ATOM      8  C   UNL     1       5.262   5.347  18.119  0.00  0.00    +0.000 A 
ATOM      9  N   UNL     1       4.438   5.627  19.187  0.00  0.00    +0.000 N 
ATOM     10  C   UNL     1       3.356   6.392  18.791  0.00  0.00    +0.000 A 
ATOM     11  C   UNL     1       3.495   6.584  17.428  0.00  0.00    +0.000 A 
ATOM     12  C   UNL     1       4.686   5.940  17.000  0.00  0.00    +0.000 A 
ATOM     13  C   UNL     1       5.331   5.813  15.755  0.00  0.00    +0.000 A 
ATOM     14  H   UNL     1       4.593   5.333  20.143  0.00  0.00    +0.000 HD
BRANCH   5  15
ATOM     15  O   UNL     1       7.067   5.075  14.397  0.00  0.00    +0.000 OA
BRANCH  15  17
ATOM     16  C   UNL     1       7.124   4.337  12.127  0.00  0.00    +0.000 C 
ATOM     17  C   UNL     1       6.584   4.060  13.519  0.00  0.00    +0.000 C 
ENDBRANCH  15  17
ENDBRANCH   5  15
ENDBRANCH   1  10
BRANCH   3  18
ATOM     18  N   UNL     1       1.096   8.727  20.490  0.00  0.00    +0.000 NA
ATOM     19  C   UNL     1       0.735   9.947  20.248  0.00  0.00    +0.000 C 
BRANCH  19  20
ATOM     20  C   UNL     1      -0.266  10.625  21.102  0.00  0.00    +0.000 A 
ATOM     21  C   UNL     1      -1.053  11.648  20.571  0.00  0.00    +0.000 A 
ATOM     22  C   UNL     1      -1.990  12.295  21.376  0.00  0.00    +0.000 A 
ATOM     23  C   UNL     1      -2.165  11.916  22.708  0.00  0.00    +0.000 A 
ATOM     24  C   UNL     1      -1.372  10.898  23.243  0.00  0.00    +0.000 A 
ATOM     25  C   UNL     1      -0.420  10.249  22.441  0.00  0.00    +0.000 A 
BRANCH  23  26
ATOM     26  O   UNL     1      -3.097  12.642  23.396  0.00  0.00    +0.000 OA
ATOM     27  C   UNL     1      -3.603  13.793  22.732  0.00  0.00    +0.000 C 
ENDBRANCH  23  26
ENDBRANCH  19  20
ENDBRANCH   3  18
TORSDOF 6
ENDMDL
MODEL 8
REMARK VINA RESULT:      -6.9      1.833     10.736
REMARK  Name = 
REMARK  8 active torsions:
REMARK  status: ('A' for Active; 'I' for Inactive)
REMARK    1  A    between atoms: C_1  and  C_2
REMARK    2  A    between atoms: C_2  and  O_3
REMARK    3  A    between atoms: O_3  and  C_4
REMARK    4  A    between atoms: C_9  and  C_10
REMARK    5  A    between atoms: N_12  and  N_13
REMARK    6  A    between atoms: C_14  and  C_15
REMARK    7  A    between atoms: C_18  and  O_19
REMARK    8  A    between atoms: O_19  and  C_20
REMARK                            x       y       z     vdW  Elec       q    Type
REMARK                         _______ _______ _______ _____ _____    ______ ____
ROOT
ATOM      1  C   UNL     1       8.193   8.375  18.266  0.00  0.00    +0.000 C 
ATOM      2  O   UNL     1       8.538   7.410  18.944  0.00  0.00    +0.000 OA
ATOM      3  N   UNL     1       7.144   8.358  17.354  0.00  0.00    +0.000 N 
ATOM      4  H   UNL     1       6.911   9.187  16.826  0.00  0.00    +0.000 HD
ENDROOT
BRANCH   1  10
ATOM      5  C   UNL     1      10.951  13.799  18.627  0.00  0.00    +0.000 A 
ATOM      6  C   UNL     1      11.368  13.262  19.844  0.00  0.00    +0.000 A 
ATOM      7  C   UNL     1      10.989  11.968  20.239  0.00  0.00    +0.000 A 
ATOM      8  C   UNL     1      10.175  11.236  19.369  0.00  0.00    +0.000 A 
ATOM      9  N   UNL     1       9.643   9.970  19.483  0.00  0.00    +0.000 N 
ATOM     10  C   UNL     1       8.879   9.651  18.376  0.00  0.00    +0.000 A 
ATOM     11  C   UNL     1       8.947  10.745  17.530  0.00  0.00    +0.000 A 
ATOM     12  C   UNL     1       9.749  11.742  18.145  0.00  0.00    +0.000 A 
ATOM     13  C   UNL     1      10.148  13.039  17.769  0.00  0.00    +0.000 A 
ATOM     14  H   UNL     1       9.772   9.346  20.270  0.00  0.00    +0.000 HD
BRANCH   5  15
ATOM     15  O   UNL     1      11.253  15.048  18.150  0.00  0.00    +0.000 OA
BRANCH  15  17
ATOM     16  C   UNL     1      10.909  17.114  19.296  0.00  0.00    +0.000 C 
ATOM     17  C   UNL     1      11.865  15.959  19.061  0.00  0.00    +0.000 C 
ENDBRANCH  15  17
ENDBRANCH   5  15
ENDBRANCH   1  10
BRANCH   3  18
ATOM     18  N   UNL     1       6.416   7.220  17.163  0.00  0.00    +0.000 NA
ATOM     19  C   UNL     1       5.314   7.116  17.837  0.00  0.00    +0.000 C 
BRANCH  19  20
ATOM     20  C   UNL     1       4.452   5.920  17.699  0.00  0.00    +0.000 A 
ATOM     21  C   UNL     1       5.004   4.712  17.271  0.00  0.00    +0.000 A 
ATOM     22  C   UNL     1       4.192   3.586  17.131  0.00  0.00    +0.000 A 
ATOM     23  C   UNL     1       2.832   3.650  17.436  0.00  0.00    +0.000 A 
ATOM     24  C   UNL     1       2.277   4.861  17.856  0.00  0.00    +0.000 A 
ATOM     25  C   UNL     1       3.086   6.000  17.990  0.00  0.00    +0.000 A 
BRANCH  23  26
ATOM     26  O   UNL     1       2.143   2.487  17.235  0.00  0.00    +0.000 OA
ATOM     27  C   UNL     1       1.519   1.927  18.385  0.00  0.00    +0.000 C 
ENDBRANCH  23  26
ENDBRANCH  19  20
ENDBRANCH   3  18
TORSDOF 6
ENDMDL
MODEL 9
REMARK VINA RESULT:      -6.9      6.820      9.462
REMARK  Name = 
REMARK  8 active torsions:
REMARK  status: ('A' for Active; 'I' for Inactive)
REMARK    1  A    between atoms: C_1  and  C_2
REMARK    2  A    between atoms: C_2  and  O_3
REMARK    3  A    between atoms: O_3  and  C_4
REMARK    4  A    between atoms: C_9  and  C_10
REMARK    5  A    between atoms: N_12  and  N_13
REMARK    6  A    between atoms: C_14  and  C_15
REMARK    7  A    between atoms: C_18  and  O_19
REMARK    8  A    between atoms: O_19  and  C_20
REMARK                            x       y       z     vdW  Elec       q    Type
REMARK                         _______ _______ _______ _____ _____    ______ ____
ROOT
ATOM      1  C   UNL     1       1.713   7.647  20.215  0.00  0.00    +0.000 C 
ATOM      2  O   UNL     1       1.254   6.939  21.108  0.00  0.00    +0.000 OA
ATOM      3  N   UNL     1       1.366   8.977  20.010  0.00  0.00    +0.000 N 
ATOM      4  H   UNL     1       1.781   9.504  19.255  0.00  0.00    +0.000 HD
ENDROOT
BRANCH   1  10
ATOM      5  C   UNL     1       5.831   5.615  16.204  0.00  0.00    +0.000 A 
ATOM      6  C   UNL     1       6.064   4.706  17.235  0.00  0.00    +0.000 A 
ATOM      7  C   UNL     1       5.326   4.751  18.430  0.00  0.00    +0.000 A 
ATOM      8  C   UNL     1       4.349   5.744  18.551  0.00  0.00    +0.000 A 
ATOM      9  N   UNL     1       3.489   6.040  19.587  0.00  0.00    +0.000 N 
ATOM     10  C   UNL     1       2.692   7.125  19.275  0.00  0.00    +0.000 A 
ATOM     11  C   UNL     1       3.049   7.513  17.995  0.00  0.00    +0.000 A 
ATOM     12  C   UNL     1       4.088   6.660  17.538  0.00  0.00    +0.000 A 
ATOM     13  C   UNL     1       4.836   6.589  16.348  0.00  0.00    +0.000 A 
ATOM     14  H   UNL     1       3.441   5.548  20.471  0.00  0.00    +0.000 HD
BRANCH   5  15
ATOM     15  O   UNL     1       6.495   5.666  15.006  0.00  0.00    +0.000 OA
BRANCH  15  17
ATOM     16  C   UNL     1       5.931   3.869  13.539  0.00  0.00    +0.000 C 
ATOM     17  C   UNL     1       6.980   4.432  14.482  0.00  0.00    +0.000 C 
ENDBRANCH  15  17
ENDBRANCH   5  15
ENDBRANCH   1  10
BRANCH   3  18
ATOM     18  N   UNL     1       0.463   9.586  20.830  0.00  0.00    +0.000 NA
ATOM     19  C   UNL     1      -0.100  10.661  20.377  0.00  0.00    +0.000 C 
BRANCH  19  20
ATOM     20  C   UNL     1      -1.097  11.396  21.189  0.00  0.00    +0.000 A 
ATOM     21  C   UNL     1      -1.954  12.310  20.576  0.00  0.00    +0.000 A 
ATOM     22  C   UNL     1      -2.887  13.011  21.341  0.00  0.00    +0.000 A 
ATOM     23  C   UNL     1      -2.986  12.791  22.716  0.00  0.00    +0.000 A 
ATOM     24  C   UNL     1      -2.123  11.883  23.331  0.00  0.00    +0.000 A 
ATOM     25  C   UNL     1      -1.175  11.181  22.569  0.00  0.00    +0.000 A 
BRANCH  23  26
ATOM     26  O   UNL     1      -3.923  13.556  23.354  0.00  0.00    +0.000 OA
ATOM     27  C   UNL     1      -3.467  14.274  24.494  0.00  0.00    +0.000 C 
ENDBRANCH  23  26
ENDBRANCH  19  20
ENDBRANCH   3  18
TORSDOF 6
ENDMDL
