MODEL 1
REMARK VINA RESULT:      -7.7      0.000      0.000
REMARK  Name = 
REMARK  6 active torsions:
REMARK  status: ('A' for Active; 'I' for Inactive)
REMARK    1  A    between atoms: C_2  and  O_3
REMARK    2  A    between atoms: C_2  and  C_4
REMARK    3  A    between atoms: C_4  and  C_6
REMARK    4  A    between atoms: C_7  and  O_8
REMARK    5  A    between atoms: C_7  and  C_9
REMARK    6  A    between atoms: C_13  and  N_14
REMARK                            x       y       z     vdW  Elec       q    Type
REMARK                         _______ _______ _______ _____ _____    ______ ____
ROOT
ATOM      1  C   UNL     1       6.285   4.786  16.339  0.00  0.00    +0.000 A 
ATOM      2  C   UNL     1       7.210   5.351  17.224  0.00  0.00    +0.000 A 
ATOM      3  C   UNL     1       6.920   5.438  18.582  0.00  0.00    +0.000 A 
ATOM      4  C   UNL     1       5.703   4.958  19.074  0.00  0.00    +0.000 A 
ATOM      5  C   UNL     1       4.742   4.368  18.237  0.00  0.00    +0.000 A 
ATOM      6  C   UNL     1       5.068   4.305  16.870  0.00  0.00    +0.000 A 
ENDROOT
BRANCH   5   7
ATOM      7  N   UNL     1       3.563   3.856  18.728  0.00  0.00    +0.000 N 
ATOM      8  C   UNL     1       2.946   2.612  18.285  0.00  0.00    +0.000 C 
ATOM      9  C   UNL     1       1.460   2.908  18.435  0.00  0.00    +0.000 C 
ATOM     10  C   UNL     1       1.401   3.739  19.706  0.00  0.00    +0.000 C 
ATOM     11  C   UNL     1       2.714   4.526  19.714  0.00  0.00    +0.000 C 
ENDBRANCH   5   7
BRANCH   1  13
ATOM     12  C   UNL     1       5.901   3.867  14.067  0.00  0.00    +0.000 C 
ATOM     13  C   UNL     1       6.620   4.639  14.900  0.00  0.00    +0.000 C 
BRANCH  12  14
ATOM     14  C   UNL     1       6.262   3.678  12.642  0.00  0.00    +0.000 C 
ATOM     15  O   UNL     1       7.252   4.179  12.113  0.00  0.00    +0.000 OA
BRANCH  14  17
ATOM     16  O   UNL     1       4.260   3.132  11.395  0.00  0.00    +0.000 OA
ATOM     17  C   UNL     1       5.351   2.781  11.797  0.00  0.00    +0.000 C 
BRANCH  17  18
ATOM     18  O   UNL     1       5.905   1.573  11.591  0.00  0.00    +0.000 OA
ATOM     19  H   UNL     1       5.424   0.882  12.107  0.00  0.00    +0.000 HD
ENDBRANCH  17  18
ENDBRANCH  14  17
ENDBRANCH  12  14
BRANCH  13  20
ATOM     20  O   UNL     1       7.731   5.357  14.502  0.00  0.00    +0.000 OA
ATOM     21  H   UNL     1       7.573   5.722  13.607  0.00  0.00    +0.000 HD
ENDBRANCH  13  20
ENDBRANCH   1  13
TORSDOF 6
ENDMDL
MODEL 2
REMARK VINA RESULT:      -7.6      0.493      1.046
REMARK  Name = 
REMARK  6 active torsions:
REMARK  status: ('A' for Active; 'I' for Inactive)
REMARK    1  A    between atoms: C_2  and  O_3
REMARK    2  A    between atoms: C_2  and  C_4
REMARK    3  A    between atoms: C_4  and  C_6
REMARK    4  A    between atoms: C_7  and  O_8
REMARK    5  A    between atoms: C_7  and  C_9
REMARK    6  A    between atoms: C_13  and  N_14
REMARK                            x       y       z     vdW  Elec       q    Type
REMARK                         _______ _______ _______ _____ _____    ______ ____
ROOT
ATOM      1  C   UNL     1       6.315   4.834  16.315  0.00  0.00    +0.000 A 
ATOM      2  C   UNL     1       7.338   5.080  17.236  0.00  0.00    +0.000 A 
ATOM      3  C   UNL     1       7.054   5.176  18.595  0.00  0.00    +0.000 A 
ATOM      4  C   UNL     1       5.741   5.024  19.050  0.00  0.00    +0.000 A 
ATOM      5  C   UNL     1       4.675   4.763  18.175  0.00  0.00    +0.000 A 
ATOM      6  C   UNL     1       5.001   4.679  16.810  0.00  0.00    +0.000 A 
ENDROOT
BRANCH   5   7
ATOM      7  N   UNL     1       3.390   4.570  18.630  0.00  0.00    +0.000 N 
ATOM      8  C   UNL     1       2.557   5.600  19.237  0.00  0.00    +0.000 C 
ATOM      9  C   UNL     1       1.728   4.809  20.238  0.00  0.00    +0.000 C 
ATOM     10  C   UNL     1       1.455   3.506  19.505  0.00  0.00    +0.000 C 
ATOM     11  C   UNL     1       2.699   3.280  18.644  0.00  0.00    +0.000 C 
ENDBRANCH   5   7
BRANCH   1  13
ATOM     12  C   UNL     1       5.919   3.865  14.067  0.00  0.00    +0.000 C 
ATOM     13  C   UNL     1       6.628   4.673  14.873  0.00  0.00    +0.000 C 
BRANCH  12  14
ATOM     14  C   UNL     1       6.260   3.661  12.638  0.00  0.00    +0.000 C 
ATOM     15  O   UNL     1       7.247   4.150  12.093  0.00  0.00    +0.000 OA
BRANCH  14  17
ATOM     16  O   UNL     1       4.239   3.122  11.419  0.00  0.00    +0.000 OA
ATOM     17  C   UNL     1       5.332   2.765  11.812  0.00  0.00    +0.000 C 
BRANCH  17  18
ATOM     18  O   UNL     1       5.873   1.550  11.611  0.00  0.00    +0.000 OA
ATOM     19  H   UNL     1       6.320   1.234  12.432  0.00  0.00    +0.000 HD
ENDBRANCH  17  18
ENDBRANCH  14  17
ENDBRANCH  12  14
BRANCH  13  20
ATOM     20  O   UNL     1       7.709   5.417  14.442  0.00  0.00    +0.000 OA
ATOM     21  H   UNL     1       7.987   6.023  15.160  0.00  0.00    +0.000 HD
ENDBRANCH  13  20
ENDBRANCH   1  13
TORSDOF 6
ENDMDL
MODEL 3
REMARK VINA RESULT:      -7.4      1.354      1.702
REMARK  Name = 
REMARK  6 active torsions:
REMARK  status: ('A' for Active; 'I' for Inactive)
REMARK    1  A    between atoms: C_2  and  O_3
REMARK    2  A    between atoms: C_2  and  C_4
REMARK    3  A    between atoms: C_4  and  C_6
REMARK    4  A    between atoms: C_7  and  O_8
REMARK    5  A    between atoms: C_7  and  C_9
REMARK    6  A    between atoms: C_13  and  N_14
REMARK                            x       y       z     vdW  Elec       q    Type
REMARK                         _______ _______ _______ _____ _____    ______ ____
ROOT
ATOM      1  C   UNL     1       6.618   4.953  16.144  0.00  0.00    +0.000 A 
ATOM      2  C   UNL     1       7.666   4.691  17.033  0.00  0.00    +0.000 A 
ATOM      3  C   UNL     1       7.471   4.815  18.406  0.00  0.00    +0.000 A 
ATOM      4  C   UNL     1       6.225   5.200  18.907  0.00  0.00    +0.000 A 
ATOM      5  C   UNL     1       5.132   5.463  18.065  0.00  0.00    +0.000 A 
ATOM      6  C   UNL     1       5.370   5.333  16.685  0.00  0.00    +0.000 A 
ENDROOT
BRANCH   5   7
ATOM      7  N   UNL     1       3.893   5.799  18.562  0.00  0.00    +0.000 N 
ATOM      8  C   UNL     1       3.031   6.839  18.016  0.00  0.00    +0.000 C 
ATOM      9  C   UNL     1       2.319   7.363  19.255  0.00  0.00    +0.000 C 
ATOM     10  C   UNL     1       2.092   6.107  20.080  0.00  0.00    +0.000 C 
ATOM     11  C   UNL     1       3.294   5.215  19.763  0.00  0.00    +0.000 C 
ENDBRANCH   5   7
BRANCH   1  13
ATOM     12  C   UNL     1       6.080   3.889  13.969  0.00  0.00    +0.000 C 
ATOM     13  C   UNL     1       6.809   4.762  14.684  0.00  0.00    +0.000 C 
BRANCH  12  14
ATOM     14  C   UNL     1       6.303   3.658  12.521  0.00  0.00    +0.000 C 
ATOM     15  O   UNL     1       7.238   4.141  11.887  0.00  0.00    +0.000 OA
BRANCH  14  17
ATOM     16  O   UNL     1       4.207   3.102  11.445  0.00  0.00    +0.000 OA
ATOM     17  C   UNL     1       5.314   2.743  11.793  0.00  0.00    +0.000 C 
BRANCH  17  18
ATOM     18  O   UNL     1       5.822   1.509  11.621  0.00  0.00    +0.000 OA
ATOM     19  H   UNL     1       5.110   0.881  11.348  0.00  0.00    +0.000 HD
ENDBRANCH  17  18
ENDBRANCH  14  17
ENDBRANCH  12  14
BRANCH  13  20
ATOM     20  O   UNL     1       7.800   5.552  14.136  0.00  0.00    +0.000 OA
ATOM     21  H   UNL     1       7.551   6.494  14.234  0.00  0.00    +0.000 HD
ENDBRANCH  13  20
ENDBRANCH   1  13
TORSDOF 6
ENDMDL
MODEL 4
REMARK VINA RESULT:      -7.3      1.088      1.139
REMARK  Name = 
REMARK  6 active torsions:
REMARK  status: ('A' for Active; 'I' for Inactive)
REMARK    1  A    between atoms: C_2  and  O_3
REMARK    2  A    between atoms: C_2  and  C_4
REMARK    3  A    between atoms: C_4  and  C_6
REMARK    4  A    between atoms: C_7  and  O_8
REMARK    5  A    between atoms: C_7  and  C_9
REMARK    6  A    between atoms: C_13  and  N_14
REMARK                            x       y       z     vdW  Elec       q    Type
REMARK                         _______ _______ _______ _____ _____    ______ ____
ROOT
ATOM      1  C   UNL     1       5.537   5.196  15.835  0.00  0.00    +0.000 A 
ATOM      2  C   UNL     1       5.961   6.362  16.482  0.00  0.00    +0.000 A 
ATOM      3  C   UNL     1       5.406   6.731  17.703  0.00  0.00    +0.000 A 
ATOM      4  C   UNL     1       4.419   5.937  18.295  0.00  0.00    +0.000 A 
ATOM      5  C   UNL     1       3.963   4.750  17.701  0.00  0.00    +0.000 A 
ATOM      6  C   UNL     1       4.544   4.414  16.465  0.00  0.00    +0.000 A 
ENDROOT
BRANCH   5   7
ATOM      7  N   UNL     1       3.024   3.946  18.306  0.00  0.00    +0.000 N 
ATOM      8  C   UNL     1       3.330   2.828  19.190  0.00  0.00    +0.000 C 
ATOM      9  C   UNL     1       2.193   1.858  18.904  0.00  0.00    +0.000 C 
ATOM     10  C   UNL     1       0.997   2.776  18.712  0.00  0.00    +0.000 C 
ATOM     11  C   UNL     1       1.581   4.045  18.087  0.00  0.00    +0.000 C 
ENDBRANCH   5   7
BRANCH   1  13
ATOM     12  C   UNL     1       5.544   3.994  13.666  0.00  0.00    +0.000 C 
ATOM     13  C   UNL     1       6.173   4.772  14.562  0.00  0.00    +0.000 C 
BRANCH  12  14
ATOM     14  C   UNL     1       6.194   3.526  12.418  0.00  0.00    +0.000 C 
ATOM     15  O   UNL     1       7.286   3.927  12.023  0.00  0.00    +0.000 OA
BRANCH  14  17
ATOM     16  O   UNL     1       4.338   2.620  11.154  0.00  0.00    +0.000 OA
ATOM     17  C   UNL     1       5.459   2.462  11.597  0.00  0.00    +0.000 C 
BRANCH  17  18
ATOM     18  O   UNL     1       6.199   1.348  11.460  0.00  0.00    +0.000 OA
ATOM     19  H   UNL     1       7.014   1.408  12.015  0.00  0.00    +0.000 HD
ENDBRANCH  17  18
ENDBRANCH  14  17
ENDBRANCH  12  14
BRANCH  13  20
ATOM     20  O   UNL     1       7.460   5.242  14.390  0.00  0.00    +0.000 OA
ATOM     21  H   UNL     1       7.888   4.745  13.663  0.00  0.00    +0.000 HD
ENDBRANCH  13  20
ENDBRANCH   1  13
TORSDOF 6
ENDMDL
MODEL 5
REMARK VINA RESULT:      -7.3      3.173      4.825
REMARK  Name = 
REMARK  6 active torsions:
REMARK  status: ('A' for Active; 'I' for Inactive)
REMARK    1  A    between atoms: C_2  and  O_3
REMARK    2  A    between atoms: C_2  and  C_4
REMARK    3  A    between atoms: C_4  and  C_6
REMARK    4  A    between atoms: C_7  and  O_8
REMARK    5  A    between atoms: C_7  and  C_9
REMARK    6  A    between atoms: C_13  and  N_14
REMARK                            x       y       z     vdW  Elec       q    Type
REMARK                         _______ _______ _______ _____ _____    ______ ____
ROOT
ATOM      1  C   UNL     1       4.032   4.971  19.148  0.00  0.00    +0.000 A 
ATOM      2  C   UNL     1       3.285   4.111  19.960  0.00  0.00    +0.000 A 
ATOM      3  C   UNL     1       2.123   4.561  20.579  0.00  0.00    +0.000 A 
ATOM      4  C   UNL     1       1.691   5.877  20.391  0.00  0.00    +0.000 A 
ATOM      5  C   UNL     1       2.391   6.782  19.577  0.00  0.00    +0.000 A 
ATOM      6  C   UNL     1       3.564   6.292  18.974  0.00  0.00    +0.000 A 
ENDROOT
BRANCH   5   7
ATOM      7  N   UNL     1       1.941   8.064  19.358  0.00  0.00    +0.000 N 
ATOM      8  C   UNL     1       1.244   8.882  20.343  0.00  0.00    +0.000 C 
ATOM      9  C   UNL     1       0.302   9.709  19.480  0.00  0.00    +0.000 C 
ATOM     10  C   UNL     1       1.134  10.000  18.242  0.00  0.00    +0.000 C 
ATOM     11  C   UNL     1       2.023   8.765  18.076  0.00  0.00    +0.000 C 
ENDBRANCH   5   7
BRANCH   1  13
ATOM     12  C   UNL     1       5.795   5.133  17.410  0.00  0.00    +0.000 C 
ATOM     13  C   UNL     1       5.239   4.473  18.440  0.00  0.00    +0.000 C 
BRANCH  12  14
ATOM     14  C   UNL     1       6.969   4.613  16.668  0.00  0.00    +0.000 C 
ATOM     15  O   UNL     1       7.998   4.214  17.208  0.00  0.00    +0.000 OA
BRANCH  14  17
ATOM     16  O   UNL     1       6.084   3.832  14.554  0.00  0.00    +0.000 OA
ATOM     17  C   UNL     1       6.867   4.553  15.141  0.00  0.00    +0.000 C 
BRANCH  17  18
ATOM     18  O   UNL     1       7.762   5.369  14.556  0.00  0.00    +0.000 OA
ATOM     19  H   UNL     1       8.506   4.844  14.174  0.00  0.00    +0.000 HD
ENDBRANCH  17  18
ENDBRANCH  14  17
ENDBRANCH  12  14
BRANCH  13  20
ATOM     20  O   UNL     1       5.727   3.277  18.929  0.00  0.00    +0.000 OA
ATOM     21  H   UNL     1       5.255   3.053  19.757  0.00  0.00    +0.000 HD
ENDBRANCH  13  20
ENDBRANCH   1  13
TORSDOF 6
ENDMDL
MODEL 6
REMARK VINA RESULT:      -7.2      1.344      1.443
REMARK  Name = 
REMARK  6 active torsions:
REMARK  status: ('A' for Active; 'I' for Inactive)
REMARK    1  A    between atoms: C_2  and  O_3
REMARK    2  A    between atoms: C_2  and  C_4
REMARK    3  A    between atoms: C_4  and  C_6
REMARK    4  A    between atoms: C_7  and  O_8
REMARK    5  A    between atoms: C_7  and  C_9
REMARK    6  A    between atoms: C_13  and  N_14
REMARK                            x       y       z     vdW  Elec       q    Type
REMARK                         _______ _______ _______ _____ _____    ______ ____
ROOT
ATOM      1  C   UNL     1       5.138   5.149  15.893  0.00  0.00    +0.000 A 
ATOM      2  C   UNL     1       5.213   6.491  16.279  0.00  0.00    +0.000 A 
ATOM      3  C   UNL     1       4.498   6.947  17.382  0.00  0.00    +0.000 A 
ATOM      4  C   UNL     1       3.700   6.064  18.116  0.00  0.00    +0.000 A 
ATOM      5  C   UNL     1       3.596   4.703  17.785  0.00  0.00    +0.000 A 
ATOM      6  C   UNL     1       4.329   4.283  16.660  0.00  0.00    +0.000 A 
ENDROOT
BRANCH   5   7
ATOM      7  N   UNL     1       2.845   3.826  18.534  0.00  0.00    +0.000 N 
ATOM      8  C   UNL     1       1.415   3.600  18.367  0.00  0.00    +0.000 C 
ATOM      9  C   UNL     1       0.960   3.295  19.786  0.00  0.00    +0.000 C 
ATOM     10  C   UNL     1       2.113   2.484  20.352  0.00  0.00    +0.000 C 
ATOM     11  C   UNL     1       3.357   3.051  19.665  0.00  0.00    +0.000 C 
ENDBRANCH   5   7
BRANCH   1  13
ATOM     12  C   UNL     1       5.393   4.129  13.646  0.00  0.00    +0.000 C 
ATOM     13  C   UNL     1       5.949   4.651  14.752  0.00  0.00    +0.000 C 
BRANCH  12  14
ATOM     14  C   UNL     1       6.199   3.584  12.527  0.00  0.00    +0.000 C 
ATOM     15  O   UNL     1       7.345   3.945  12.270  0.00  0.00    +0.000 OA
BRANCH  14  17
ATOM     16  O   UNL     1       4.431   2.567  11.223  0.00  0.00    +0.000 OA
ATOM     17  C   UNL     1       5.560   2.491  11.665  0.00  0.00    +0.000 C 
BRANCH  17  18
ATOM     18  O   UNL     1       6.395   1.451  11.493  0.00  0.00    +0.000 OA
ATOM     19  H   UNL     1       7.325   1.722  11.684  0.00  0.00    +0.000 HD
ENDBRANCH  17  18
ENDBRANCH  14  17
ENDBRANCH  12  14
BRANCH  13  20
ATOM     20  O   UNL     1       7.312   4.768  14.935  0.00  0.00    +0.000 OA
ATOM     21  H   UNL     1       7.692   3.879  15.093  0.00  0.00    +0.000 HD
ENDBRANCH  13  20
ENDBRANCH   1  13
TORSDOF 6
ENDMDL
MODEL 7
REMARK VINA RESULT:      -7.1      1.761      2.448
REMARK  Name = 
REMARK  6 active torsions:
REMARK  status: ('A' for Active; 'I' for Inactive)
REMARK    1  A    between atoms: C_2  and  O_3
REMARK    2  A    between atoms: C_2  and  C_4
REMARK    3  A    between atoms: C_4  and  C_6
REMARK    4  A    between atoms: C_7  and  O_8
REMARK    5  A    between atoms: C_7  and  C_9
REMARK    6  A    between atoms: C_13  and  N_14
REMARK                            x       y       z     vdW  Elec       q    Type
REMARK                         _______ _______ _______ _____ _____    ______ ____
ROOT
ATOM      1  C   UNL     1       4.599   6.157  17.033  0.00  0.00    +0.000 A 
ATOM      2  C   UNL     1       4.010   7.419  17.167  0.00  0.00    +0.000 A 
ATOM      3  C   UNL     1       2.951   7.612  18.049  0.00  0.00    +0.000 A 
ATOM      4  C   UNL     1       2.470   6.544  18.812  0.00  0.00    +0.000 A 
ATOM      5  C   UNL     1       3.029   5.259  18.731  0.00  0.00    +0.000 A 
ATOM      6  C   UNL     1       4.092   5.103  17.824  0.00  0.00    +0.000 A 
ENDROOT
BRANCH   5   7
ATOM      7  N   UNL     1       2.582   4.219  19.516  0.00  0.00    +0.000 N 
ATOM      8  C   UNL     1       2.770   2.806  19.212  0.00  0.00    +0.000 C 
ATOM      9  C   UNL     1       1.513   2.173  19.791  0.00  0.00    +0.000 C 
ATOM     10  C   UNL     1       1.278   2.973  21.062  0.00  0.00    +0.000 C 
ATOM     11  C   UNL     1       1.782   4.380  20.730  0.00  0.00    +0.000 C 
ENDBRANCH   5   7
BRANCH   1  13
ATOM     12  C   UNL     1       5.715   5.194  15.039  0.00  0.00    +0.000 C 
ATOM     13  C   UNL     1       5.767   5.967  16.136  0.00  0.00    +0.000 C 
BRANCH  12  14
ATOM     14  C   UNL     1       6.893   4.960  14.169  0.00  0.00    +0.000 C 
ATOM     15  O   UNL     1       7.997   5.463  14.362  0.00  0.00    +0.000 OA
BRANCH  14  17
ATOM     16  O   UNL     1       7.190   4.227  11.881  0.00  0.00    +0.000 OA
ATOM     17  C   UNL     1       6.713   4.013  12.979  0.00  0.00    +0.000 C 
BRANCH  17  18
ATOM     18  O   UNL     1       5.952   2.953  13.303  0.00  0.00    +0.000 OA
ATOM     19  H   UNL     1       5.157   2.910  12.718  0.00  0.00    +0.000 HD
ENDBRANCH  17  18
ENDBRANCH  14  17
ENDBRANCH  12  14
BRANCH  13  20
ATOM     20  O   UNL     1       6.901   6.646  16.534  0.00  0.00    +0.000 OA
ATOM     21  H   UNL     1       7.409   6.086  17.157  0.00  0.00    +0.000 HD
ENDBRANCH  13  20
ENDBRANCH   1  13
TORSDOF 6
ENDMDL
MODEL 8
REMARK VINA RESULT:      -7.1      0.975      1.128
REMARK  Name = 
REMARK  6 active torsions:
REMARK  status: ('A' for Active; 'I' for Inactive)
REMARK    1  A    between atoms: C_2  and  O_3
REMARK    2  A    between atoms: C_2  and  C_4
REMARK    3  A    between atoms: C_4  and  C_6
REMARK    4  A    between atoms: C_7  and  O_8
REMARK    5  A    between atoms: C_7  and  C_9
REMARK    6  A    between atoms: C_13  and  N_14
REMARK                            x       y       z     vdW  Elec       q    Type
REMARK                         _______ _______ _______ _____ _____    ______ ____
ROOT
ATOM      1  C   UNL     1       5.587   4.945  16.651  0.00  0.00    +0.000 A 
ATOM      2  C   UNL     1       6.592   5.394  17.514  0.00  0.00    +0.000 A 
ATOM      3  C   UNL     1       6.424   5.312  18.893  0.00  0.00    +0.000 A 
ATOM      4  C   UNL     1       5.248   4.777  19.426  0.00  0.00    +0.000 A 
ATOM      5  C   UNL     1       4.210   4.298  18.611  0.00  0.00    +0.000 A 
ATOM      6  C   UNL     1       4.415   4.404  17.223  0.00  0.00    +0.000 A 
ENDROOT
BRANCH   5   7
ATOM      7  N   UNL     1       3.072   3.731  19.137  0.00  0.00    +0.000 N 
ATOM      8  C   UNL     1       1.711   4.084  18.755  0.00  0.00    +0.000 C 
ATOM      9  C   UNL     1       0.940   3.885  20.051  0.00  0.00    +0.000 C 
ATOM     10  C   UNL     1       1.597   2.656  20.658  0.00  0.00    +0.000 C 
ATOM     11  C   UNL     1       3.060   2.745  20.219  0.00  0.00    +0.000 C 
ENDBRANCH   5   7
BRANCH   1  13
ATOM     12  C   UNL     1       6.140   3.887  14.477  0.00  0.00    +0.000 C 
ATOM     13  C   UNL     1       5.793   4.978  15.181  0.00  0.00    +0.000 C 
BRANCH  12  14
ATOM     14  C   UNL     1       6.396   3.927  13.017  0.00  0.00    +0.000 C 
ATOM     15  O   UNL     1       7.280   4.603  12.495  0.00  0.00    +0.000 OA
BRANCH  14  17
ATOM     16  O   UNL     1       4.413   3.381  11.741  0.00  0.00    +0.000 OA
ATOM     17  C   UNL     1       5.517   3.047  12.122  0.00  0.00    +0.000 C 
BRANCH  17  18
ATOM     18  O   UNL     1       6.113   1.874  11.848  0.00  0.00    +0.000 OA
ATOM     19  H   UNL     1       6.402   1.848  10.904  0.00  0.00    +0.000 HD
ENDBRANCH  17  18
ENDBRANCH  14  17
ENDBRANCH  12  14
BRANCH  13  20
ATOM     20  O   UNL     1       5.604   6.222  14.611  0.00  0.00    +0.000 OA
ATOM     21  H   UNL     1       4.722   6.562  14.870  0.00  0.00    +0.000 HD
ENDBRANCH  13  20
ENDBRANCH   1  13
TORSDOF 6
ENDMDL
MODEL 9
REMARK VINA RESULT:      -7.1      3.201      5.088
REMARK  Name = 
REMARK  6 active torsions:
REMARK  status: ('A' for Active; 'I' for Inactive)
REMARK    1  A    between atoms: C_2  and  O_3
REMARK    2  A    between atoms: C_2  and  C_4
REMARK    3  A    between atoms: C_4  and  C_6
REMARK    4  A    between atoms: C_7  and  O_8
REMARK    5  A    between atoms: C_7  and  C_9
REMARK    6  A    between atoms: C_13  and  N_14
REMARK                            x       y       z     vdW  Elec       q    Type
REMARK                         _______ _______ _______ _____ _____    ______ ____
ROOT
ATOM      1  C   UNL     1       3.665   4.817  19.251  0.00  0.00    +0.000 A 
ATOM      2  C   UNL     1       2.966   3.919  20.064  0.00  0.00    +0.000 A 
ATOM      3  C   UNL     1       1.895   4.357  20.838  0.00  0.00    +0.000 A 
ATOM      4  C   UNL     1       1.507   5.699  20.806  0.00  0.00    +0.000 A 
ATOM      5  C   UNL     1       2.162   6.644  19.999  0.00  0.00    +0.000 A 
ATOM      6  C   UNL     1       3.243   6.165  19.238  0.00  0.00    +0.000 A 
ENDROOT
BRANCH   5   7
ATOM      7  N   UNL     1       1.751   7.956  19.935  0.00  0.00    +0.000 N 
ATOM      8  C   UNL     1       1.170   8.703  21.044  0.00  0.00    +0.000 C 
ATOM      9  C   UNL     1       0.200   9.640  20.340  0.00  0.00    +0.000 C 
ATOM     10  C   UNL     1       0.944  10.016  19.070  0.00  0.00    +0.000 C 
ATOM     11  C   UNL     1       1.764   8.772  18.720  0.00  0.00    +0.000 C 
ENDBRANCH   5   7
BRANCH   1  13
ATOM     12  C   UNL     1       4.854   4.662  17.081  0.00  0.00    +0.000 C 
ATOM     13  C   UNL     1       4.768   4.337  18.382  0.00  0.00    +0.000 C 
BRANCH  12  14
ATOM     14  C   UNL     1       5.926   4.143  16.197  0.00  0.00    +0.000 C 
ATOM     15  O   UNL     1       5.761   3.244  15.375  0.00  0.00    +0.000 OA
BRANCH  14  17
ATOM     16  O   UNL     1       7.639   5.768  15.662  0.00  0.00    +0.000 OA
ATOM     17  C   UNL     1       7.309   4.793  16.308  0.00  0.00    +0.000 C 
BRANCH  17  18
ATOM     18  O   UNL     1       8.093   4.134  17.179  0.00  0.00    +0.000 OA
ATOM     19  H   UNL     1       7.645   4.061  18.056  0.00  0.00    +0.000 HD
ENDBRANCH  17  18
ENDBRANCH  14  17
ENDBRANCH  12  14
BRANCH  13  20
ATOM     20  O   UNL     1       5.684   3.529  19.026  0.00  0.00    +0.000 OA
ATOM     21  H   UNL     1       5.205   2.878  19.578  0.00  0.00    +0.000 HD
ENDBRANCH  13  20
ENDBRANCH   1  13
TORSDOF 6
ENDMDL
