MODEL 1
REMARK VINA RESULT:      -6.7      0.000      0.000
REMARK  Name = 
REMARK  12 active torsions:
REMARK  status: ('A' for Active; 'I' for Inactive)
REMARK    1  A    between atoms: C_1  and  C_2
REMARK    2  A    between atoms: C_2  and  C_3
REMARK    3  A    between atoms: C_3  and  O_4
REMARK    4  A    between atoms: C_3  and  C_5
REMARK    5  A    between atoms: C_5  and  C_6
REMARK    6  A    between atoms: C_5  and  C_12
REMARK    7  A    between atoms: C_5  and  C_18
REMARK    8  A    between atoms: C_18  and  C_19
REMARK    9  A    between atoms: C_18  and  C_20
REMARK   10  A    between atoms: C_20  and  N_21
REMARK   11  A    between atoms: N_21  and  C_22
REMARK   12  A    between atoms: N_21  and  C_23
REMARK                            x       y       z     vdW  Elec       q    Type
REMARK                         _______ _______ _______ _____ _____    ______ ____
ROOT
ATOM      1  C   UNL     1       3.439   5.874  18.813  0.00  0.00    +0.000 C 
ENDROOT
BRANCH   1   2
ATOM      2  C   UNL     1       4.986   6.132  18.610  0.00  0.00    +0.000 A 
ATOM      3  C   UNL     1       5.464   6.975  17.581  0.00  0.00    +0.000 A 
ATOM      4  C   UNL     1       6.827   7.226  17.379  0.00  0.00    +0.000 A 
ATOM      5  C   UNL     1       7.772   6.573  18.158  0.00  0.00    +0.000 A 
ATOM      6  C   UNL     1       7.353   5.676  19.121  0.00  0.00    +0.000 A 
ATOM      7  C   UNL     1       5.983   5.464  19.344  0.00  0.00    +0.000 A 
ENDBRANCH   1   2
BRANCH   1   8
ATOM      8  C   UNL     1       2.617   7.264  18.805  0.00  0.00    +0.000 A 
ATOM      9  C   UNL     1       2.057   7.836  19.966  0.00  0.00    +0.000 A 
ATOM     10  C   UNL     1       1.293   9.011  19.938  0.00  0.00    +0.000 A 
ATOM     11  C   UNL     1       1.074   9.674  18.740  0.00  0.00    +0.000 A 
ATOM     12  C   UNL     1       1.659   9.181  17.581  0.00  0.00    +0.000 A 
ATOM     13  C   UNL     1       2.430   8.009  17.617  0.00  0.00    +0.000 A 
ENDBRANCH   1   8
BRANCH   1  14
ATOM     14  C   UNL     1       3.028   5.105  20.185  0.00  0.00    +0.000 C 
ATOM     15  C   UNL     1       1.629   5.365  20.792  0.00  0.00    +0.000 C 
BRANCH  14  16
ATOM     16  C   UNL     1       3.146   3.541  20.186  0.00  0.00    +0.000 C 
BRANCH  16  17
ATOM     17  N   UNL     1       1.917   2.748  20.307  0.00  0.00    +0.000 NA
ATOM     18  C   UNL     1       1.804   1.693  19.303  0.00  0.00    +0.000 C 
ATOM     19  C   UNL     1       1.780   2.202  21.653  0.00  0.00    +0.000 C 
ENDBRANCH  16  17
ENDBRANCH  14  16
ENDBRANCH   1  14
BRANCH   1  20
ATOM     20  C   UNL     1       2.970   5.041  17.491  0.00  0.00    +0.000 C 
BRANCH  20  22
ATOM     21  C   UNL     1       4.731   4.061  15.937  0.00  0.00    +0.000 C 
ATOM     22  C   UNL     1       3.731   3.770  17.058  0.00  0.00    +0.000 C 
ENDBRANCH  20  22
BRANCH  20  23
ATOM     23  O   UNL     1       1.597   4.618  17.564  0.00  0.00    +0.000 OA
ATOM     24  H   UNL     1       1.504   3.995  18.299  0.00  0.00    +0.000 HD
ENDBRANCH  20  23
ENDBRANCH   1  20
TORSDOF 8
ENDMDL
MODEL 2
REMARK VINA RESULT:      -6.6      0.071      1.409
REMARK  Name = 
REMARK  12 active torsions:
REMARK  status: ('A' for Active; 'I' for Inactive)
REMARK    1  A    between atoms: C_1  and  C_2
REMARK    2  A    between atoms: C_2  and  C_3
REMARK    3  A    between atoms: C_3  and  O_4
REMARK    4  A    between atoms: C_3  and  C_5
REMARK    5  A    between atoms: C_5  and  C_6
REMARK    6  A    between atoms: C_5  and  C_12
REMARK    7  A    between atoms: C_5  and  C_18
REMARK    8  A    between atoms: C_18  and  C_19
REMARK    9  A    between atoms: C_18  and  C_20
REMARK   10  A    between atoms: C_20  and  N_21
REMARK   11  A    between atoms: N_21  and  C_22
REMARK   12  A    between atoms: N_21  and  C_23
REMARK                            x       y       z     vdW  Elec       q    Type
REMARK                         _______ _______ _______ _____ _____    ______ ____
ROOT
ATOM      1  C   UNL     1       3.424   5.835  18.767  0.00  0.00    +0.000 C 
ENDROOT
BRANCH   1   2
ATOM      2  C   UNL     1       4.967   6.088  18.526  0.00  0.00    +0.000 A 
ATOM      3  C   UNL     1       5.948   5.496  19.353  0.00  0.00    +0.000 A 
ATOM      4  C   UNL     1       7.321   5.697  19.162  0.00  0.00    +0.000 A 
ATOM      5  C   UNL     1       7.761   6.570  18.177  0.00  0.00    +0.000 A 
ATOM      6  C   UNL     1       6.834   7.236  17.399  0.00  0.00    +0.000 A 
ATOM      7  C   UNL     1       5.462   6.994  17.570  0.00  0.00    +0.000 A 
ENDBRANCH   1   2
BRANCH   1   8
ATOM      8  C   UNL     1       2.605   7.226  18.762  0.00  0.00    +0.000 A 
ATOM      9  C   UNL     1       2.384   7.988  17.594  0.00  0.00    +0.000 A 
ATOM     10  C   UNL     1       1.724   9.224  17.612  0.00  0.00    +0.000 A 
ATOM     11  C   UNL     1       1.240   9.742  18.804  0.00  0.00    +0.000 A 
ATOM     12  C   UNL     1       1.380   8.997  19.967  0.00  0.00    +0.000 A 
ATOM     13  C   UNL     1       2.034   7.755  19.943  0.00  0.00    +0.000 A 
ENDBRANCH   1   8
BRANCH   1  14
ATOM     14  C   UNL     1       3.043   5.082  20.157  0.00  0.00    +0.000 C 
ATOM     15  C   UNL     1       1.668   5.368  20.804  0.00  0.00    +0.000 C 
BRANCH  14  16
ATOM     16  C   UNL     1       3.138   3.516  20.166  0.00  0.00    +0.000 C 
BRANCH  16  17
ATOM     17  N   UNL     1       1.900   2.744  20.322  0.00  0.00    +0.000 NA
ATOM     18  C   UNL     1       1.742   1.690  19.323  0.00  0.00    +0.000 C 
ATOM     19  C   UNL     1       1.792   2.201  21.673  0.00  0.00    +0.000 C 
ENDBRANCH  16  17
ENDBRANCH  14  16
ENDBRANCH   1  14
BRANCH   1  20
ATOM     20  C   UNL     1       2.924   4.988  17.466  0.00  0.00    +0.000 C 
BRANCH  20  22
ATOM     21  C   UNL     1       4.725   4.009  15.957  0.00  0.00    +0.000 C 
ATOM     22  C   UNL     1       3.673   3.712  17.028  0.00  0.00    +0.000 C 
ENDBRANCH  20  22
BRANCH  20  23
ATOM     23  O   UNL     1       1.552   4.568  17.575  0.00  0.00    +0.000 OA
ATOM     24  H   UNL     1       1.535   3.623  17.787  0.00  0.00    +0.000 HD
ENDBRANCH  20  23
ENDBRANCH   1  20
TORSDOF 8
ENDMDL
MODEL 3
REMARK VINA RESULT:      -6.5      2.557      5.410
REMARK  Name = 
REMARK  12 active torsions:
REMARK  status: ('A' for Active; 'I' for Inactive)
REMARK    1  A    between atoms: C_1  and  C_2
REMARK    2  A    between atoms: C_2  and  C_3
REMARK    3  A    between atoms: C_3  and  O_4
REMARK    4  A    between atoms: C_3  and  C_5
REMARK    5  A    between atoms: C_5  and  C_6
REMARK    6  A    between atoms: C_5  and  C_12
REMARK    7  A    between atoms: C_5  and  C_18
REMARK    8  A    between atoms: C_18  and  C_19
REMARK    9  A    between atoms: C_18  and  C_20
REMARK   10  A    between atoms: C_20  and  N_21
REMARK   11  A    between atoms: N_21  and  C_22
REMARK   12  A    between atoms: N_21  and  C_23
REMARK                            x       y       z     vdW  Elec       q    Type
REMARK                         _______ _______ _______ _____ _____    ______ ____
ROOT
ATOM      1  C   UNL     1       6.000   5.233  16.819  0.00  0.00    +0.000 C 
ENDROOT
BRANCH   1   2
ATOM      2  C   UNL     1       6.252   4.770  15.328  0.00  0.00    +0.000 A 
ATOM      3  C   UNL     1       7.360   5.238  14.588  0.00  0.00    +0.000 A 
ATOM      4  C   UNL     1       7.612   4.843  13.268  0.00  0.00    +0.000 A 
ATOM      5  C   UNL     1       6.710   4.019  12.610  0.00  0.00    +0.000 A 
ATOM      6  C   UNL     1       5.568   3.603  13.268  0.00  0.00    +0.000 A 
ATOM      7  C   UNL     1       5.348   3.970  14.604  0.00  0.00    +0.000 A 
ENDBRANCH   1   2
BRANCH   1   8
ATOM      8  C   UNL     1       5.133   4.136  17.626  0.00  0.00    +0.000 A 
ATOM      9  C   UNL     1       5.209   3.969  19.025  0.00  0.00    +0.000 A 
ATOM     10  C   UNL     1       4.497   2.972  19.707  0.00  0.00    +0.000 A 
ATOM     11  C   UNL     1       3.662   2.110  19.013  0.00  0.00    +0.000 A 
ATOM     12  C   UNL     1       3.509   2.278  17.643  0.00  0.00    +0.000 A 
ATOM     13  C   UNL     1       4.217   3.283  16.966  0.00  0.00    +0.000 A 
ENDBRANCH   1   8
BRANCH   1  14
ATOM     14  C   UNL     1       5.222   6.651  16.993  0.00  0.00    +0.000 C 
ATOM     15  C   UNL     1       4.453   7.229  15.782  0.00  0.00    +0.000 C 
BRANCH  14  16
ATOM     16  C   UNL     1       4.192   6.757  18.171  0.00  0.00    +0.000 C 
BRANCH  16  17
ATOM     17  N   UNL     1       2.769   6.898  17.843  0.00  0.00    +0.000 NA
ATOM     18  C   UNL     1       1.963   5.744  18.236  0.00  0.00    +0.000 C 
ATOM     19  C   UNL     1       2.224   8.129  18.406  0.00  0.00    +0.000 C 
ENDBRANCH  16  17
ENDBRANCH  14  16
ENDBRANCH   1  14
BRANCH   1  20
ATOM     20  C   UNL     1       7.478   5.268  17.509  0.00  0.00    +0.000 C 
BRANCH  20  22
ATOM     21  C   UNL     1       8.214   7.525  18.426  0.00  0.00    +0.000 C 
ATOM     22  C   UNL     1       7.731   6.115  18.774  0.00  0.00    +0.000 C 
ENDBRANCH  20  22
BRANCH  20  23
ATOM     23  O   UNL     1       7.950   3.956  17.866  0.00  0.00    +0.000 OA
ATOM     24  H   UNL     1       8.815   3.817  17.454  0.00  0.00    +0.000 HD
ENDBRANCH  20  23
ENDBRANCH   1  20
TORSDOF 8
ENDMDL
MODEL 4
REMARK VINA RESULT:      -6.5      2.615      5.526
REMARK  Name = 
REMARK  12 active torsions:
REMARK  status: ('A' for Active; 'I' for Inactive)
REMARK    1  A    between atoms: C_1  and  C_2
REMARK    2  A    between atoms: C_2  and  C_3
REMARK    3  A    between atoms: C_3  and  O_4
REMARK    4  A    between atoms: C_3  and  C_5
REMARK    5  A    between atoms: C_5  and  C_6
REMARK    6  A    between atoms: C_5  and  C_12
REMARK    7  A    between atoms: C_5  and  C_18
REMARK    8  A    between atoms: C_18  and  C_19
REMARK    9  A    between atoms: C_18  and  C_20
REMARK   10  A    between atoms: C_20  and  N_21
REMARK   11  A    between atoms: N_21  and  C_22
REMARK   12  A    between atoms: N_21  and  C_23
REMARK                            x       y       z     vdW  Elec       q    Type
REMARK                         _______ _______ _______ _____ _____    ______ ____
ROOT
ATOM      1  C   UNL     1       6.050   5.269  16.666  0.00  0.00    +0.000 C 
ENDROOT
BRANCH   1   2
ATOM      2  C   UNL     1       6.309   4.787  15.183  0.00  0.00    +0.000 A 
ATOM      3  C   UNL     1       7.389   5.289  14.422  0.00  0.00    +0.000 A 
ATOM      4  C   UNL     1       7.646   4.879  13.108  0.00  0.00    +0.000 A 
ATOM      5  C   UNL     1       6.776   4.001  12.476  0.00  0.00    +0.000 A 
ATOM      6  C   UNL     1       5.661   3.548  13.153  0.00  0.00    +0.000 A 
ATOM      7  C   UNL     1       5.436   3.932  14.484  0.00  0.00    +0.000 A 
ENDBRANCH   1   2
BRANCH   1   8
ATOM      8  C   UNL     1       5.186   4.178  17.485  0.00  0.00    +0.000 A 
ATOM      9  C   UNL     1       4.248   3.320  16.873  0.00  0.00    +0.000 A 
ATOM     10  C   UNL     1       3.459   2.419  17.602  0.00  0.00    +0.000 A 
ATOM     11  C   UNL     1       3.592   2.329  18.978  0.00  0.00    +0.000 A 
ATOM     12  C   UNL     1       4.547   3.110  19.615  0.00  0.00    +0.000 A 
ATOM     13  C   UNL     1       5.341   4.004  18.880  0.00  0.00    +0.000 A 
ENDBRANCH   1   8
BRANCH   1  14
ATOM     14  C   UNL     1       5.266   6.686  16.819  0.00  0.00    +0.000 C 
ATOM     15  C   UNL     1       4.443   7.211  15.619  0.00  0.00    +0.000 C 
BRANCH  14  16
ATOM     16  C   UNL     1       4.282   6.826  18.032  0.00  0.00    +0.000 C 
BRANCH  16  17
ATOM     17  N   UNL     1       2.846   6.948  17.756  0.00  0.00    +0.000 NA
ATOM     18  C   UNL     1       2.053   5.846  18.294  0.00  0.00    +0.000 C 
ATOM     19  C   UNL     1       2.333   8.233  18.222  0.00  0.00    +0.000 C 
ENDBRANCH  16  17
ENDBRANCH  14  16
ENDBRANCH   1  14
BRANCH   1  20
ATOM     20  C   UNL     1       7.526   5.320  17.361  0.00  0.00    +0.000 C 
BRANCH  20  22
ATOM     21  C   UNL     1       8.229   7.494  18.480  0.00  0.00    +0.000 C 
ATOM     22  C   UNL     1       7.736   6.062  18.697  0.00  0.00    +0.000 C 
ENDBRANCH  20  22
BRANCH  20  23
ATOM     23  O   UNL     1       8.067   4.008  17.600  0.00  0.00    +0.000 OA
ATOM     24  H   UNL     1       8.894   3.920  17.103  0.00  0.00    +0.000 HD
ENDBRANCH  20  23
ENDBRANCH   1  20
TORSDOF 8
ENDMDL
MODEL 5
REMARK VINA RESULT:      -6.5      1.631      5.047
REMARK  Name = 
REMARK  12 active torsions:
REMARK  status: ('A' for Active; 'I' for Inactive)
REMARK    1  A    between atoms: C_1  and  C_2
REMARK    2  A    between atoms: C_2  and  C_3
REMARK    3  A    between atoms: C_3  and  O_4
REMARK    4  A    between atoms: C_3  and  C_5
REMARK    5  A    between atoms: C_5  and  C_6
REMARK    6  A    between atoms: C_5  and  C_12
REMARK    7  A    between atoms: C_5  and  C_18
REMARK    8  A    between atoms: C_18  and  C_19
REMARK    9  A    between atoms: C_18  and  C_20
REMARK   10  A    between atoms: C_20  and  N_21
REMARK   11  A    between atoms: N_21  and  C_22
REMARK   12  A    between atoms: N_21  and  C_23
REMARK                            x       y       z     vdW  Elec       q    Type
REMARK                         _______ _______ _______ _____ _____    ______ ____
ROOT
ATOM      1  C   UNL     1       3.820   5.216  18.083  0.00  0.00    +0.000 C 
ENDROOT
BRANCH   1   2
ATOM      2  C   UNL     1       3.444   4.320  19.331  0.00  0.00    +0.000 A 
ATOM      3  C   UNL     1       4.122   3.110  19.601  0.00  0.00    +0.000 A 
ATOM      4  C   UNL     1       3.814   2.297  20.699  0.00  0.00    +0.000 A 
ATOM      5  C   UNL     1       2.753   2.631  21.530  0.00  0.00    +0.000 A 
ATOM      6  C   UNL     1       2.009   3.762  21.256  0.00  0.00    +0.000 A 
ATOM      7  C   UNL     1       2.353   4.592  20.177  0.00  0.00    +0.000 A 
ENDBRANCH   1   2
BRANCH   1   8
ATOM      8  C   UNL     1       5.313   5.813  18.232  0.00  0.00    +0.000 A 
ATOM      9  C   UNL     1       5.832   6.813  17.382  0.00  0.00    +0.000 A 
ATOM     10  C   UNL     1       7.151   7.280  17.482  0.00  0.00    +0.000 A 
ATOM     11  C   UNL     1       7.999   6.775  18.454  0.00  0.00    +0.000 A 
ATOM     12  C   UNL     1       7.512   5.835  19.352  0.00  0.00    +0.000 A 
ATOM     13  C   UNL     1       6.189   5.377  19.254  0.00  0.00    +0.000 A 
ENDBRANCH   1   8
BRANCH   1  14
ATOM     14  C   UNL     1       2.842   6.486  17.809  0.00  0.00    +0.000 C 
ATOM     15  C   UNL     1       1.349   6.221  17.507  0.00  0.00    +0.000 C 
BRANCH  14  16
ATOM     16  C   UNL     1       2.805   7.605  18.908  0.00  0.00    +0.000 C 
BRANCH  16  17
ATOM     17  N   UNL     1       1.675   8.541  18.913  0.00  0.00    +0.000 NA
ATOM     18  C   UNL     1       1.232   8.913  20.254  0.00  0.00    +0.000 C 
ATOM     19  C   UNL     1       1.977   9.726  18.117  0.00  0.00    +0.000 C 
ENDBRANCH  16  17
ENDBRANCH  14  16
ENDBRANCH   1  14
BRANCH   1  20
ATOM     20  C   UNL     1       3.846   4.190  16.816  0.00  0.00    +0.000 C 
BRANCH  20  22
ATOM     21  C   UNL     1       5.658   4.027  15.036  0.00  0.00    +0.000 C 
ATOM     22  C   UNL     1       5.163   3.509  16.388  0.00  0.00    +0.000 C 
ENDBRANCH  20  22
BRANCH  20  23
ATOM     23  O   UNL     1       2.922   3.098  16.971  0.00  0.00    +0.000 OA
ATOM     24  H   UNL     1       2.823   2.654  16.117  0.00  0.00    +0.000 HD
ENDBRANCH  20  23
ENDBRANCH   1  20
TORSDOF 8
ENDMDL
MODEL 6
REMARK VINA RESULT:      -6.4      1.631      4.989
REMARK  Name = 
REMARK  12 active torsions:
REMARK  status: ('A' for Active; 'I' for Inactive)
REMARK    1  A    between atoms: C_1  and  C_2
REMARK    2  A    between atoms: C_2  and  C_3
REMARK    3  A    between atoms: C_3  and  O_4
REMARK    4  A    between atoms: C_3  and  C_5
REMARK    5  A    between atoms: C_5  and  C_6
REMARK    6  A    between atoms: C_5  and  C_12
REMARK    7  A    between atoms: C_5  and  C_18
REMARK    8  A    between atoms: C_18  and  C_19
REMARK    9  A    between atoms: C_18  and  C_20
REMARK   10  A    between atoms: C_20  and  N_21
REMARK   11  A    between atoms: N_21  and  C_22
REMARK   12  A    between atoms: N_21  and  C_23
REMARK                            x       y       z     vdW  Elec       q    Type
REMARK                         _______ _______ _______ _____ _____    ______ ____
ROOT
ATOM      1  C   UNL     1       3.800   5.178  18.097  0.00  0.00    +0.000 C 
ENDROOT
BRANCH   1   2
ATOM      2  C   UNL     1       3.455   4.223  19.310  0.00  0.00    +0.000 A 
ATOM      3  C   UNL     1       2.432   4.542  20.232  0.00  0.00    +0.000 A 
ATOM      4  C   UNL     1       2.102   3.715  21.313  0.00  0.00    +0.000 A 
ATOM      5  C   UNL     1       2.844   2.568  21.558  0.00  0.00    +0.000 A 
ATOM      6  C   UNL     1       3.907   2.260  20.731  0.00  0.00    +0.000 A 
ATOM      7  C   UNL     1       4.203   3.073  19.625  0.00  0.00    +0.000 A 
ENDBRANCH   1   2
BRANCH   1   8
ATOM      8  C   UNL     1       5.288   5.785  18.247  0.00  0.00    +0.000 A 
ATOM      9  C   UNL     1       5.798   6.794  17.402  0.00  0.00    +0.000 A 
ATOM     10  C   UNL     1       7.113   7.270  17.503  0.00  0.00    +0.000 A 
ATOM     11  C   UNL     1       7.968   6.766  18.470  0.00  0.00    +0.000 A 
ATOM     12  C   UNL     1       7.489   5.817  19.363  0.00  0.00    +0.000 A 
ATOM     13  C   UNL     1       6.169   5.349  19.264  0.00  0.00    +0.000 A 
ENDBRANCH   1   8
BRANCH   1  14
ATOM     14  C   UNL     1       2.803   6.447  17.896  0.00  0.00    +0.000 C 
ATOM     15  C   UNL     1       1.336   6.181  17.485  0.00  0.00    +0.000 C 
BRANCH  14  16
ATOM     16  C   UNL     1       2.675   7.447  19.098  0.00  0.00    +0.000 C 
BRANCH  16  17
ATOM     17  N   UNL     1       1.662   8.506  19.020  0.00  0.00    +0.000 NA
ATOM     18  C   UNL     1       1.284   9.049  20.322  0.00  0.00    +0.000 C 
ATOM     19  C   UNL     1       2.090   9.570  18.116  0.00  0.00    +0.000 C 
ENDBRANCH  16  17
ENDBRANCH  14  16
ENDBRANCH   1  14
BRANCH   1  20
ATOM     20  C   UNL     1       3.815   4.209  16.785  0.00  0.00    +0.000 C 
BRANCH  20  22
ATOM     21  C   UNL     1       5.602   4.142  14.975  0.00  0.00    +0.000 C 
ATOM     22  C   UNL     1       5.130   3.558  16.308  0.00  0.00    +0.000 C 
ENDBRANCH  20  22
BRANCH  20  23
ATOM     23  O   UNL     1       2.902   3.103  16.905  0.00  0.00    +0.000 OA
ATOM     24  H   UNL     1       2.891   2.619  16.067  0.00  0.00    +0.000 HD
ENDBRANCH  20  23
ENDBRANCH   1  20
TORSDOF 8
ENDMDL
MODEL 7
REMARK VINA RESULT:      -6.4      1.610      4.889
REMARK  Name = 
REMARK  12 active torsions:
REMARK  status: ('A' for Active; 'I' for Inactive)
REMARK    1  A    between atoms: C_1  and  C_2
REMARK    2  A    between atoms: C_2  and  C_3
REMARK    3  A    between atoms: C_3  and  O_4
REMARK    4  A    between atoms: C_3  and  C_5
REMARK    5  A    between atoms: C_5  and  C_6
REMARK    6  A    between atoms: C_5  and  C_12
REMARK    7  A    between atoms: C_5  and  C_18
REMARK    8  A    between atoms: C_18  and  C_19
REMARK    9  A    between atoms: C_18  and  C_20
REMARK   10  A    between atoms: C_20  and  N_21
REMARK   11  A    between atoms: N_21  and  C_22
REMARK   12  A    between atoms: N_21  and  C_23
REMARK                            x       y       z     vdW  Elec       q    Type
REMARK                         _______ _______ _______ _____ _____    ______ ____
ROOT
ATOM      1  C   UNL     1       3.840   5.210  18.082  0.00  0.00    +0.000 C 
ENDROOT
BRANCH   1   2
ATOM      2  C   UNL     1       3.472   4.261  19.292  0.00  0.00    +0.000 A 
ATOM      3  C   UNL     1       2.474   4.614  20.229  0.00  0.00    +0.000 A 
ATOM      4  C   UNL     1       2.124   3.794  21.308  0.00  0.00    +0.000 A 
ATOM      5  C   UNL     1       2.821   2.615  21.535  0.00  0.00    +0.000 A 
ATOM      6  C   UNL     1       3.860   2.270  20.693  0.00  0.00    +0.000 A 
ATOM      7  C   UNL     1       4.175   3.079  19.589  0.00  0.00    +0.000 A 
ENDBRANCH   1   2
BRANCH   1   8
ATOM      8  C   UNL     1       5.350   5.764  18.223  0.00  0.00    +0.000 A 
ATOM      9  C   UNL     1       6.258   5.291  19.193  0.00  0.00    +0.000 A 
ATOM     10  C   UNL     1       7.547   5.822  19.345  0.00  0.00    +0.000 A 
ATOM     11  C   UNL     1       7.985   6.842  18.515  0.00  0.00    +0.000 A 
ATOM     12  C   UNL     1       7.146   7.297  17.506  0.00  0.00    +0.000 A 
ATOM     13  C   UNL     1       5.861   6.755  17.352  0.00  0.00    +0.000 A 
ENDBRANCH   1   8
BRANCH   1  14
ATOM     14  C   UNL     1       2.887   6.514  17.896  0.00  0.00    +0.000 C 
ATOM     15  C   UNL     1       1.407   6.302  17.499  0.00  0.00    +0.000 C 
BRANCH  14  16
ATOM     16  C   UNL     1       2.807   7.514  19.102  0.00  0.00    +0.000 C 
BRANCH  16  17
ATOM     17  N   UNL     1       1.656   8.421  19.182  0.00  0.00    +0.000 NA
ATOM     18  C   UNL     1       1.263   8.746  20.551  0.00  0.00    +0.000 C 
ATOM     19  C   UNL     1       1.894   9.634  18.407  0.00  0.00    +0.000 C 
ENDBRANCH  16  17
ENDBRANCH  14  16
ENDBRANCH   1  14
BRANCH   1  20
ATOM     20  C   UNL     1       3.811   4.249  16.764  0.00  0.00    +0.000 C 
BRANCH  20  22
ATOM     21  C   UNL     1       5.593   4.127  14.951  0.00  0.00    +0.000 C 
ATOM     22  C   UNL     1       5.097   3.549  16.278  0.00  0.00    +0.000 C 
ENDBRANCH  20  22
BRANCH  20  23
ATOM     23  O   UNL     1       2.855   3.180  16.882  0.00  0.00    +0.000 OA
ATOM     24  H   UNL     1       3.325   2.372  17.134  0.00  0.00    +0.000 HD
ENDBRANCH  20  23
ENDBRANCH   1  20
TORSDOF 8
ENDMDL
MODEL 8
REMARK VINA RESULT:      -6.4      1.266      4.636
REMARK  Name = 
REMARK  12 active torsions:
REMARK  status: ('A' for Active; 'I' for Inactive)
REMARK    1  A    between atoms: C_1  and  C_2
REMARK    2  A    between atoms: C_2  and  C_3
REMARK    3  A    between atoms: C_3  and  O_4
REMARK    4  A    between atoms: C_3  and  C_5
REMARK    5  A    between atoms: C_5  and  C_6
REMARK    6  A    between atoms: C_5  and  C_12
REMARK    7  A    between atoms: C_5  and  C_18
REMARK    8  A    between atoms: C_18  and  C_19
REMARK    9  A    between atoms: C_18  and  C_20
REMARK   10  A    between atoms: C_20  and  N_21
REMARK   11  A    between atoms: N_21  and  C_22
REMARK   12  A    between atoms: N_21  and  C_23
REMARK                            x       y       z     vdW  Elec       q    Type
REMARK                         _______ _______ _______ _____ _____    ______ ____
ROOT
ATOM      1  C   UNL     1       3.918   5.512  18.591  0.00  0.00    +0.000 C 
ENDROOT
BRANCH   1   2
ATOM      2  C   UNL     1       2.976   6.777  18.708  0.00  0.00    +0.000 A 
ATOM      3  C   UNL     1       2.757   7.638  17.609  0.00  0.00    +0.000 A 
ATOM      4  C   UNL     1       1.926   8.763  17.682  0.00  0.00    +0.000 A 
ATOM      5  C   UNL     1       1.342   9.113  18.891  0.00  0.00    +0.000 A 
ATOM      6  C   UNL     1       1.594   8.347  20.012  0.00  0.00    +0.000 A 
ATOM      7  C   UNL     1       2.395   7.198  19.919  0.00  0.00    +0.000 A 
ENDBRANCH   1   2
BRANCH   1   8
ATOM      8  C   UNL     1       5.469   5.953  18.512  0.00  0.00    +0.000 A 
ATOM      9  C   UNL     1       6.470   5.405  19.342  0.00  0.00    +0.000 A 
ATOM     10  C   UNL     1       7.802   5.840  19.307  0.00  0.00    +0.000 A 
ATOM     11  C   UNL     1       8.190   6.834  18.422  0.00  0.00    +0.000 A 
ATOM     12  C   UNL     1       7.251   7.358  17.543  0.00  0.00    +0.000 A 
ATOM     13  C   UNL     1       5.921   6.913  17.576  0.00  0.00    +0.000 A 
ENDBRANCH   1   8
BRANCH   1  14
ATOM     14  C   UNL     1       3.648   4.551  17.306  0.00  0.00    +0.000 C 
ATOM     15  C   UNL     1       4.806   4.295  16.315  0.00  0.00    +0.000 C 
BRANCH  14  16
ATOM     16  C   UNL     1       3.086   3.116  17.598  0.00  0.00    +0.000 C 
BRANCH  16  17
ATOM     17  N   UNL     1       1.635   2.907  17.526  0.00  0.00    +0.000 NA
ATOM     18  C   UNL     1       1.107   2.101  18.624  0.00  0.00    +0.000 C 
ATOM     19  C   UNL     1       0.929   4.181  17.429  0.00  0.00    +0.000 C 
ENDBRANCH  16  17
ENDBRANCH  14  16
ENDBRANCH   1  14
BRANCH   1  20
ATOM     20  C   UNL     1       3.726   4.707  19.996  0.00  0.00    +0.000 C 
BRANCH  20  22
ATOM     21  C   UNL     1       2.229   3.506  21.668  0.00  0.00    +0.000 C 
ATOM     22  C   UNL     1       2.357   4.692  20.708  0.00  0.00    +0.000 C 
ENDBRANCH  20  22
BRANCH  20  23
ATOM     23  O   UNL     1       4.079   3.316  19.888  0.00  0.00    +0.000 OA
ATOM     24  H   UNL     1       4.852   3.149  20.448  0.00  0.00    +0.000 HD
ENDBRANCH  20  23
ENDBRANCH   1  20
TORSDOF 8
ENDMDL
MODEL 9
REMARK VINA RESULT:      -6.4      1.791      4.895
REMARK  Name = 
REMARK  12 active torsions:
REMARK  status: ('A' for Active; 'I' for Inactive)
REMARK    1  A    between atoms: C_1  and  C_2
REMARK    2  A    between atoms: C_2  and  C_3
REMARK    3  A    between atoms: C_3  and  O_4
REMARK    4  A    between atoms: C_3  and  C_5
REMARK    5  A    between atoms: C_5  and  C_6
REMARK    6  A    between atoms: C_5  and  C_12
REMARK    7  A    between atoms: C_5  and  C_18
REMARK    8  A    between atoms: C_18  and  C_19
REMARK    9  A    between atoms: C_18  and  C_20
REMARK   10  A    between atoms: C_20  and  N_21
REMARK   11  A    between atoms: N_21  and  C_22
REMARK   12  A    between atoms: N_21  and  C_23
REMARK                            x       y       z     vdW  Elec       q    Type
REMARK                         _______ _______ _______ _____ _____    ______ ____
ROOT
ATOM      1  C   UNL     1       4.533   4.502  17.529  0.00  0.00    +0.000 C 
ENDROOT
BRANCH   1   2
ATOM      2  C   UNL     1       3.853   5.895  17.839  0.00  0.00    +0.000 A 
ATOM      3  C   UNL     1       2.970   6.057  18.931  0.00  0.00    +0.000 A 
ATOM      4  C   UNL     1       2.355   7.279  19.233  0.00  0.00    +0.000 A 
ATOM      5  C   UNL     1       2.542   8.372  18.399  0.00  0.00    +0.000 A 
ATOM      6  C   UNL     1       3.331   8.237  17.273  0.00  0.00    +0.000 A 
ATOM      7  C   UNL     1       3.977   7.020  17.003  0.00  0.00    +0.000 A 
ENDBRANCH   1   2
BRANCH   1   8
ATOM      8  C   UNL     1       5.336   4.552  16.129  0.00  0.00    +0.000 A 
ATOM      9  C   UNL     1       4.795   4.087  14.912  0.00  0.00    +0.000 A 
ATOM     10  C   UNL     1       5.524   4.079  13.714  0.00  0.00    +0.000 A 
ATOM     11  C   UNL     1       6.824   4.556  13.685  0.00  0.00    +0.000 A 
ATOM     12  C   UNL     1       7.376   5.081  14.846  0.00  0.00    +0.000 A 
ATOM     13  C   UNL     1       6.639   5.094  16.040  0.00  0.00    +0.000 A 
ENDBRANCH   1   8
BRANCH   1  14
ATOM     14  C   UNL     1       3.523   3.231  17.434  0.00  0.00    +0.000 C 
ATOM     15  C   UNL     1       4.008   1.856  17.951  0.00  0.00    +0.000 C 
BRANCH  14  16
ATOM     16  C   UNL     1       2.109   3.396  18.095  0.00  0.00    +0.000 C 
BRANCH  16  17
ATOM     17  N   UNL     1       1.742   2.494  19.192  0.00  0.00    +0.000 NA
ATOM     18  C   UNL     1       1.771   3.132  20.506  0.00  0.00    +0.000 C 
ATOM     19  C   UNL     1       0.445   1.873  18.944  0.00  0.00    +0.000 C 
ENDBRANCH  16  17
ENDBRANCH  14  16
ENDBRANCH   1  14
BRANCH   1  20
ATOM     20  C   UNL     1       5.646   4.301  18.705  0.00  0.00    +0.000 C 
BRANCH  20  22
ATOM     21  C   UNL     1       7.786   5.546  19.295  0.00  0.00    +0.000 C 
ATOM     22  C   UNL     1       6.261   5.524  19.417  0.00  0.00    +0.000 C 
ENDBRANCH  20  22
BRANCH  20  23
ATOM     23  O   UNL     1       5.168   3.474  19.781  0.00  0.00    +0.000 OA
ATOM     24  H   UNL     1       5.887   2.891  20.065  0.00  0.00    +0.000 HD
ENDBRANCH  20  23
ENDBRANCH   1  20
TORSDOF 8
ENDMDL
