MODEL 1
REMARK VINA RESULT:      -7.8      0.000      0.000
REMARK  Name = 
REMARK  11 active torsions:
REMARK  status: ('A' for Active; 'I' for Inactive)
REMARK    1  A    between atoms: C_1  and  O_2
REMARK    2  A    between atoms: O_2  and  C_3
REMARK    3  A    between atoms: C_5  and  C_6
REMARK    4  A    between atoms: C_6  and  N_7
REMARK    5  A    between atoms: N_10  and  C_11
REMARK    6  A    between atoms: C_11  and  C_12
REMARK    7  A    between atoms: C_16  and  N_17
REMARK    8  A    between atoms: C_22  and  O_23
REMARK    9  A    between atoms: O_23  and  C_24
REMARK   10  A    between atoms: C_25  and  O_26
REMARK   11  A    between atoms: O_26  and  C_27
REMARK                            x       y       z     vdW  Elec       q    Type
REMARK                         _______ _______ _______ _____ _____    ______ ____
ROOT
ATOM      1  N   UNL     1       6.958   7.448  16.831  0.00  0.00    +0.000 N 
ATOM      2  C   UNL     1       7.803   7.858  17.836  0.00  0.00    +0.000 C 
ATOM      3  O   UNL     1       8.314   7.115  18.653  0.00  0.00    +0.000 OA
ATOM      4  N   UNL     1       7.994   9.221  17.814  0.00  0.00    +0.000 N 
ATOM      5  H   UNL     1       6.276   8.135  16.547  0.00  0.00    +0.000 HD
ATOM      6  H   UNL     1       7.918   9.657  16.907  0.00  0.00    +0.000 HD
ENDROOT
BRANCH   1   7
ATOM      7  C   UNL     1       6.516   6.067  16.752  0.00  0.00    +0.000 C 
BRANCH   7  10
ATOM      8  C   UNL     1       3.063   6.325  18.339  0.00  0.00    +0.000 A 
ATOM      9  C   UNL     1       4.332   6.688  17.842  0.00  0.00    +0.000 A 
ATOM     10  C   UNL     1       5.334   5.744  17.636  0.00  0.00    +0.000 A 
ATOM     11  C   UNL     1       5.102   4.450  18.102  0.00  0.00    +0.000 A 
ATOM     12  C   UNL     1       3.876   4.075  18.685  0.00  0.00    +0.000 A 
ATOM     13  C   UNL     1       2.818   5.008  18.787  0.00  0.00    +0.000 A 
BRANCH   8  15
ATOM     14  C   UNL     1       2.386   8.499  17.708  0.00  0.00    +0.000 C 
ATOM     15  O   UNL     1       2.062   7.266  18.365  0.00  0.00    +0.000 OA
ENDBRANCH   8  15
BRANCH  12  16
ATOM     16  O   UNL     1       3.881   2.742  19.029  0.00  0.00    +0.000 OA
ATOM     17  C   UNL     1       3.413   1.769  18.109  0.00  0.00    +0.000 C 
ENDBRANCH  12  16
BRANCH  13  18
ATOM     18  O   UNL     1       1.647   4.517  19.291  0.00  0.00    +0.000 OA
ATOM     19  C   UNL     1       1.392   4.448  20.681  0.00  0.00    +0.000 C 
ENDBRANCH  13  18
ENDBRANCH   7  10
ENDBRANCH   1   7
BRANCH   4  20
ATOM     20  C   UNL     1       8.902   9.833  18.765  0.00  0.00    +0.000 C 
BRANCH  20  21
ATOM     21  C   UNL     1       9.426  11.163  18.275  0.00  0.00    +0.000 A 
ATOM     22  C   UNL     1      10.774  11.317  17.912  0.00  0.00    +0.000 A 
ATOM     23  C   UNL     1      11.272  12.562  17.514  0.00  0.00    +0.000 A 
ATOM     24  C   UNL     1      10.435  13.675  17.474  0.00  0.00    +0.000 A 
ATOM     25  C   UNL     1       9.090  13.533  17.835  0.00  0.00    +0.000 A 
ATOM     26  C   UNL     1       8.583  12.287  18.235  0.00  0.00    +0.000 A 
BRANCH  25  27
ATOM     27  N   UNL     1       8.203  14.707  17.801  0.00  0.00    +0.000 N 
ATOM     28  O   UNL     1       8.712  15.814  18.004  0.00  0.00    +0.000 OA
ATOM     29  O   UNL     1       7.003  14.514  17.569  0.00  0.00    +0.000 OA
ENDBRANCH  25  27
ENDBRANCH  20  21
ENDBRANCH   4  20
TORSDOF 8
ENDMDL
MODEL 2
REMARK VINA RESULT:      -7.6      0.848      2.457
REMARK  Name = 
REMARK  11 active torsions:
REMARK  status: ('A' for Active; 'I' for Inactive)
REMARK    1  A    between atoms: C_1  and  O_2
REMARK    2  A    between atoms: O_2  and  C_3
REMARK    3  A    between atoms: C_5  and  C_6
REMARK    4  A    between atoms: C_6  and  N_7
REMARK    5  A    between atoms: N_10  and  C_11
REMARK    6  A    between atoms: C_11  and  C_12
REMARK    7  A    between atoms: C_16  and  N_17
REMARK    8  A    between atoms: C_22  and  O_23
REMARK    9  A    between atoms: O_23  and  C_24
REMARK   10  A    between atoms: C_25  and  O_26
REMARK   11  A    between atoms: O_26  and  C_27
REMARK                            x       y       z     vdW  Elec       q    Type
REMARK                         _______ _______ _______ _____ _____    ______ ____
ROOT
ATOM      1  N   UNL     1       7.005   7.085  16.894  0.00  0.00    +0.000 N 
ATOM      2  C   UNL     1       7.807   7.567  17.902  0.00  0.00    +0.000 C 
ATOM      3  O   UNL     1       8.355   6.875  18.738  0.00  0.00    +0.000 OA
ATOM      4  N   UNL     1       7.907   8.940  17.857  0.00  0.00    +0.000 N 
ATOM      5  H   UNL     1       6.283   7.720  16.589  0.00  0.00    +0.000 HD
ATOM      6  H   UNL     1       7.815   9.354  16.942  0.00  0.00    +0.000 HD
ENDROOT
BRANCH   1   7
ATOM      7  C   UNL     1       6.657   5.677  16.835  0.00  0.00    +0.000 C 
BRANCH   7  10
ATOM      8  C   UNL     1       3.432   3.721  17.364  0.00  0.00    +0.000 A 
ATOM      9  C   UNL     1       4.693   4.100  16.860  0.00  0.00    +0.000 A 
ATOM     10  C   UNL     1       5.184   5.394  17.016  0.00  0.00    +0.000 A 
ATOM     11  C   UNL     1       4.313   6.352  17.532  0.00  0.00    +0.000 A 
ATOM     12  C   UNL     1       3.013   6.024  17.964  0.00  0.00    +0.000 A 
ATOM     13  C   UNL     1       2.559   4.687  17.912  0.00  0.00    +0.000 A 
BRANCH   8  15
ATOM     14  C   UNL     1       3.587   1.608  18.410  0.00  0.00    +0.000 C 
ATOM     15  O   UNL     1       3.070   2.396  17.329  0.00  0.00    +0.000 OA
ENDBRANCH   8  15
BRANCH  12  16
ATOM     16  O   UNL     1       2.367   7.132  18.465  0.00  0.00    +0.000 OA
ATOM     17  C   UNL     1       2.312   7.349  19.866  0.00  0.00    +0.000 C 
ENDBRANCH  12  16
BRANCH  13  18
ATOM     18  O   UNL     1       1.315   4.467  18.433  0.00  0.00    +0.000 OA
ATOM     19  C   UNL     1       1.121   3.926  19.726  0.00  0.00    +0.000 C 
ENDBRANCH  13  18
ENDBRANCH   7  10
ENDBRANCH   1   7
BRANCH   4  20
ATOM     20  C   UNL     1       8.759   9.627  18.809  0.00  0.00    +0.000 C 
BRANCH  20  21
ATOM     21  C   UNL     1       9.252  10.953  18.276  0.00  0.00    +0.000 A 
ATOM     22  C   UNL     1      10.569  11.098  17.812  0.00  0.00    +0.000 A 
ATOM     23  C   UNL     1      11.043  12.339  17.373  0.00  0.00    +0.000 A 
ATOM     24  C   UNL     1      10.210  13.456  17.390  0.00  0.00    +0.000 A 
ATOM     25  C   UNL     1       8.896  13.323  17.851  0.00  0.00    +0.000 A 
ATOM     26  C   UNL     1       8.414  12.081  18.293  0.00  0.00    +0.000 A 
BRANCH  25  27
ATOM     27  N   UNL     1       8.014  14.501  17.880  0.00  0.00    +0.000 N 
ATOM     28  O   UNL     1       8.474  15.547  18.349  0.00  0.00    +0.000 OA
ATOM     29  O   UNL     1       6.869  14.374  17.429  0.00  0.00    +0.000 OA
ENDBRANCH  25  27
ENDBRANCH  20  21
ENDBRANCH   4  20
TORSDOF 8
ENDMDL
MODEL 3
REMARK VINA RESULT:      -7.6      1.922      3.275
REMARK  Name = 
REMARK  11 active torsions:
REMARK  status: ('A' for Active; 'I' for Inactive)
REMARK    1  A    between atoms: C_1  and  O_2
REMARK    2  A    between atoms: O_2  and  C_3
REMARK    3  A    between atoms: C_5  and  C_6
REMARK    4  A    between atoms: C_6  and  N_7
REMARK    5  A    between atoms: N_10  and  C_11
REMARK    6  A    between atoms: C_11  and  C_12
REMARK    7  A    between atoms: C_16  and  N_17
REMARK    8  A    between atoms: C_22  and  O_23
REMARK    9  A    between atoms: O_23  and  C_24
REMARK   10  A    between atoms: C_25  and  O_26
REMARK   11  A    between atoms: O_26  and  C_27
REMARK                            x       y       z     vdW  Elec       q    Type
REMARK                         _______ _______ _______ _____ _____    ______ ____
ROOT
ATOM      1  N   UNL     1       6.177   7.036  16.348  0.00  0.00    +0.000 N 
ATOM      2  C   UNL     1       7.155   7.148  17.309  0.00  0.00    +0.000 C 
ATOM      3  O   UNL     1       7.623   6.212  17.929  0.00  0.00    +0.000 OA
ATOM      4  N   UNL     1       7.538   8.458  17.493  0.00  0.00    +0.000 N 
ATOM      5  H   UNL     1       5.579   7.844  16.259  0.00  0.00    +0.000 HD
ATOM      6  H   UNL     1       7.447   9.056  16.686  0.00  0.00    +0.000 HD
ENDROOT
BRANCH   1   7
ATOM      7  C   UNL     1       5.537   5.759  16.089  0.00  0.00    +0.000 C 
BRANCH   7  10
ATOM      8  C   UNL     1       3.511   3.784  18.640  0.00  0.00    +0.000 A 
ATOM      9  C   UNL     1       4.262   4.097  17.488  0.00  0.00    +0.000 A 
ATOM     10  C   UNL     1       4.433   5.411  17.061  0.00  0.00    +0.000 A 
ATOM     11  C   UNL     1       3.690   6.397  17.708  0.00  0.00    +0.000 A 
ATOM     12  C   UNL     1       2.860   6.106  18.809  0.00  0.00    +0.000 A 
ATOM     13  C   UNL     1       2.780   4.788  19.313  0.00  0.00    +0.000 A 
BRANCH   8  15
ATOM     14  C   UNL     1       4.475   2.235  20.141  0.00  0.00    +0.000 C 
ATOM     15  O   UNL     1       3.514   2.493  19.108  0.00  0.00    +0.000 OA
ENDBRANCH   8  15
BRANCH  12  16
ATOM     16  O   UNL     1       2.266   7.249  19.293  0.00  0.00    +0.000 OA
ATOM     17  C   UNL     1       2.058   8.359  18.435  0.00  0.00    +0.000 C 
ENDBRANCH  12  16
BRANCH  13  18
ATOM     18  O   UNL     1       2.012   4.632  20.433  0.00  0.00    +0.000 OA
ATOM     19  C   UNL     1       0.862   3.808  20.452  0.00  0.00    +0.000 C 
ENDBRANCH  13  18
ENDBRANCH   7  10
ENDBRANCH   1   7
BRANCH   4  20
ATOM     20  C   UNL     1       8.602   8.769  18.428  0.00  0.00    +0.000 C 
BRANCH  20  21
ATOM     21  C   UNL     1       8.916  10.247  18.459  0.00  0.00    +0.000 A 
ATOM     22  C   UNL     1       8.218  11.151  17.642  0.00  0.00    +0.000 A 
ATOM     23  C   UNL     1       8.549  12.509  17.629  0.00  0.00    +0.000 A 
ATOM     24  C   UNL     1       9.583  12.990  18.430  0.00  0.00    +0.000 A 
ATOM     25  C   UNL     1      10.286  12.098  19.248  0.00  0.00    +0.000 A 
ATOM     26  C   UNL     1       9.959  10.733  19.266  0.00  0.00    +0.000 A 
BRANCH  25  27
ATOM     27  N   UNL     1      11.384  12.598  20.090  0.00  0.00    +0.000 N 
ATOM     28  O   UNL     1      12.329  11.834  20.311  0.00  0.00    +0.000 OA
ATOM     29  O   UNL     1      11.296  13.754  20.523  0.00  0.00    +0.000 OA
ENDBRANCH  25  27
ENDBRANCH  20  21
ENDBRANCH   4  20
TORSDOF 8
ENDMDL
MODEL 4
REMARK VINA RESULT:      -7.3      5.120      7.746
REMARK  Name = 
REMARK  11 active torsions:
REMARK  status: ('A' for Active; 'I' for Inactive)
REMARK    1  A    between atoms: C_1  and  O_2
REMARK    2  A    between atoms: O_2  and  C_3
REMARK    3  A    between atoms: C_5  and  C_6
REMARK    4  A    between atoms: C_6  and  N_7
REMARK    5  A    between atoms: N_10  and  C_11
REMARK    6  A    between atoms: C_11  and  C_12
REMARK    7  A    between atoms: C_16  and  N_17
REMARK    8  A    between atoms: C_22  and  O_23
REMARK    9  A    between atoms: O_23  and  C_24
REMARK   10  A    between atoms: C_25  and  O_26
REMARK   11  A    between atoms: O_26  and  C_27
REMARK                            x       y       z     vdW  Elec       q    Type
REMARK                         _______ _______ _______ _____ _____    ______ ____
ROOT
ATOM      1  N   UNL     1       1.827   8.509  17.633  0.00  0.00    +0.000 N 
ATOM      2  C   UNL     1       1.461   9.787  17.990  0.00  0.00    +0.000 C 
ATOM      3  O   UNL     1       2.243  10.674  18.273  0.00  0.00    +0.000 OA
ATOM      4  N   UNL     1       0.092   9.938  18.000  0.00  0.00    +0.000 N 
ATOM      5  H   UNL     1       1.156   7.796  17.874  0.00  0.00    +0.000 HD
ATOM      6  H   UNL     1      -0.416   9.347  17.360  0.00  0.00    +0.000 HD
ENDROOT
BRANCH   1   7
ATOM      7  C   UNL     1       3.217   8.096  17.687  0.00  0.00    +0.000 C 
BRANCH   7  10
ATOM      8  C   UNL     1       4.946   4.789  18.454  0.00  0.00    +0.000 A 
ATOM      9  C   UNL     1       4.699   6.072  17.924  0.00  0.00    +0.000 A 
ATOM     10  C   UNL     1       3.415   6.610  17.878  0.00  0.00    +0.000 A 
ATOM     11  C   UNL     1       2.356   5.767  18.210  0.00  0.00    +0.000 A 
ATOM     12  C   UNL     1       2.562   4.448  18.660  0.00  0.00    +0.000 A 
ATOM     13  C   UNL     1       3.874   3.945  18.817  0.00  0.00    +0.000 A 
BRANCH   8  15
ATOM     14  C   UNL     1       7.103   4.620  17.505  0.00  0.00    +0.000 C 
ATOM     15  O   UNL     1       6.246   4.378  18.628  0.00  0.00    +0.000 OA
ENDBRANCH   8  15
BRANCH  12  16
ATOM     16  O   UNL     1       1.366   3.837  18.958  0.00  0.00    +0.000 OA
ATOM     17  C   UNL     1       0.874   3.850  20.288  0.00  0.00    +0.000 C 
ENDBRANCH  12  16
BRANCH  13  18
ATOM     18  O   UNL     1       3.961   2.684  19.337  0.00  0.00    +0.000 OA
ATOM     19  C   UNL     1       3.749   1.526  18.553  0.00  0.00    +0.000 C 
ENDBRANCH  13  18
ENDBRANCH   7  10
ENDBRANCH   1   7
BRANCH   4  20
ATOM     20  C   UNL     1      -0.482  11.236  18.298  0.00  0.00    +0.000 C 
BRANCH  20  21
ATOM     21  C   UNL     1      -0.655  11.452  19.784  0.00  0.00    +0.000 A 
ATOM     22  C   UNL     1      -0.956  12.724  20.297  0.00  0.00    +0.000 A 
ATOM     23  C   UNL     1      -1.059  12.936  21.675  0.00  0.00    +0.000 A 
ATOM     24  C   UNL     1      -0.863  11.883  22.566  0.00  0.00    +0.000 A 
ATOM     25  C   UNL     1      -0.562  10.611  22.065  0.00  0.00    +0.000 A 
ATOM     26  C   UNL     1      -0.457  10.391  20.683  0.00  0.00    +0.000 A 
BRANCH  25  27
ATOM     27  N   UNL     1      -0.345   9.496  23.002  0.00  0.00    +0.000 N 
ATOM     28  O   UNL     1      -0.790   8.388  22.684  0.00  0.00    +0.000 OA
ATOM     29  O   UNL     1       0.271   9.734  24.047  0.00  0.00    +0.000 OA
ENDBRANCH  25  27
ENDBRANCH  20  21
ENDBRANCH   4  20
TORSDOF 8
ENDMDL
MODEL 5
REMARK VINA RESULT:      -7.3      2.343      9.448
REMARK  Name = 
REMARK  11 active torsions:
REMARK  status: ('A' for Active; 'I' for Inactive)
REMARK    1  A    between atoms: C_1  and  O_2
REMARK    2  A    between atoms: O_2  and  C_3
REMARK    3  A    between atoms: C_5  and  C_6
REMARK    4  A    between atoms: C_6  and  N_7
REMARK    5  A    between atoms: N_10  and  C_11
REMARK    6  A    between atoms: C_11  and  C_12
REMARK    7  A    between atoms: C_16  and  N_17
REMARK    8  A    between atoms: C_22  and  O_23
REMARK    9  A    between atoms: O_23  and  C_24
REMARK   10  A    between atoms: C_25  and  O_26
REMARK   11  A    between atoms: O_26  and  C_27
REMARK                            x       y       z     vdW  Elec       q    Type
REMARK                         _______ _______ _______ _____ _____    ______ ____
ROOT
ATOM      1  N   UNL     1       7.842   8.687  17.899  0.00  0.00    +0.000 N 
ATOM      2  C   UNL     1       7.434   7.394  17.660  0.00  0.00    +0.000 C 
ATOM      3  O   UNL     1       7.859   6.418  18.248  0.00  0.00    +0.000 OA
ATOM      4  N   UNL     1       6.488   7.338  16.661  0.00  0.00    +0.000 N 
ATOM      5  H   UNL     1       7.790   9.299  17.099  0.00  0.00    +0.000 HD
ATOM      6  H   UNL     1       5.907   8.156  16.565  0.00  0.00    +0.000 HD
ENDROOT
BRANCH   1   7
ATOM      7  C   UNL     1       8.929   8.961  18.821  0.00  0.00    +0.000 C 
BRANCH   7  10
ATOM      8  C   UNL     1       8.749  12.742  18.395  0.00  0.00    +0.000 A 
ATOM      9  C   UNL     1       8.898  11.373  18.094  0.00  0.00    +0.000 A 
ATOM     10  C   UNL     1       9.163  10.430  19.084  0.00  0.00    +0.000 A 
ATOM     11  C   UNL     1       9.451  10.908  20.362  0.00  0.00    +0.000 A 
ATOM     12  C   UNL     1       9.396  12.280  20.677  0.00  0.00    +0.000 A 
ATOM     13  C   UNL     1       9.014  13.223  19.697  0.00  0.00    +0.000 A 
BRANCH   8  15
ATOM     14  C   UNL     1       6.976  14.063  17.561  0.00  0.00    +0.000 C 
ATOM     15  O   UNL     1       8.325  13.600  17.409  0.00  0.00    +0.000 OA
ENDBRANCH   8  15
BRANCH  12  16
ATOM     16  O   UNL     1       9.685  12.491  22.006  0.00  0.00    +0.000 OA
ATOM     17  C   UNL     1       8.651  12.426  22.976  0.00  0.00    +0.000 C 
ENDBRANCH  12  16
BRANCH  13  18
ATOM     18  O   UNL     1       8.914  14.515  20.130  0.00  0.00    +0.000 OA
ATOM     19  C   UNL     1       9.970  15.445  19.985  0.00  0.00    +0.000 C 
ENDBRANCH  13  18
ENDBRANCH   7  10
ENDBRANCH   1   7
BRANCH   4  20
ATOM     20  C   UNL     1       5.896   6.062  16.307  0.00  0.00    +0.000 C 
BRANCH  20  21
ATOM     21  C   UNL     1       4.558   5.852  16.978  0.00  0.00    +0.000 A 
ATOM     22  C   UNL     1       3.867   6.926  17.561  0.00  0.00    +0.000 A 
ATOM     23  C   UNL     1       2.657   6.722  18.231  0.00  0.00    +0.000 A 
ATOM     24  C   UNL     1       2.116   5.442  18.333  0.00  0.00    +0.000 A 
ATOM     25  C   UNL     1       2.797   4.363  17.757  0.00  0.00    +0.000 A 
ATOM     26  C   UNL     1       4.012   4.561  17.082  0.00  0.00    +0.000 A 
BRANCH  25  27
ATOM     27  N   UNL     1       2.235   3.008  17.868  0.00  0.00    +0.000 N 
ATOM     28  O   UNL     1       3.010   2.055  17.732  0.00  0.00    +0.000 OA
ATOM     29  O   UNL     1       1.023   2.904  18.095  0.00  0.00    +0.000 OA
ENDBRANCH  25  27
ENDBRANCH  20  21
ENDBRANCH   4  20
TORSDOF 8
ENDMDL
MODEL 6
REMARK VINA RESULT:      -7.2      5.267      8.990
REMARK  Name = 
REMARK  11 active torsions:
REMARK  status: ('A' for Active; 'I' for Inactive)
REMARK    1  A    between atoms: C_1  and  O_2
REMARK    2  A    between atoms: O_2  and  C_3
REMARK    3  A    between atoms: C_5  and  C_6
REMARK    4  A    between atoms: C_6  and  N_7
REMARK    5  A    between atoms: N_10  and  C_11
REMARK    6  A    between atoms: C_11  and  C_12
REMARK    7  A    between atoms: C_16  and  N_17
REMARK    8  A    between atoms: C_22  and  O_23
REMARK    9  A    between atoms: O_23  and  C_24
REMARK   10  A    between atoms: C_25  and  O_26
REMARK   11  A    between atoms: O_26  and  C_27
REMARK                            x       y       z     vdW  Elec       q    Type
REMARK                         _______ _______ _______ _____ _____    ______ ____
ROOT
ATOM      1  N   UNL     1       1.233   9.749  18.884  0.00  0.00    +0.000 N 
ATOM      2  C   UNL     1       1.633   8.605  19.537  0.00  0.00    +0.000 C 
ATOM      3  O   UNL     1       1.385   8.353  20.700  0.00  0.00    +0.000 OA
ATOM      4  N   UNL     1       2.362   7.779  18.711  0.00  0.00    +0.000 N 
ATOM      5  H   UNL     1       1.848  10.048  18.143  0.00  0.00    +0.000 HD
ATOM      6  H   UNL     1       2.139   7.838  17.729  0.00  0.00    +0.000 HD
ENDROOT
BRANCH   1   7
ATOM      7  C   UNL     1       0.565  10.817  19.605  0.00  0.00    +0.000 C 
BRANCH   7  10
ATOM      8  C   UNL     1      -2.714  10.500  17.694  0.00  0.00    +0.000 A 
ATOM      9  C   UNL     1      -1.336  10.465  17.991  0.00  0.00    +0.000 A 
ATOM     10  C   UNL     1      -0.802  11.169  19.067  0.00  0.00    +0.000 A 
ATOM     11  C   UNL     1      -1.646  12.055  19.736  0.00  0.00    +0.000 A 
ATOM     12  C   UNL     1      -3.010  12.180  19.406  0.00  0.00    +0.000 A 
ATOM     13  C   UNL     1      -3.575  11.377  18.390  0.00  0.00    +0.000 A 
BRANCH   8  15
ATOM     14  C   UNL     1      -2.879  10.030  15.384  0.00  0.00    +0.000 C 
ATOM     15  O   UNL     1      -3.210   9.657  16.729  0.00  0.00    +0.000 OA
ENDBRANCH   8  15
BRANCH  12  16
ATOM     16  O   UNL     1      -3.634  13.087  20.232  0.00  0.00    +0.000 OA
ATOM     17  C   UNL     1      -4.104  12.680  21.507  0.00  0.00    +0.000 C 
ENDBRANCH  12  16
BRANCH  13  18
ATOM     18  O   UNL     1      -4.922  11.520  18.208  0.00  0.00    +0.000 OA
ATOM     19  C   UNL     1      -5.467  12.228  17.111  0.00  0.00    +0.000 C 
ENDBRANCH  13  18
ENDBRANCH   7  10
ENDBRANCH   1   7
BRANCH   4  20
ATOM     20  C   UNL     1       2.822   6.497  19.207  0.00  0.00    +0.000 C 
BRANCH  20  21
ATOM     21  C   UNL     1       3.633   5.747  18.175  0.00  0.00    +0.000 A 
ATOM     22  C   UNL     1       3.210   4.497  17.694  0.00  0.00    +0.000 A 
ATOM     23  C   UNL     1       3.989   3.777  16.783  0.00  0.00    +0.000 A 
ATOM     24  C   UNL     1       5.205   4.290  16.337  0.00  0.00    +0.000 A 
ATOM     25  C   UNL     1       5.637   5.535  16.811  0.00  0.00    +0.000 A 
ATOM     26  C   UNL     1       4.860   6.263  17.725  0.00  0.00    +0.000 A 
BRANCH  25  27
ATOM     27  N   UNL     1       6.925   6.079  16.349  0.00  0.00    +0.000 N 
ATOM     28  O   UNL     1       7.479   5.510  15.402  0.00  0.00    +0.000 OA
ATOM     29  O   UNL     1       7.372   7.073  16.934  0.00  0.00    +0.000 OA
ENDBRANCH  25  27
ENDBRANCH  20  21
ENDBRANCH   4  20
TORSDOF 8
ENDMDL
MODEL 7
REMARK VINA RESULT:      -7.2      5.406      9.008
REMARK  Name = 
REMARK  11 active torsions:
REMARK  status: ('A' for Active; 'I' for Inactive)
REMARK    1  A    between atoms: C_1  and  O_2
REMARK    2  A    between atoms: O_2  and  C_3
REMARK    3  A    between atoms: C_5  and  C_6
REMARK    4  A    between atoms: C_6  and  N_7
REMARK    5  A    between atoms: N_10  and  C_11
REMARK    6  A    between atoms: C_11  and  C_12
REMARK    7  A    between atoms: C_16  and  N_17
REMARK    8  A    between atoms: C_22  and  O_23
REMARK    9  A    between atoms: O_23  and  C_24
REMARK   10  A    between atoms: C_25  and  O_26
REMARK   11  A    between atoms: O_26  and  C_27
REMARK                            x       y       z     vdW  Elec       q    Type
REMARK                         _______ _______ _______ _____ _____    ______ ____
ROOT
ATOM      1  N   UNL     1       1.692   8.817  18.226  0.00  0.00    +0.000 N 
ATOM      2  C   UNL     1       0.816   9.656  18.877  0.00  0.00    +0.000 C 
ATOM      3  O   UNL     1       0.524   9.570  20.054  0.00  0.00    +0.000 OA
ATOM      4  N   UNL     1       0.298  10.607  18.025  0.00  0.00    +0.000 N 
ATOM      5  H   UNL     1       1.502   8.689  17.244  0.00  0.00    +0.000 HD
ATOM      6  H   UNL     1       0.893  10.874  17.256  0.00  0.00    +0.000 HD
ENDROOT
BRANCH   1   7
ATOM      7  C   UNL     1       2.252   7.663  18.905  0.00  0.00    +0.000 C 
BRANCH   7  10
ATOM      8  C   UNL     1       5.212   6.389  16.875  0.00  0.00    +0.000 A 
ATOM      9  C   UNL     1       4.228   7.252  17.397  0.00  0.00    +0.000 A 
ATOM     10  C   UNL     1       3.081   6.764  18.017  0.00  0.00    +0.000 A 
ATOM     11  C   UNL     1       2.850   5.390  17.948  0.00  0.00    +0.000 A 
ATOM     12  C   UNL     1       3.773   4.507  17.354  0.00  0.00    +0.000 A 
ATOM     13  C   UNL     1       4.992   4.994  16.829  0.00  0.00    +0.000 A 
BRANCH   8  15
ATOM     14  C   UNL     1       7.402   7.077  17.436  0.00  0.00    +0.000 C 
ATOM     15  O   UNL     1       6.397   6.921  16.426  0.00  0.00    +0.000 OA
ENDBRANCH   8  15
BRANCH  12  16
ATOM     16  O   UNL     1       3.336   3.205  17.444  0.00  0.00    +0.000 OA
ATOM     17  C   UNL     1       3.605   2.445  18.611  0.00  0.00    +0.000 C 
ENDBRANCH  12  16
BRANCH  13  18
ATOM     18  O   UNL     1       5.849   4.043  16.352  0.00  0.00    +0.000 OA
ATOM     19  C   UNL     1       6.078   3.858  14.968  0.00  0.00    +0.000 C 
ENDBRANCH  13  18
ENDBRANCH   7  10
ENDBRANCH   1   7
BRANCH   4  20
ATOM     20  C   UNL     1      -0.603  11.617  18.544  0.00  0.00    +0.000 C 
BRANCH  20  21
ATOM     21  C   UNL     1      -2.017  11.429  18.044  0.00  0.00    +0.000 A 
ATOM     22  C   UNL     1      -2.266  10.934  16.754  0.00  0.00    +0.000 A 
ATOM     23  C   UNL     1      -3.573  10.814  16.271  0.00  0.00    +0.000 A 
ATOM     24  C   UNL     1      -4.654  11.187  17.067  0.00  0.00    +0.000 A 
ATOM     25  C   UNL     1      -4.418  11.682  18.354  0.00  0.00    +0.000 A 
ATOM     26  C   UNL     1      -3.109  11.805  18.846  0.00  0.00    +0.000 A 
BRANCH  25  27
ATOM     27  N   UNL     1      -5.556  12.084  19.197  0.00  0.00    +0.000 N 
ATOM     28  O   UNL     1      -5.343  12.253  20.402  0.00  0.00    +0.000 OA
ATOM     29  O   UNL     1      -6.654  12.232  18.647  0.00  0.00    +0.000 OA
ENDBRANCH  25  27
ENDBRANCH  20  21
ENDBRANCH   4  20
TORSDOF 8
ENDMDL
MODEL 8
REMARK VINA RESULT:      -7.2      5.302      8.697
REMARK  Name = 
REMARK  11 active torsions:
REMARK  status: ('A' for Active; 'I' for Inactive)
REMARK    1  A    between atoms: C_1  and  O_2
REMARK    2  A    between atoms: O_2  and  C_3
REMARK    3  A    between atoms: C_5  and  C_6
REMARK    4  A    between atoms: C_6  and  N_7
REMARK    5  A    between atoms: N_10  and  C_11
REMARK    6  A    between atoms: C_11  and  C_12
REMARK    7  A    between atoms: C_16  and  N_17
REMARK    8  A    between atoms: C_22  and  O_23
REMARK    9  A    between atoms: O_23  and  C_24
REMARK   10  A    between atoms: C_25  and  O_26
REMARK   11  A    between atoms: O_26  and  C_27
REMARK                            x       y       z     vdW  Elec       q    Type
REMARK                         _______ _______ _______ _____ _____    ______ ____
ROOT
ATOM      1  N   UNL     1       1.797   8.134  18.688  0.00  0.00    +0.000 N 
ATOM      2  C   UNL     1       1.395   9.395  18.310  0.00  0.00    +0.000 C 
ATOM      3  O   UNL     1       1.951  10.072  17.468  0.00  0.00    +0.000 OA
ATOM      4  N   UNL     1       0.284   9.804  19.014  0.00  0.00    +0.000 N 
ATOM      5  H   UNL     1       1.580   7.891  19.643  0.00  0.00    +0.000 HD
ATOM      6  H   UNL     1      -0.331   9.068  19.324  0.00  0.00    +0.000 HD
ENDROOT
BRANCH   1   7
ATOM      7  C   UNL     1       3.025   7.563  18.167  0.00  0.00    +0.000 C 
BRANCH   7  10
ATOM      8  C   UNL     1       2.597   4.002  19.450  0.00  0.00    +0.000 A 
ATOM      9  C   UNL     1       2.377   5.380  19.244  0.00  0.00    +0.000 A 
ATOM     10  C   UNL     1       3.377   6.213  18.748  0.00  0.00    +0.000 A 
ATOM     11  C   UNL     1       4.658   5.676  18.629  0.00  0.00    +0.000 A 
ATOM     12  C   UNL     1       4.931   4.323  18.911  0.00  0.00    +0.000 A 
ATOM     13  C   UNL     1       3.889   3.452  19.303  0.00  0.00    +0.000 A 
BRANCH   8  15
ATOM     14  C   UNL     1       1.362   2.982  21.188  0.00  0.00    +0.000 C 
ATOM     15  O   UNL     1       1.532   3.199  19.781  0.00  0.00    +0.000 OA
ENDBRANCH   8  15
BRANCH  12  16
ATOM     16  O   UNL     1       6.256   4.030  18.682  0.00  0.00    +0.000 OA
ATOM     17  C   UNL     1       6.992   4.772  17.723  0.00  0.00    +0.000 C 
ENDBRANCH  12  16
BRANCH  13  18
ATOM     18  O   UNL     1       4.248   2.144  19.472  0.00  0.00    +0.000 OA
ATOM     19  C   UNL     1       3.899   1.138  18.541  0.00  0.00    +0.000 C 
ENDBRANCH  13  18
ENDBRANCH   7  10
ENDBRANCH   1   7
BRANCH   4  20
ATOM     20  C   UNL     1      -0.321  11.087  18.713  0.00  0.00    +0.000 C 
BRANCH  20  21
ATOM     21  C   UNL     1      -1.695  10.938  18.102  0.00  0.00    +0.000 A 
ATOM     22  C   UNL     1      -1.909  10.086  17.007  0.00  0.00    +0.000 A 
ATOM     23  C   UNL     1      -3.168   9.991  16.405  0.00  0.00    +0.000 A 
ATOM     24  C   UNL     1      -4.236  10.746  16.886  0.00  0.00    +0.000 A 
ATOM     25  C   UNL     1      -4.034  11.600  17.977  0.00  0.00    +0.000 A 
ATOM     26  C   UNL     1      -2.773  11.699  18.585  0.00  0.00    +0.000 A 
BRANCH  25  27
ATOM     27  N   UNL     1      -5.156  12.406  18.484  0.00  0.00    +0.000 N 
ATOM     28  O   UNL     1      -6.121  12.580  17.731  0.00  0.00    +0.000 OA
ATOM     29  O   UNL     1      -5.068  12.857  19.632  0.00  0.00    +0.000 OA
ENDBRANCH  25  27
ENDBRANCH  20  21
ENDBRANCH   4  20
TORSDOF 8
ENDMDL
MODEL 9
REMARK VINA RESULT:      -7.2      2.220      9.569
REMARK  Name = 
REMARK  11 active torsions:
REMARK  status: ('A' for Active; 'I' for Inactive)
REMARK    1  A    between atoms: C_1  and  O_2
REMARK    2  A    between atoms: O_2  and  C_3
REMARK    3  A    between atoms: C_5  and  C_6
REMARK    4  A    between atoms: C_6  and  N_7
REMARK    5  A    between atoms: N_10  and  C_11
REMARK    6  A    between atoms: C_11  and  C_12
REMARK    7  A    between atoms: C_16  and  N_17
REMARK    8  A    between atoms: C_22  and  O_23
REMARK    9  A    between atoms: O_23  and  C_24
REMARK   10  A    between atoms: C_25  and  O_26
REMARK   11  A    between atoms: O_26  and  C_27
REMARK                            x       y       z     vdW  Elec       q    Type
REMARK                         _______ _______ _______ _____ _____    ______ ____
ROOT
ATOM      1  N   UNL     1       7.845   8.643  17.969  0.00  0.00    +0.000 N 
ATOM      2  C   UNL     1       7.384   7.395  17.614  0.00  0.00    +0.000 C 
ATOM      3  O   UNL     1       7.781   6.352  18.095  0.00  0.00    +0.000 OA
ATOM      4  N   UNL     1       6.418   7.471  16.635  0.00  0.00    +0.000 N 
ATOM      5  H   UNL     1       7.802   9.332  17.234  0.00  0.00    +0.000 HD
ATOM      6  H   UNL     1       5.867   8.316  16.631  0.00  0.00    +0.000 HD
ENDROOT
BRANCH   1   7
ATOM      7  C   UNL     1       8.958   8.786  18.889  0.00  0.00    +0.000 C 
BRANCH   7  10
ATOM      8  C   UNL     1       9.688  12.471  18.264  0.00  0.00    +0.000 A 
ATOM      9  C   UNL     1       9.668  11.071  18.102  0.00  0.00    +0.000 A 
ATOM     10  C   UNL     1       9.360  10.217  19.158  0.00  0.00    +0.000 A 
ATOM     11  C   UNL     1       9.245  10.783  20.427  0.00  0.00    +0.000 A 
ATOM     12  C   UNL     1       9.347  12.172  20.638  0.00  0.00    +0.000 A 
ATOM     13  C   UNL     1       9.544  13.047  19.546  0.00  0.00    +0.000 A 
BRANCH   8  15
ATOM     14  C   UNL     1      11.193  13.519  16.773  0.00  0.00    +0.000 C 
ATOM     15  O   UNL     1       9.833  13.269  17.155  0.00  0.00    +0.000 OA
ENDBRANCH   8  15
BRANCH  12  16
ATOM     16  O   UNL     1       9.161  12.484  21.966  0.00  0.00    +0.000 OA
ATOM     17  C   UNL     1       7.849  12.667  22.475  0.00  0.00    +0.000 C 
ENDBRANCH  12  16
BRANCH  13  18
ATOM     18  O   UNL     1       9.545  14.379  19.852  0.00  0.00    +0.000 OA
ATOM     19  C   UNL     1      10.725  15.071  20.214  0.00  0.00    +0.000 C 
ENDBRANCH  13  18
ENDBRANCH   7  10
ENDBRANCH   1   7
BRANCH   4  20
ATOM     20  C   UNL     1       5.772   6.259  16.172  0.00  0.00    +0.000 C 
BRANCH  20  21
ATOM     21  C   UNL     1       4.754   5.744  17.163  0.00  0.00    +0.000 A 
ATOM     22  C   UNL     1       3.746   6.584  17.664  0.00  0.00    +0.000 A 
ATOM     23  C   UNL     1       2.839   6.124  18.624  0.00  0.00    +0.000 A 
ATOM     24  C   UNL     1       2.924   4.819  19.104  0.00  0.00    +0.000 A 
ATOM     25  C   UNL     1       3.925   3.973  18.613  0.00  0.00    +0.000 A 
ATOM     26  C   UNL     1       4.838   4.428  17.648  0.00  0.00    +0.000 A 
BRANCH  25  27
ATOM     27  N   UNL     1       4.024   2.595  19.121  0.00  0.00    +0.000 N 
ATOM     28  O   UNL     1       3.307   1.739  18.594  0.00  0.00    +0.000 OA
ATOM     29  O   UNL     1       4.822   2.378  20.041  0.00  0.00    +0.000 OA
ENDBRANCH  25  27
ENDBRANCH  20  21
ENDBRANCH   4  20
TORSDOF 8
ENDMDL
