MODEL 1
REMARK VINA RESULT:      -8.9      0.000      0.000
REMARK  Name = 
REMARK  7 active torsions:
REMARK  status: ('A' for Active; 'I' for Inactive)
REMARK    1  A    between atoms: C_1  and  S_2
REMARK    2  A    between atoms: S_2  and  C_3
REMARK    3  A    between atoms: C_6  and  C_7
REMARK    4  A    between atoms: C_7  and  C_8
REMARK    5  A    between atoms: C_8  and  N_9
REMARK    6  A    between atoms: C_10  and  C_12
REMARK    7  A    between atoms: N_20  and  C_21
REMARK                            x       y       z     vdW  Elec       q    Type
REMARK                         _______ _______ _______ _____ _____    ______ ____
ROOT
ATOM      1  C   UNL     1       6.536   5.436  17.181  0.00  0.00    +0.000 A 
ATOM      2  C   UNL     1       7.173   4.921  16.027  0.00  0.00    +0.000 A 
ATOM      3  C   UNL     1       6.542   4.006  15.169  0.00  0.00    +0.000 A 
ATOM      4  C   UNL     1       5.244   3.588  15.431  0.00  0.00    +0.000 A 
ATOM      5  C   UNL     1       4.611   4.101  16.550  0.00  0.00    +0.000 A 
ATOM      6  C   UNL     1       5.238   5.007  17.421  0.00  0.00    +0.000 A 
ATOM      7  C   UNL     1       4.251   5.318  18.480  0.00  0.00    +0.000 C 
ATOM      8  O   UNL     1       4.459   6.055  19.427  0.00  0.00    +0.000 OA
ATOM      9  N   UNL     1       3.091   4.598  18.201  0.00  0.00    +0.000 N 
ATOM     10  C   UNL     1       3.225   3.803  17.001  0.00  0.00    +0.000 C 
ENDROOT
BRANCH   9  11
ATOM     11  C   UNL     1       1.863   4.643  19.013  0.00  0.00    +0.000 C 
ATOM     12  C   UNL     1       0.987   3.391  18.841  0.00  0.00    +0.000 C 
ATOM     13  C   UNL     1       1.504   2.181  19.613  0.00  0.00    +0.000 C 
ATOM     14  C   UNL     1       1.699   2.488  21.094  0.00  0.00    +0.000 C 
ATOM     15  C   UNL     1       2.549   3.729  21.335  0.00  0.00    +0.000 C 
ATOM     16  C   UNL     1       2.100   4.936  20.505  0.00  0.00    +0.000 C 
ENDBRANCH   9  11
BRANCH   1  18
ATOM     17  N   UNL     1       7.547   7.666  17.547  0.00  0.00    +0.000 N 
ATOM     18  C   UNL     1       7.358   6.376  17.995  0.00  0.00    +0.000 C 
ATOM     19  O   UNL     1       7.794   5.992  19.077  0.00  0.00    +0.000 OA
ATOM     20  H   UNL     1       7.457   7.849  16.548  0.00  0.00    +0.000 HD
BRANCH  17  21
ATOM     21  C   UNL     1       8.327   8.596  18.349  0.00  0.00    +0.000 C 
BRANCH  21  22
ATOM     22  C   UNL     1       8.644   9.890  17.600  0.00  0.00    +0.000 C 
BRANCH  22  26
ATOM     23  C   UNL     1       9.790  13.127  20.243  0.00  0.00    +0.000 A 
ATOM     24  C   UNL     1       9.338  13.392  18.948  0.00  0.00    +0.000 A 
ATOM     25  C   UNL     1       8.963  12.347  18.098  0.00  0.00    +0.000 A 
ATOM     26  C   UNL     1       9.038  11.016  18.529  0.00  0.00    +0.000 A 
ATOM     27  C   UNL     1       9.505  10.752  19.823  0.00  0.00    +0.000 A 
ATOM     28  C   UNL     1       9.879  11.801  20.673  0.00  0.00    +0.000 A 
BRANCH  23  30
ATOM     29  C   UNL     1      10.322  15.831  20.061  0.00  0.00    +0.000 C 
ATOM     30  S   UNL     1      10.304  14.489  21.276  0.00  0.00    +0.000 S 
ENDBRANCH  23  30
ENDBRANCH  22  26
ENDBRANCH  21  22
ENDBRANCH  17  21
ENDBRANCH   1  18
TORSDOF 6
ENDMDL
MODEL 2
REMARK VINA RESULT:      -8.8      1.123      1.578
REMARK  Name = 
REMARK  7 active torsions:
REMARK  status: ('A' for Active; 'I' for Inactive)
REMARK    1  A    between atoms: C_1  and  S_2
REMARK    2  A    between atoms: S_2  and  C_3
REMARK    3  A    between atoms: C_6  and  C_7
REMARK    4  A    between atoms: C_7  and  C_8
REMARK    5  A    between atoms: C_8  and  N_9
REMARK    6  A    between atoms: C_10  and  C_12
REMARK    7  A    between atoms: N_20  and  C_21
REMARK                            x       y       z     vdW  Elec       q    Type
REMARK                         _______ _______ _______ _____ _____    ______ ____
ROOT
ATOM      1  C   UNL     1       6.797   5.765  17.111  0.00  0.00    +0.000 A 
ATOM      2  C   UNL     1       7.048   5.744  15.719  0.00  0.00    +0.000 A 
ATOM      3  C   UNL     1       6.358   4.887  14.846  0.00  0.00    +0.000 A 
ATOM      4  C   UNL     1       5.382   4.033  15.338  0.00  0.00    +0.000 A 
ATOM      5  C   UNL     1       5.121   4.060  16.697  0.00  0.00    +0.000 A 
ATOM      6  C   UNL     1       5.814   4.904  17.580  0.00  0.00    +0.000 A 
ATOM      7  C   UNL     1       5.257   4.647  18.928  0.00  0.00    +0.000 C 
ATOM      8  O   UNL     1       5.638   5.185  19.951  0.00  0.00    +0.000 OA
ATOM      9  N   UNL     1       4.266   3.675  18.796  0.00  0.00    +0.000 N 
ATOM     10  C   UNL     1       4.110   3.246  17.425  0.00  0.00    +0.000 C 
ENDROOT
BRANCH   9  11
ATOM     11  C   UNL     1       3.458   3.150  19.909  0.00  0.00    +0.000 C 
ATOM     12  C   UNL     1       2.592   4.229  20.581  0.00  0.00    +0.000 C 
ATOM     13  C   UNL     1       1.340   4.583  19.783  0.00  0.00    +0.000 C 
ATOM     14  C   UNL     1       0.497   3.352  19.467  0.00  0.00    +0.000 C 
ATOM     15  C   UNL     1       1.299   2.236  18.811  0.00  0.00    +0.000 C 
ATOM     16  C   UNL     1       2.604   1.920  19.548  0.00  0.00    +0.000 C 
ENDBRANCH   9  11
BRANCH   1  18
ATOM     17  N   UNL     1       7.784   8.010  17.447  0.00  0.00    +0.000 N 
ATOM     18  C   UNL     1       7.636   6.715  17.895  0.00  0.00    +0.000 C 
ATOM     19  O   UNL     1       8.125   6.333  18.955  0.00  0.00    +0.000 OA
ATOM     20  H   UNL     1       7.648   8.196  16.454  0.00  0.00    +0.000 HD
BRANCH  17  21
ATOM     21  C   UNL     1       8.582   8.950  18.221  0.00  0.00    +0.000 C 
BRANCH  21  22
ATOM     22  C   UNL     1       8.041  10.377  18.142  0.00  0.00    +0.000 C 
BRANCH  22  26
ATOM     23  C   UNL     1      11.059  13.340  19.090  0.00  0.00    +0.000 A 
ATOM     24  C   UNL     1      10.335  13.417  17.897  0.00  0.00    +0.000 A 
ATOM     25  C   UNL     1       9.357  12.464  17.595  0.00  0.00    +0.000 A 
ATOM     26  C   UNL     1       9.090  11.412  18.482  0.00  0.00    +0.000 A 
ATOM     27  C   UNL     1       9.827  11.328  19.670  0.00  0.00    +0.000 A 
ATOM     28  C   UNL     1      10.805  12.285  19.970  0.00  0.00    +0.000 A 
BRANCH  23  30
ATOM     29  C   UNL     1      11.433  15.684  20.501  0.00  0.00    +0.000 C 
ATOM     30  S   UNL     1      12.331  14.550  19.411  0.00  0.00    +0.000 S 
ENDBRANCH  23  30
ENDBRANCH  22  26
ENDBRANCH  21  22
ENDBRANCH  17  21
ENDBRANCH   1  18
TORSDOF 6
ENDMDL
MODEL 3
REMARK VINA RESULT:      -8.8      0.571      1.129
REMARK  Name = 
REMARK  7 active torsions:
REMARK  status: ('A' for Active; 'I' for Inactive)
REMARK    1  A    between atoms: C_1  and  S_2
REMARK    2  A    between atoms: S_2  and  C_3
REMARK    3  A    between atoms: C_6  and  C_7
REMARK    4  A    between atoms: C_7  and  C_8
REMARK    5  A    between atoms: C_8  and  N_9
REMARK    6  A    between atoms: C_10  and  C_12
REMARK    7  A    between atoms: N_20  and  C_21
REMARK                            x       y       z     vdW  Elec       q    Type
REMARK                         _______ _______ _______ _____ _____    ______ ____
ROOT
ATOM      1  C   UNL     1       6.611   5.503  17.262  0.00  0.00    +0.000 A 
ATOM      2  C   UNL     1       7.269   4.996  16.116  0.00  0.00    +0.000 A 
ATOM      3  C   UNL     1       6.652   4.091  15.237  0.00  0.00    +0.000 A 
ATOM      4  C   UNL     1       5.349   3.675  15.469  0.00  0.00    +0.000 A 
ATOM      5  C   UNL     1       4.695   4.179  16.581  0.00  0.00    +0.000 A 
ATOM      6  C   UNL     1       5.307   5.075  17.473  0.00  0.00    +0.000 A 
ATOM      7  C   UNL     1       4.300   5.380  18.515  0.00  0.00    +0.000 C 
ATOM      8  O   UNL     1       4.491   6.106  19.472  0.00  0.00    +0.000 OA
ATOM      9  N   UNL     1       3.144   4.666  18.205  0.00  0.00    +0.000 N 
ATOM     10  C   UNL     1       3.299   3.881  17.001  0.00  0.00    +0.000 C 
ENDROOT
BRANCH   9  11
ATOM     11  C   UNL     1       1.900   4.707  18.993  0.00  0.00    +0.000 C 
ATOM     12  C   UNL     1       1.010   3.473  18.770  0.00  0.00    +0.000 C 
ATOM     13  C   UNL     1       1.494   2.234  19.519  0.00  0.00    +0.000 C 
ATOM     14  C   UNL     1       1.663   2.499  21.012  0.00  0.00    +0.000 C 
ATOM     15  C   UNL     1       2.525   3.721  21.304  0.00  0.00    +0.000 C 
ATOM     16  C   UNL     1       2.111   4.956  20.498  0.00  0.00    +0.000 C 
ENDBRANCH   9  11
BRANCH   1  18
ATOM     17  N   UNL     1       7.637   7.720  17.660  0.00  0.00    +0.000 N 
ATOM     18  C   UNL     1       7.419   6.432  18.101  0.00  0.00    +0.000 C 
ATOM     19  O   UNL     1       7.818   6.043  19.195  0.00  0.00    +0.000 OA
ATOM     20  H   UNL     1       7.578   7.904  16.659  0.00  0.00    +0.000 HD
BRANCH  17  21
ATOM     21  C   UNL     1       8.403   8.641  18.486  0.00  0.00    +0.000 C 
BRANCH  21  22
ATOM     22  C   UNL     1       8.787   9.916  17.736  0.00  0.00    +0.000 C 
BRANCH  22  26
ATOM     23  C   UNL     1       9.729  13.177  20.431  0.00  0.00    +0.000 A 
ATOM     24  C   UNL     1       9.778  11.852  20.872  0.00  0.00    +0.000 A 
ATOM     25  C   UNL     1       9.480  10.801  20.000  0.00  0.00    +0.000 A 
ATOM     26  C   UNL     1       9.122  11.057  18.670  0.00  0.00    +0.000 A 
ATOM     27  C   UNL     1       9.058  12.387  18.234  0.00  0.00    +0.000 A 
ATOM     28  C   UNL     1       9.358  13.439  19.109  0.00  0.00    +0.000 A 
BRANCH  23  30
ATOM     29  C   UNL     1       8.856  14.107  22.881  0.00  0.00    +0.000 C 
ATOM     30  S   UNL     1      10.069  14.490  21.591  0.00  0.00    +0.000 S 
ENDBRANCH  23  30
ENDBRANCH  22  26
ENDBRANCH  21  22
ENDBRANCH  17  21
ENDBRANCH   1  18
TORSDOF 6
ENDMDL
MODEL 4
REMARK VINA RESULT:      -8.8      0.901      1.701
REMARK  Name = 
REMARK  7 active torsions:
REMARK  status: ('A' for Active; 'I' for Inactive)
REMARK    1  A    between atoms: C_1  and  S_2
REMARK    2  A    between atoms: S_2  and  C_3
REMARK    3  A    between atoms: C_6  and  C_7
REMARK    4  A    between atoms: C_7  and  C_8
REMARK    5  A    between atoms: C_8  and  N_9
REMARK    6  A    between atoms: C_10  and  C_12
REMARK    7  A    between atoms: N_20  and  C_21
REMARK                            x       y       z     vdW  Elec       q    Type
REMARK                         _______ _______ _______ _____ _____    ______ ____
ROOT
ATOM      1  C   UNL     1       6.752   5.695  17.138  0.00  0.00    +0.000 A 
ATOM      2  C   UNL     1       6.973   5.786  15.744  0.00  0.00    +0.000 A 
ATOM      3  C   UNL     1       6.267   4.997  14.821  0.00  0.00    +0.000 A 
ATOM      4  C   UNL     1       5.305   4.100  15.265  0.00  0.00    +0.000 A 
ATOM      5  C   UNL     1       5.075   4.017  16.628  0.00  0.00    +0.000 A 
ATOM      6  C   UNL     1       5.784   4.793  17.560  0.00  0.00    +0.000 A 
ATOM      7  C   UNL     1       5.258   4.426  18.895  0.00  0.00    +0.000 C 
ATOM      8  O   UNL     1       5.661   4.883  19.948  0.00  0.00    +0.000 OA
ATOM      9  N   UNL     1       4.269   3.462  18.708  0.00  0.00    +0.000 N 
ATOM     10  C   UNL     1       4.084   3.142  17.310  0.00  0.00    +0.000 C 
ENDROOT
BRANCH   9  11
ATOM     11  C   UNL     1       3.488   2.844  19.793  0.00  0.00    +0.000 C 
ATOM     12  C   UNL     1       2.850   3.881  20.734  0.00  0.00    +0.000 C 
ATOM     13  C   UNL     1       1.601   4.537  20.152  0.00  0.00    +0.000 C 
ATOM     14  C   UNL     1       0.563   3.508  19.719  0.00  0.00    +0.000 C 
ATOM     15  C   UNL     1       1.135   2.441  18.794  0.00  0.00    +0.000 C 
ATOM     16  C   UNL     1       2.436   1.826  19.318  0.00  0.00    +0.000 C 
ENDBRANCH   9  11
BRANCH   1  18
ATOM     17  N   UNL     1       7.653   7.932  17.695  0.00  0.00    +0.000 N 
ATOM     18  C   UNL     1       7.605   6.584  17.977  0.00  0.00    +0.000 C 
ATOM     19  O   UNL     1       8.196   6.099  18.938  0.00  0.00    +0.000 OA
ATOM     20  H   UNL     1       7.427   8.236  16.748  0.00  0.00    +0.000 HD
BRANCH  17  21
ATOM     21  C   UNL     1       8.463   8.811  18.525  0.00  0.00    +0.000 C 
BRANCH  21  22
ATOM     22  C   UNL     1       8.888  10.081  17.789  0.00  0.00    +0.000 C 
BRANCH  22  26
ATOM     23  C   UNL     1       9.762  13.335  20.515  0.00  0.00    +0.000 A 
ATOM     24  C   UNL     1       9.870  12.006  20.934  0.00  0.00    +0.000 A 
ATOM     25  C   UNL     1       9.594  10.957  20.052  0.00  0.00    +0.000 A 
ATOM     26  C   UNL     1       9.199  11.220  18.733  0.00  0.00    +0.000 A 
ATOM     27  C   UNL     1       9.076  12.553  18.320  0.00  0.00    +0.000 A 
ATOM     28  C   UNL     1       9.354  13.602  19.205  0.00  0.00    +0.000 A 
BRANCH  23  30
ATOM     29  C   UNL     1       9.298  16.038  20.836  0.00  0.00    +0.000 C 
ATOM     30  S   UNL     1      10.076  14.642  21.688  0.00  0.00    +0.000 S 
ENDBRANCH  23  30
ENDBRANCH  22  26
ENDBRANCH  21  22
ENDBRANCH  17  21
ENDBRANCH   1  18
TORSDOF 6
ENDMDL
MODEL 5
REMARK VINA RESULT:      -8.6      1.139      1.397
REMARK  Name = 
REMARK  7 active torsions:
REMARK  status: ('A' for Active; 'I' for Inactive)
REMARK    1  A    between atoms: C_1  and  S_2
REMARK    2  A    between atoms: S_2  and  C_3
REMARK    3  A    between atoms: C_6  and  C_7
REMARK    4  A    between atoms: C_7  and  C_8
REMARK    5  A    between atoms: C_8  and  N_9
REMARK    6  A    between atoms: C_10  and  C_12
REMARK    7  A    between atoms: N_20  and  C_21
REMARK                            x       y       z     vdW  Elec       q    Type
REMARK                         _______ _______ _______ _____ _____    ______ ____
ROOT
ATOM      1  C   UNL     1       5.866   5.990  16.741  0.00  0.00    +0.000 A 
ATOM      2  C   UNL     1       6.753   5.386  15.820  0.00  0.00    +0.000 A 
ATOM      3  C   UNL     1       6.557   4.082  15.336  0.00  0.00    +0.000 A 
ATOM      4  C   UNL     1       5.455   3.345  15.749  0.00  0.00    +0.000 A 
ATOM      5  C   UNL     1       4.576   3.938  16.639  0.00  0.00    +0.000 A 
ATOM      6  C   UNL     1       4.770   5.236  17.138  0.00  0.00    +0.000 A 
ATOM      7  C   UNL     1       3.632   5.508  18.047  0.00  0.00    +0.000 C 
ATOM      8  O   UNL     1       3.483   6.535  18.683  0.00  0.00    +0.000 OA
ATOM      9  N   UNL     1       2.816   4.378  18.051  0.00  0.00    +0.000 N 
ATOM     10  C   UNL     1       3.332   3.337  17.191  0.00  0.00    +0.000 C 
ENDROOT
BRANCH   9  11
ATOM     11  C   UNL     1       1.568   4.252  18.822  0.00  0.00    +0.000 C 
ATOM     12  C   UNL     1       1.092   2.795  18.954  0.00  0.00    +0.000 C 
ATOM     13  C   UNL     1       1.869   1.998  19.999  0.00  0.00    +0.000 C 
ATOM     14  C   UNL     1       1.860   2.681  21.362  0.00  0.00    +0.000 C 
ATOM     15  C   UNL     1       2.308   4.135  21.300  0.00  0.00    +0.000 C 
ATOM     16  C   UNL     1       1.602   4.936  20.201  0.00  0.00    +0.000 C 
ENDBRANCH   9  11
BRANCH   1  18
ATOM     17  N   UNL     1       7.568   7.698  17.300  0.00  0.00    +0.000 N 
ATOM     18  C   UNL     1       6.237   7.368  17.172  0.00  0.00    +0.000 C 
ATOM     19  O   UNL     1       5.342   8.193  17.342  0.00  0.00    +0.000 OA
ATOM     20  H   UNL     1       8.239   6.947  17.463  0.00  0.00    +0.000 HD
BRANCH  17  21
ATOM     21  C   UNL     1       7.938   9.048  17.695  0.00  0.00    +0.000 C 
BRANCH  21  22
ATOM     22  C   UNL     1       8.895   9.067  18.887  0.00  0.00    +0.000 C 
BRANCH  22  26
ATOM     23  C   UNL     1      10.518  13.013  19.647  0.00  0.00    +0.000 A 
ATOM     24  C   UNL     1      10.071  12.212  20.701  0.00  0.00    +0.000 A 
ATOM     25  C   UNL     1       9.553  10.936  20.455  0.00  0.00    +0.000 A 
ATOM     26  C   UNL     1       9.470  10.441  19.147  0.00  0.00    +0.000 A 
ATOM     27  C   UNL     1       9.905  11.252  18.090  0.00  0.00    +0.000 A 
ATOM     28  C   UNL     1      10.424  12.529  18.339  0.00  0.00    +0.000 A 
BRANCH  23  30
ATOM     29  C   UNL     1      10.975  15.417  18.367  0.00  0.00    +0.000 C 
ATOM     30  S   UNL     1      11.126  14.653  20.002  0.00  0.00    +0.000 S 
ENDBRANCH  23  30
ENDBRANCH  22  26
ENDBRANCH  21  22
ENDBRANCH  17  21
ENDBRANCH   1  18
TORSDOF 6
ENDMDL
MODEL 6
REMARK VINA RESULT:      -8.2      1.491      1.941
REMARK  Name = 
REMARK  7 active torsions:
REMARK  status: ('A' for Active; 'I' for Inactive)
REMARK    1  A    between atoms: C_1  and  S_2
REMARK    2  A    between atoms: S_2  and  C_3
REMARK    3  A    between atoms: C_6  and  C_7
REMARK    4  A    between atoms: C_7  and  C_8
REMARK    5  A    between atoms: C_8  and  N_9
REMARK    6  A    between atoms: C_10  and  C_12
REMARK    7  A    between atoms: N_20  and  C_21
REMARK                            x       y       z     vdW  Elec       q    Type
REMARK                         _______ _______ _______ _____ _____    ______ ____
ROOT
ATOM      1  C   UNL     1       6.976   6.098  17.007  0.00  0.00    +0.000 A 
ATOM      2  C   UNL     1       7.343   6.024  15.643  0.00  0.00    +0.000 A 
ATOM      3  C   UNL     1       6.826   5.043  14.780  0.00  0.00    +0.000 A 
ATOM      4  C   UNL     1       5.912   4.112  15.255  0.00  0.00    +0.000 A 
ATOM      5  C   UNL     1       5.539   4.189  16.585  0.00  0.00    +0.000 A 
ATOM      6  C   UNL     1       6.059   5.158  17.459  0.00  0.00    +0.000 A 
ATOM      7  C   UNL     1       5.424   4.918  18.775  0.00  0.00    +0.000 C 
ATOM      8  O   UNL     1       5.658   5.556  19.785  0.00  0.00    +0.000 OA
ATOM      9  N   UNL     1       4.561   3.833  18.635  0.00  0.00    +0.000 N 
ATOM     10  C   UNL     1       4.567   3.308  17.288  0.00  0.00    +0.000 C 
ENDROOT
BRANCH   9  11
ATOM     11  C   UNL     1       3.727   3.284  19.717  0.00  0.00    +0.000 C 
ATOM     12  C   UNL     1       2.790   4.333  20.341  0.00  0.00    +0.000 C 
ATOM     13  C   UNL     1       1.561   4.630  19.486  0.00  0.00    +0.000 C 
ATOM     14  C   UNL     1       0.782   3.365  19.145  0.00  0.00    +0.000 C 
ATOM     15  C   UNL     1       1.655   2.276  18.535  0.00  0.00    +0.000 C 
ATOM     16  C   UNL     1       2.939   2.018  19.331  0.00  0.00    +0.000 C 
ENDBRANCH   9  11
BRANCH   1  18
ATOM     17  N   UNL     1       7.437   8.495  17.417  0.00  0.00    +0.000 N 
ATOM     18  C   UNL     1       7.638   7.182  17.786  0.00  0.00    +0.000 C 
ATOM     19  O   UNL     1       8.298   6.879  18.776  0.00  0.00    +0.000 OA
ATOM     20  H   UNL     1       7.170   8.690  16.452  0.00  0.00    +0.000 HD
BRANCH  17  21
ATOM     21  C   UNL     1       8.059   9.561  18.188  0.00  0.00    +0.000 C 
BRANCH  21  22
ATOM     22  C   UNL     1       9.453   9.918  17.672  0.00  0.00    +0.000 C 
BRANCH  22  26
ATOM     23  C   UNL     1      10.318  14.148  18.044  0.00  0.00    +0.000 A 
ATOM     24  C   UNL     1       8.999  13.687  18.061  0.00  0.00    +0.000 A 
ATOM     25  C   UNL     1       8.722  12.321  17.948  0.00  0.00    +0.000 A 
ATOM     26  C   UNL     1       9.761  11.391  17.810  0.00  0.00    +0.000 A 
ATOM     27  C   UNL     1      11.082  11.858  17.777  0.00  0.00    +0.000 A 
ATOM     28  C   UNL     1      11.357  13.226  17.892  0.00  0.00    +0.000 A 
BRANCH  23  30
ATOM     29  C   UNL     1       8.926  16.521  18.282  0.00  0.00    +0.000 C 
ATOM     30  S   UNL     1      10.623  15.903  18.143  0.00  0.00    +0.000 S 
ENDBRANCH  23  30
ENDBRANCH  22  26
ENDBRANCH  21  22
ENDBRANCH  17  21
ENDBRANCH   1  18
TORSDOF 6
ENDMDL
MODEL 7
REMARK VINA RESULT:      -8.1      1.196      1.671
REMARK  Name = 
REMARK  7 active torsions:
REMARK  status: ('A' for Active; 'I' for Inactive)
REMARK    1  A    between atoms: C_1  and  S_2
REMARK    2  A    between atoms: S_2  and  C_3
REMARK    3  A    between atoms: C_6  and  C_7
REMARK    4  A    between atoms: C_7  and  C_8
REMARK    5  A    between atoms: C_8  and  N_9
REMARK    6  A    between atoms: C_10  and  C_12
REMARK    7  A    between atoms: N_20  and  C_21
REMARK                            x       y       z     vdW  Elec       q    Type
REMARK                         _______ _______ _______ _____ _____    ______ ____
ROOT
ATOM      1  C   UNL     1       5.899   5.911  16.652  0.00  0.00    +0.000 A 
ATOM      2  C   UNL     1       6.334   5.651  15.331  0.00  0.00    +0.000 A 
ATOM      3  C   UNL     1       6.128   4.411  14.704  0.00  0.00    +0.000 A 
ATOM      4  C   UNL     1       5.464   3.394  15.377  0.00  0.00    +0.000 A 
ATOM      5  C   UNL     1       5.023   3.648  16.664  0.00  0.00    +0.000 A 
ATOM      6  C   UNL     1       5.235   4.880  17.304  0.00  0.00    +0.000 A 
ATOM      7  C   UNL     1       4.624   4.764  18.648  0.00  0.00    +0.000 C 
ATOM      8  O   UNL     1       4.639   5.638  19.495  0.00  0.00    +0.000 OA
ATOM      9  N   UNL     1       4.077   3.486  18.753  0.00  0.00    +0.000 N 
ATOM     10  C   UNL     1       4.279   2.711  17.549  0.00  0.00    +0.000 C 
ENDROOT
BRANCH   9  11
ATOM     11  C   UNL     1       3.363   2.978  19.936  0.00  0.00    +0.000 C 
ATOM     12  C   UNL     1       2.718   4.097  20.772  0.00  0.00    +0.000 C 
ATOM     13  C   UNL     1       1.423   4.632  20.168  0.00  0.00    +0.000 C 
ATOM     14  C   UNL     1       0.412   3.520  19.906  0.00  0.00    +0.000 C 
ATOM     15  C   UNL     1       0.992   2.370  19.093  0.00  0.00    +0.000 C 
ATOM     16  C   UNL     1       2.337   1.871  19.631  0.00  0.00    +0.000 C 
ENDBRANCH   9  11
BRANCH   1  18
ATOM     17  N   UNL     1       7.534   7.694  17.176  0.00  0.00    +0.000 N 
ATOM     18  C   UNL     1       6.223   7.269  17.173  0.00  0.00    +0.000 C 
ATOM     19  O   UNL     1       5.301   7.998  17.531  0.00  0.00    +0.000 OA
ATOM     20  H   UNL     1       8.270   6.989  17.181  0.00  0.00    +0.000 HD
BRANCH  17  21
ATOM     21  C   UNL     1       7.854   9.028  17.660  0.00  0.00    +0.000 C 
BRANCH  21  22
ATOM     22  C   UNL     1       8.855   9.005  18.815  0.00  0.00    +0.000 C 
BRANCH  22  26
ATOM     23  C   UNL     1      10.429  12.939  19.728  0.00  0.00    +0.000 A 
ATOM     24  C   UNL     1      10.311  12.509  18.403  0.00  0.00    +0.000 A 
ATOM     25  C   UNL     1       9.797  11.242  18.110  0.00  0.00    +0.000 A 
ATOM     26  C   UNL     1       9.396  10.380  19.139  0.00  0.00    +0.000 A 
ATOM     27  C   UNL     1       9.530  10.807  20.466  0.00  0.00    +0.000 A 
ATOM     28  C   UNL     1      10.044  12.077  20.758  0.00  0.00    +0.000 A 
BRANCH  23  30
ATOM     29  C   UNL     1       9.781  15.310  20.986  0.00  0.00    +0.000 C 
ATOM     30  S   UNL     1      11.135  14.544  20.058  0.00  0.00    +0.000 S 
ENDBRANCH  23  30
ENDBRANCH  22  26
ENDBRANCH  21  22
ENDBRANCH  17  21
ENDBRANCH   1  18
TORSDOF 6
ENDMDL
MODEL 8
REMARK VINA RESULT:      -8.1      5.100      8.124
REMARK  Name = 
REMARK  7 active torsions:
REMARK  status: ('A' for Active; 'I' for Inactive)
REMARK    1  A    between atoms: C_1  and  S_2
REMARK    2  A    between atoms: S_2  and  C_3
REMARK    3  A    between atoms: C_6  and  C_7
REMARK    4  A    between atoms: C_7  and  C_8
REMARK    5  A    between atoms: C_8  and  N_9
REMARK    6  A    between atoms: C_10  and  C_12
REMARK    7  A    between atoms: N_20  and  C_21
REMARK                            x       y       z     vdW  Elec       q    Type
REMARK                         _______ _______ _______ _____ _____    ______ ____
ROOT
ATOM      1  C   UNL     1       2.364   5.052  20.435  0.00  0.00    +0.000 A 
ATOM      2  C   UNL     1       2.217   3.872  21.201  0.00  0.00    +0.000 A 
ATOM      3  C   UNL     1       3.064   2.764  21.038  0.00  0.00    +0.000 A 
ATOM      4  C   UNL     1       4.096   2.808  20.111  0.00  0.00    +0.000 A 
ATOM      5  C   UNL     1       4.253   3.966  19.369  0.00  0.00    +0.000 A 
ATOM      6  C   UNL     1       3.404   5.075  19.515  0.00  0.00    +0.000 A 
ATOM      7  C   UNL     1       3.889   6.101  18.564  0.00  0.00    +0.000 C 
ATOM      8  O   UNL     1       3.374   7.191  18.397  0.00  0.00    +0.000 OA
ATOM      9  N   UNL     1       4.994   5.571  17.899  0.00  0.00    +0.000 N 
ATOM     10  C   UNL     1       5.297   4.229  18.342  0.00  0.00    +0.000 C 
ENDROOT
BRANCH   9  11
ATOM     11  C   UNL     1       5.775   6.285  16.876  0.00  0.00    +0.000 C 
ATOM     12  C   UNL     1       7.255   5.865  16.853  0.00  0.00    +0.000 C 
ATOM     13  C   UNL     1       7.492   4.526  16.160  0.00  0.00    +0.000 C 
ATOM     14  C   UNL     1       6.915   4.503  14.748  0.00  0.00    +0.000 C 
ATOM     15  C   UNL     1       5.452   4.925  14.698  0.00  0.00    +0.000 C 
ATOM     16  C   UNL     1       5.174   6.224  15.460  0.00  0.00    +0.000 C 
ENDBRANCH   9  11
BRANCH   1  18
ATOM     17  N   UNL     1       1.803   7.405  20.960  0.00  0.00    +0.000 N 
ATOM     18  C   UNL     1       1.364   6.122  20.716  0.00  0.00    +0.000 C 
ATOM     19  O   UNL     1       0.170   5.841  20.663  0.00  0.00    +0.000 OA
ATOM     20  H   UNL     1       2.754   7.534  21.304  0.00  0.00    +0.000 HD
BRANCH  17  21
ATOM     21  C   UNL     1       0.832   8.460  21.211  0.00  0.00    +0.000 C 
BRANCH  21  22
ATOM     22  C   UNL     1       1.119   9.723  20.399  0.00  0.00    +0.000 C 
BRANCH  22  26
ATOM     23  C   UNL     1      -2.173  10.842  17.813  0.00  0.00    +0.000 A 
ATOM     24  C   UNL     1      -1.210   9.926  17.383  0.00  0.00    +0.000 A 
ATOM     25  C   UNL     1      -0.151   9.561  18.221  0.00  0.00    +0.000 A 
ATOM     26  C   UNL     1      -0.036  10.111  19.504  0.00  0.00    +0.000 A 
ATOM     27  C   UNL     1      -0.994  11.041  19.927  0.00  0.00    +0.000 A 
ATOM     28  C   UNL     1      -2.054  11.405  19.086  0.00  0.00    +0.000 A 
BRANCH  23  30
ATOM     29  C   UNL     1      -3.108  10.237  15.286  0.00  0.00    +0.000 C 
ATOM     30  S   UNL     1      -3.479  11.316  16.692  0.00  0.00    +0.000 S 
ENDBRANCH  23  30
ENDBRANCH  22  26
ENDBRANCH  21  22
ENDBRANCH  17  21
ENDBRANCH   1  18
TORSDOF 6
ENDMDL
MODEL 9
REMARK VINA RESULT:      -7.9      5.412      8.096
REMARK  Name = 
REMARK  7 active torsions:
REMARK  status: ('A' for Active; 'I' for Inactive)
REMARK    1  A    between atoms: C_1  and  S_2
REMARK    2  A    between atoms: S_2  and  C_3
REMARK    3  A    between atoms: C_6  and  C_7
REMARK    4  A    between atoms: C_7  and  C_8
REMARK    5  A    between atoms: C_8  and  N_9
REMARK    6  A    between atoms: C_10  and  C_12
REMARK    7  A    between atoms: N_20  and  C_21
REMARK                            x       y       z     vdW  Elec       q    Type
REMARK                         _______ _______ _______ _____ _____    ______ ____
ROOT
ATOM      1  C   UNL     1       1.821   6.419  20.025  0.00  0.00    +0.000 A 
ATOM      2  C   UNL     1       1.182   5.377  20.739  0.00  0.00    +0.000 A 
ATOM      3  C   UNL     1       1.356   4.024  20.406  0.00  0.00    +0.000 A 
ATOM      4  C   UNL     1       2.190   3.669  19.354  0.00  0.00    +0.000 A 
ATOM      5  C   UNL     1       2.829   4.683  18.662  0.00  0.00    +0.000 A 
ATOM      6  C   UNL     1       2.652   6.040  18.979  0.00  0.00    +0.000 A 
ATOM      7  C   UNL     1       3.492   6.804  18.029  0.00  0.00    +0.000 C 
ATOM      8  O   UNL     1       3.567   8.018  17.992  0.00  0.00    +0.000 OA
ATOM      9  N   UNL     1       4.130   5.886  17.197  0.00  0.00    +0.000 N 
ATOM     10  C   UNL     1       3.773   4.523  17.523  0.00  0.00    +0.000 C 
ENDROOT
BRANCH   9  11
ATOM     11  C   UNL     1       5.068   6.245  16.121  0.00  0.00    +0.000 C 
ATOM     12  C   UNL     1       6.430   6.724  16.650  0.00  0.00    +0.000 C 
ATOM     13  C   UNL     1       7.333   5.584  17.115  0.00  0.00    +0.000 C 
ATOM     14  C   UNL     1       7.531   4.532  16.029  0.00  0.00    +0.000 C 
ATOM     15  C   UNL     1       6.217   4.024  15.449  0.00  0.00    +0.000 C 
ATOM     16  C   UNL     1       5.258   5.151  15.053  0.00  0.00    +0.000 C 
ENDBRANCH   9  11
BRANCH   1  18
ATOM     17  N   UNL     1       1.697   8.118  21.820  0.00  0.00    +0.000 N 
ATOM     18  C   UNL     1       1.506   7.798  20.494  0.00  0.00    +0.000 C 
ATOM     19  O   UNL     1       1.141   8.631  19.669  0.00  0.00    +0.000 OA
ATOM     20  H   UNL     1       1.687   7.364  22.506  0.00  0.00    +0.000 HD
BRANCH  17  21
ATOM     21  C   UNL     1       1.416   9.470  22.280  0.00  0.00    +0.000 C 
BRANCH  21  22
ATOM     22  C   UNL     1       0.051   9.584  22.959  0.00  0.00    +0.000 C 
BRANCH  22  26
ATOM     23  C   UNL     1      -2.226  13.009  21.593  0.00  0.00    +0.000 A 
ATOM     24  C   UNL     1      -2.479  12.438  22.843  0.00  0.00    +0.000 A 
ATOM     25  C   UNL     1      -1.739  11.337  23.285  0.00  0.00    +0.000 A 
ATOM     26  C   UNL     1      -0.735  10.784  22.480  0.00  0.00    +0.000 A 
ATOM     27  C   UNL     1      -0.493  11.348  21.221  0.00  0.00    +0.000 A 
ATOM     28  C   UNL     1      -1.235  12.452  20.781  0.00  0.00    +0.000 A 
BRANCH  23  30
ATOM     29  C   UNL     1      -1.936  15.590  20.652  0.00  0.00    +0.000 C 
ATOM     30  S   UNL     1      -3.227  14.383  21.049  0.00  0.00    +0.000 S 
ENDBRANCH  23  30
ENDBRANCH  22  26
ENDBRANCH  21  22
ENDBRANCH  17  21
ENDBRANCH   1  18
TORSDOF 6
ENDMDL
