MODEL 1
REMARK VINA RESULT:      -6.2      0.000      0.000
REMARK  Name = 
REMARK  9 active torsions:
REMARK  status: ('A' for Active; 'I' for Inactive)
REMARK    1  A    between atoms: C_1  and  C_2
REMARK    2  A    between atoms: C_2  and  C_3
REMARK    3  A    between atoms: C_3  and  C_4
REMARK    4  A    between atoms: C_4  and  C_5
REMARK    5  A    between atoms: C_5  and  C_6
REMARK    6  A    between atoms: C_6  and  C_7
REMARK    7  A    between atoms: C_7  and  C_8
REMARK    8  A    between atoms: C_8  and  S_9
REMARK    9  A    between atoms: S_9  and  C_10
REMARK                            x       y       z     vdW  Elec       q    Type
REMARK                         _______ _______ _______ _____ _____    ______ ____
ROOT
ATOM      1  S   UNL     1       6.798   4.967  18.080  0.00  0.00    +0.000 S 
ENDROOT
BRANCH   1   2
ATOM      2  C   UNL     1       6.872   4.800  16.349  0.00  0.00    +0.000 A 
ATOM      3  N   UNL     1       7.571   5.679  15.623  0.00  0.00    +0.000 NA
ATOM      4  N   UNL     1       7.352   5.227  14.378  0.00  0.00    +0.000 N 
ATOM      5  C   UNL     1       6.554   4.117  14.388  0.00  0.00    +0.000 A 
ATOM      6  N   UNL     1       6.194   3.485  13.265  0.00  0.00    +0.000 N 
ATOM      7  N   UNL     1       6.241   3.822  15.623  0.00  0.00    +0.000 NA
ATOM      8  H   UNL     1       7.759   5.711  13.591  0.00  0.00    +0.000 HD
ATOM      9  H   UNL     1       6.391   3.811  12.327  0.00  0.00    +0.000 HD
ATOM     10  H   UNL     1       5.540   2.709  13.330  0.00  0.00    +0.000 HD
ENDBRANCH   1   2
BRANCH   1  11
ATOM     11  C   UNL     1       5.014   4.900  18.400  0.00  0.00    +0.000 C 
BRANCH  11  12
ATOM     12  C   UNL     1       4.686   3.558  19.063  0.00  0.00    +0.000 C 
BRANCH  12  13
ATOM     13  C   UNL     1       3.722   2.728  18.213  0.00  0.00    +0.000 C 
BRANCH  13  14
ATOM     14  C   UNL     1       2.899   3.624  17.282  0.00  0.00    +0.000 C 
BRANCH  14  15
ATOM     15  C   UNL     1       1.577   4.026  17.935  0.00  0.00    +0.000 C 
BRANCH  15  16
ATOM     16  C   UNL     1       1.118   2.972  18.940  0.00  0.00    +0.000 C 
BRANCH  16  18
ATOM     17  C   UNL     1       1.689   3.010  21.385  0.00  0.00    +0.000 C 
ATOM     18  C   UNL     1       0.808   3.599  20.297  0.00  0.00    +0.000 C 
ENDBRANCH  16  18
ENDBRANCH  15  16
ENDBRANCH  14  15
ENDBRANCH  13  14
ENDBRANCH  12  13
ENDBRANCH  11  12
ENDBRANCH   1  11
TORSDOF 8
ENDMDL
MODEL 2
REMARK VINA RESULT:      -6.0      1.096      1.431
REMARK  Name = 
REMARK  9 active torsions:
REMARK  status: ('A' for Active; 'I' for Inactive)
REMARK    1  A    between atoms: C_1  and  C_2
REMARK    2  A    between atoms: C_2  and  C_3
REMARK    3  A    between atoms: C_3  and  C_4
REMARK    4  A    between atoms: C_4  and  C_5
REMARK    5  A    between atoms: C_5  and  C_6
REMARK    6  A    between atoms: C_6  and  C_7
REMARK    7  A    between atoms: C_7  and  C_8
REMARK    8  A    between atoms: C_8  and  S_9
REMARK    9  A    between atoms: S_9  and  C_10
REMARK                            x       y       z     vdW  Elec       q    Type
REMARK                         _______ _______ _______ _____ _____    ______ ____
ROOT
ATOM      1  S   UNL     1       5.605   5.431  17.956  0.00  0.00    +0.000 S 
ENDROOT
BRANCH   1   2
ATOM      2  C   UNL     1       6.208   5.038  16.371  0.00  0.00    +0.000 A 
ATOM      3  N   UNL     1       7.237   5.722  15.860  0.00  0.00    +0.000 NA
ATOM      4  N   UNL     1       7.363   5.148  14.654  0.00  0.00    +0.000 N 
ATOM      5  C   UNL     1       6.438   4.158  14.478  0.00  0.00    +0.000 A 
ATOM      6  N   UNL     1       6.364   3.439  13.352  0.00  0.00    +0.000 N 
ATOM      7  N   UNL     1       5.697   4.064  15.552  0.00  0.00    +0.000 NA
ATOM      8  H   UNL     1       8.076   5.473  14.017  0.00  0.00    +0.000 HD
ATOM      9  H   UNL     1       6.904   3.616  12.514  0.00  0.00    +0.000 HD
ATOM     10  H   UNL     1       5.608   2.767  13.251  0.00  0.00    +0.000 HD
ENDBRANCH   1   2
BRANCH   1  11
ATOM     11  C   UNL     1       4.354   6.692  17.592  0.00  0.00    +0.000 C 
BRANCH  11  12
ATOM     12  C   UNL     1       2.982   6.160  18.023  0.00  0.00    +0.000 C 
BRANCH  12  13
ATOM     13  C   UNL     1       3.004   4.646  18.232  0.00  0.00    +0.000 C 
BRANCH  13  14
ATOM     14  C   UNL     1       1.705   4.003  17.738  0.00  0.00    +0.000 C 
BRANCH  14  15
ATOM     15  C   UNL     1       1.123   3.061  18.791  0.00  0.00    +0.000 C 
BRANCH  15  16
ATOM     16  C   UNL     1       0.897   3.790  20.114  0.00  0.00    +0.000 C 
BRANCH  16  18
ATOM     17  C   UNL     1       2.739   2.666  21.399  0.00  0.00    +0.000 C 
ATOM     18  C   UNL     1       1.241   2.897  21.304  0.00  0.00    +0.000 C 
ENDBRANCH  16  18
ENDBRANCH  15  16
ENDBRANCH  14  15
ENDBRANCH  13  14
ENDBRANCH  12  13
ENDBRANCH  11  12
ENDBRANCH   1  11
TORSDOF 8
ENDMDL
MODEL 3
REMARK VINA RESULT:      -5.9      0.901      1.022
REMARK  Name = 
REMARK  9 active torsions:
REMARK  status: ('A' for Active; 'I' for Inactive)
REMARK    1  A    between atoms: C_1  and  C_2
REMARK    2  A    between atoms: C_2  and  C_3
REMARK    3  A    between atoms: C_3  and  C_4
REMARK    4  A    between atoms: C_4  and  C_5
REMARK    5  A    between atoms: C_5  and  C_6
REMARK    6  A    between atoms: C_6  and  C_7
REMARK    7  A    between atoms: C_7  and  C_8
REMARK    8  A    between atoms: C_8  and  S_9
REMARK    9  A    between atoms: S_9  and  C_10
REMARK                            x       y       z     vdW  Elec       q    Type
REMARK                         _______ _______ _______ _____ _____    ______ ____
ROOT
ATOM      1  S   UNL     1       6.005   6.077  17.688  0.00  0.00    +0.000 S 
ENDROOT
BRANCH   1   2
ATOM      2  C   UNL     1       6.483   5.404  16.155  0.00  0.00    +0.000 A 
ATOM      3  N   UNL     1       7.578   5.860  15.539  0.00  0.00    +0.000 NA
ATOM      4  N   UNL     1       7.573   5.128  14.414  0.00  0.00    +0.000 N 
ATOM      5  C   UNL     1       6.508   4.271  14.387  0.00  0.00    +0.000 A 
ATOM      6  N   UNL     1       6.286   3.436  13.364  0.00  0.00    +0.000 N 
ATOM      7  N   UNL     1       5.804   4.423  15.479  0.00  0.00    +0.000 NA
ATOM      8  H   UNL     1       8.299   5.261  13.726  0.00  0.00    +0.000 HD
ATOM      9  H   UNL     1       6.814   3.426  12.500  0.00  0.00    +0.000 HD
ATOM     10  H   UNL     1       5.438   2.877  13.366  0.00  0.00    +0.000 HD
ENDBRANCH   1   2
BRANCH   1  11
ATOM     11  C   UNL     1       5.915   4.607  18.746  0.00  0.00    +0.000 C 
BRANCH  11  12
ATOM     12  C   UNL     1       4.444   4.319  19.060  0.00  0.00    +0.000 C 
BRANCH  12  13
ATOM     13  C   UNL     1       3.505   5.115  18.152  0.00  0.00    +0.000 C 
BRANCH  13  14
ATOM     14  C   UNL     1       2.053   4.995  18.621  0.00  0.00    +0.000 C 
BRANCH  14  15
ATOM     15  C   UNL     1       1.397   3.732  18.062  0.00  0.00    +0.000 C 
BRANCH  15  16
ATOM     16  C   UNL     1       1.119   2.721  19.172  0.00  0.00    +0.000 C 
BRANCH  16  18
ATOM     17  C   UNL     1       1.590   2.609  21.636  0.00  0.00    +0.000 C 
ATOM     18  C   UNL     1       0.946   3.415  20.522  0.00  0.00    +0.000 C 
ENDBRANCH  16  18
ENDBRANCH  15  16
ENDBRANCH  14  15
ENDBRANCH  13  14
ENDBRANCH  12  13
ENDBRANCH  11  12
ENDBRANCH   1  11
TORSDOF 8
ENDMDL
MODEL 4
REMARK VINA RESULT:      -5.8      0.833      1.375
REMARK  Name = 
REMARK  9 active torsions:
REMARK  status: ('A' for Active; 'I' for Inactive)
REMARK    1  A    between atoms: C_1  and  C_2
REMARK    2  A    between atoms: C_2  and  C_3
REMARK    3  A    between atoms: C_3  and  C_4
REMARK    4  A    between atoms: C_4  and  C_5
REMARK    5  A    between atoms: C_5  and  C_6
REMARK    6  A    between atoms: C_6  and  C_7
REMARK    7  A    between atoms: C_7  and  C_8
REMARK    8  A    between atoms: C_8  and  S_9
REMARK    9  A    between atoms: S_9  and  C_10
REMARK                            x       y       z     vdW  Elec       q    Type
REMARK                         _______ _______ _______ _____ _____    ______ ____
ROOT
ATOM      1  S   UNL     1       6.181   4.921  18.201  0.00  0.00    +0.000 S 
ENDROOT
BRANCH   1   2
ATOM      2  C   UNL     1       6.528   4.772  16.501  0.00  0.00    +0.000 A 
ATOM      3  N   UNL     1       7.332   5.659  15.905  0.00  0.00    +0.000 NA
ATOM      4  N   UNL     1       7.312   5.221  14.636  0.00  0.00    +0.000 N 
ATOM      5  C   UNL     1       6.524   4.112  14.507  0.00  0.00    +0.000 A 
ATOM      6  N   UNL     1       6.346   3.492  13.335  0.00  0.00    +0.000 N 
ATOM      7  N   UNL     1       6.019   3.803  15.674  0.00  0.00    +0.000 NA
ATOM      8  H   UNL     1       7.838   5.713  13.929  0.00  0.00    +0.000 HD
ATOM      9  H   UNL     1       6.689   3.828  12.443  0.00  0.00    +0.000 HD
ATOM     10  H   UNL     1       5.691   2.717  13.287  0.00  0.00    +0.000 HD
ENDBRANCH   1   2
BRANCH   1  11
ATOM     11  C   UNL     1       4.760   3.812  18.405  0.00  0.00    +0.000 C 
BRANCH  11  12
ATOM     12  C   UNL     1       3.545   4.441  17.715  0.00  0.00    +0.000 C 
BRANCH  12  13
ATOM     13  C   UNL     1       2.556   3.379  17.235  0.00  0.00    +0.000 C 
BRANCH  13  14
ATOM     14  C   UNL     1       1.321   3.328  18.139  0.00  0.00    +0.000 C 
BRANCH  14  15
ATOM     15  C   UNL     1       1.562   2.421  19.346  0.00  0.00    +0.000 C 
BRANCH  15  16
ATOM     16  C   UNL     1       1.043   3.066  20.629  0.00  0.00    +0.000 C 
BRANCH  16  18
ATOM     17  C   UNL     1       1.919   5.413  20.798  0.00  0.00    +0.000 C 
ATOM     18  C   UNL     1       2.096   3.977  21.256  0.00  0.00    +0.000 C 
ENDBRANCH  16  18
ENDBRANCH  15  16
ENDBRANCH  14  15
ENDBRANCH  13  14
ENDBRANCH  12  13
ENDBRANCH  11  12
ENDBRANCH   1  11
TORSDOF 8
ENDMDL
MODEL 5
REMARK VINA RESULT:      -5.8      2.191      3.119
REMARK  Name = 
REMARK  9 active torsions:
REMARK  status: ('A' for Active; 'I' for Inactive)
REMARK    1  A    between atoms: C_1  and  C_2
REMARK    2  A    between atoms: C_2  and  C_3
REMARK    3  A    between atoms: C_3  and  C_4
REMARK    4  A    between atoms: C_4  and  C_5
REMARK    5  A    between atoms: C_5  and  C_6
REMARK    6  A    between atoms: C_6  and  C_7
REMARK    7  A    between atoms: C_7  and  C_8
REMARK    8  A    between atoms: C_8  and  S_9
REMARK    9  A    between atoms: S_9  and  C_10
REMARK                            x       y       z     vdW  Elec       q    Type
REMARK                         _______ _______ _______ _____ _____    ______ ____
ROOT
ATOM      1  S   UNL     1       6.759   4.910  15.424  0.00  0.00    +0.000 S 
ENDROOT
BRANCH   1   2
ATOM      2  C   UNL     1       7.287   5.540  16.959  0.00  0.00    +0.000 A 
ATOM      3  N   UNL     1       7.504   6.852  17.101  0.00  0.00    +0.000 NA
ATOM      4  N   UNL     1       7.915   6.915  18.377  0.00  0.00    +0.000 N 
ATOM      5  C   UNL     1       7.928   5.675  18.954  0.00  0.00    +0.000 A 
ATOM      6  N   UNL     1       8.302   5.480  20.224  0.00  0.00    +0.000 N 
ATOM      7  N   UNL     1       7.530   4.788  18.079  0.00  0.00    +0.000 NA
ATOM      8  H   UNL     1       8.168   7.805  18.779  0.00  0.00    +0.000 HD
ATOM      9  H   UNL     1       8.689   6.193  20.831  0.00  0.00    +0.000 HD
ATOM     10  H   UNL     1       8.362   4.528  20.574  0.00  0.00    +0.000 HD
ENDBRANCH   1   2
BRANCH   1  11
ATOM     11  C   UNL     1       5.637   3.575  15.919  0.00  0.00    +0.000 C 
BRANCH  11  12
ATOM     12  C   UNL     1       4.487   4.178  16.733  0.00  0.00    +0.000 C 
BRANCH  12  13
ATOM     13  C   UNL     1       3.907   3.168  17.724  0.00  0.00    +0.000 C 
BRANCH  13  14
ATOM     14  C   UNL     1       2.450   2.839  17.385  0.00  0.00    +0.000 C 
BRANCH  14  15
ATOM     15  C   UNL     1       1.491   3.794  18.097  0.00  0.00    +0.000 C 
BRANCH  15  16
ATOM     16  C   UNL     1       1.071   3.236  19.456  0.00  0.00    +0.000 C 
BRANCH  16  18
ATOM     17  C   UNL     1       2.033   5.470  20.081  0.00  0.00    +0.000 C 
ATOM     18  C   UNL     1       1.196   4.293  20.550  0.00  0.00    +0.000 C 
ENDBRANCH  16  18
ENDBRANCH  15  16
ENDBRANCH  14  15
ENDBRANCH  13  14
ENDBRANCH  12  13
ENDBRANCH  11  12
ENDBRANCH   1  11
TORSDOF 8
ENDMDL
MODEL 6
REMARK VINA RESULT:      -5.8      1.109      1.808
REMARK  Name = 
REMARK  9 active torsions:
REMARK  status: ('A' for Active; 'I' for Inactive)
REMARK    1  A    between atoms: C_1  and  C_2
REMARK    2  A    between atoms: C_2  and  C_3
REMARK    3  A    between atoms: C_3  and  C_4
REMARK    4  A    between atoms: C_4  and  C_5
REMARK    5  A    between atoms: C_5  and  C_6
REMARK    6  A    between atoms: C_6  and  C_7
REMARK    7  A    between atoms: C_7  and  C_8
REMARK    8  A    between atoms: C_8  and  S_9
REMARK    9  A    between atoms: S_9  and  C_10
REMARK                            x       y       z     vdW  Elec       q    Type
REMARK                         _______ _______ _______ _____ _____    ______ ____
ROOT
ATOM      1  S   UNL     1       6.643   5.281  18.035  0.00  0.00    +0.000 S 
ENDROOT
BRANCH   1   2
ATOM      2  C   UNL     1       6.812   4.992  16.327  0.00  0.00    +0.000 A 
ATOM      3  N   UNL     1       7.571   5.805  15.585  0.00  0.00    +0.000 NA
ATOM      4  N   UNL     1       7.413   5.273  14.363  0.00  0.00    +0.000 N 
ATOM      5  C   UNL     1       6.591   4.181  14.401  0.00  0.00    +0.000 A 
ATOM      6  N   UNL     1       6.281   3.479  13.305  0.00  0.00    +0.000 N 
ATOM      7  N   UNL     1       6.201   3.979  15.634  0.00  0.00    +0.000 NA
ATOM      8  H   UNL     1       7.875   5.693  13.570  0.00  0.00    +0.000 HD
ATOM      9  H   UNL     1       6.539   3.736  12.360  0.00  0.00    +0.000 HD
ATOM     10  H   UNL     1       5.607   2.723  13.385  0.00  0.00    +0.000 HD
ENDBRANCH   1   2
BRANCH   1  11
ATOM     11  C   UNL     1       5.058   4.483  18.408  0.00  0.00    +0.000 C 
BRANCH  11  12
ATOM     12  C   UNL     1       4.427   5.187  19.614  0.00  0.00    +0.000 C 
BRANCH  12  13
ATOM     13  C   UNL     1       3.204   6.010  19.212  0.00  0.00    +0.000 C 
BRANCH  13  14
ATOM     14  C   UNL     1       2.046   5.791  20.190  0.00  0.00    +0.000 C 
BRANCH  14  15
ATOM     15  C   UNL     1       1.988   4.335  20.655  0.00  0.00    +0.000 C 
BRANCH  15  16
ATOM     16  C   UNL     1       0.774   3.620  20.067  0.00  0.00    +0.000 C 
BRANCH  16  18
ATOM     17  C   UNL     1       2.307   1.952  18.985  0.00  0.00    +0.000 C 
ATOM     18  C   UNL     1       1.133   2.891  18.774  0.00  0.00    +0.000 C 
ENDBRANCH  16  18
ENDBRANCH  15  16
ENDBRANCH  14  15
ENDBRANCH  13  14
ENDBRANCH  12  13
ENDBRANCH  11  12
ENDBRANCH   1  11
TORSDOF 8
ENDMDL
MODEL 7
REMARK VINA RESULT:      -5.7      1.341      1.784
REMARK  Name = 
REMARK  9 active torsions:
REMARK  status: ('A' for Active; 'I' for Inactive)
REMARK    1  A    between atoms: C_1  and  C_2
REMARK    2  A    between atoms: C_2  and  C_3
REMARK    3  A    between atoms: C_3  and  C_4
REMARK    4  A    between atoms: C_4  and  C_5
REMARK    5  A    between atoms: C_5  and  C_6
REMARK    6  A    between atoms: C_6  and  C_7
REMARK    7  A    between atoms: C_7  and  C_8
REMARK    8  A    between atoms: C_8  and  S_9
REMARK    9  A    between atoms: S_9  and  C_10
REMARK                            x       y       z     vdW  Elec       q    Type
REMARK                         _______ _______ _______ _____ _____    ______ ____
ROOT
ATOM      1  S   UNL     1       6.752   4.771  17.947  0.00  0.00    +0.000 S 
ENDROOT
BRANCH   1   2
ATOM      2  C   UNL     1       6.868   4.679  16.213  0.00  0.00    +0.000 A 
ATOM      3  N   UNL     1       7.545   5.614  15.539  0.00  0.00    +0.000 NA
ATOM      4  N   UNL     1       7.369   5.207  14.273  0.00  0.00    +0.000 N 
ATOM      5  C   UNL     1       6.617   4.067  14.219  0.00  0.00    +0.000 A 
ATOM      6  N   UNL     1       6.305   3.469  13.064  0.00  0.00    +0.000 N 
ATOM      7  N   UNL     1       6.290   3.709  15.434  0.00  0.00    +0.000 NA
ATOM      8  H   UNL     1       7.772   5.739  13.515  0.00  0.00    +0.000 HD
ATOM      9  H   UNL     1       6.507   3.841  12.144  0.00  0.00    +0.000 HD
ATOM     10  H   UNL     1       5.681   2.667  13.083  0.00  0.00    +0.000 HD
ENDBRANCH   1   2
BRANCH   1  11
ATOM     11  C   UNL     1       5.458   6.019  18.184  0.00  0.00    +0.000 C 
BRANCH  11  12
ATOM     12  C   UNL     1       4.182   5.540  17.484  0.00  0.00    +0.000 C 
BRANCH  12  13
ATOM     13  C   UNL     1       2.955   5.688  18.385  0.00  0.00    +0.000 C 
BRANCH  13  14
ATOM     14  C   UNL     1       3.184   5.016  19.741  0.00  0.00    +0.000 C 
BRANCH  14  15
ATOM     15  C   UNL     1       1.985   5.223  20.666  0.00  0.00    +0.000 C 
BRANCH  15  16
ATOM     16  C   UNL     1       0.908   4.171  20.410  0.00  0.00    +0.000 C 
BRANCH  16  18
ATOM     17  C   UNL     1       0.878   2.256  18.787  0.00  0.00    +0.000 C 
ATOM     18  C   UNL     1       1.525   2.825  20.037  0.00  0.00    +0.000 C 
ENDBRANCH  16  18
ENDBRANCH  15  16
ENDBRANCH  14  15
ENDBRANCH  13  14
ENDBRANCH  12  13
ENDBRANCH  11  12
ENDBRANCH   1  11
TORSDOF 8
ENDMDL
MODEL 8
REMARK VINA RESULT:      -5.6      1.256      1.433
REMARK  Name = 
REMARK  9 active torsions:
REMARK  status: ('A' for Active; 'I' for Inactive)
REMARK    1  A    between atoms: C_1  and  C_2
REMARK    2  A    between atoms: C_2  and  C_3
REMARK    3  A    between atoms: C_3  and  C_4
REMARK    4  A    between atoms: C_4  and  C_5
REMARK    5  A    between atoms: C_5  and  C_6
REMARK    6  A    between atoms: C_6  and  C_7
REMARK    7  A    between atoms: C_7  and  C_8
REMARK    8  A    between atoms: C_8  and  S_9
REMARK    9  A    between atoms: S_9  and  C_10
REMARK                            x       y       z     vdW  Elec       q    Type
REMARK                         _______ _______ _______ _____ _____    ______ ____
ROOT
ATOM      1  S   UNL     1       4.825   6.771  17.152  0.00  0.00    +0.000 S 
ENDROOT
BRANCH   1   2
ATOM      2  C   UNL     1       5.785   5.809  16.064  0.00  0.00    +0.000 A 
ATOM      3  N   UNL     1       7.116   5.929  16.066  0.00  0.00    +0.000 NA
ATOM      4  N   UNL     1       7.460   5.069  15.095  0.00  0.00    +0.000 N 
ATOM      5  C   UNL     1       6.359   4.467  14.554  0.00  0.00    +0.000 A 
ATOM      6  N   UNL     1       6.446   3.569  13.566  0.00  0.00    +0.000 N 
ATOM      7  N   UNL     1       5.285   4.914  15.153  0.00  0.00    +0.000 NA
ATOM      8  H   UNL     1       8.433   4.948  14.855  0.00  0.00    +0.000 HD
ATOM      9  H   UNL     1       7.299   3.327  13.076  0.00  0.00    +0.000 HD
ATOM     10  H   UNL     1       5.589   3.211  13.155  0.00  0.00    +0.000 HD
ENDBRANCH   1   2
BRANCH   1  11
ATOM     11  C   UNL     1       3.683   5.547  17.848  0.00  0.00    +0.000 C 
BRANCH  11  12
ATOM     12  C   UNL     1       4.500   4.465  18.563  0.00  0.00    +0.000 C 
BRANCH  12  13
ATOM     13  C   UNL     1       4.179   3.069  18.029  0.00  0.00    +0.000 C 
BRANCH  13  14
ATOM     14  C   UNL     1       3.235   2.322  18.976  0.00  0.00    +0.000 C 
BRANCH  14  15
ATOM     15  C   UNL     1       1.842   2.179  18.363  0.00  0.00    +0.000 C 
BRANCH  15  16
ATOM     16  C   UNL     1       0.781   2.819  19.255  0.00  0.00    +0.000 C 
BRANCH  16  18
ATOM     17  C   UNL     1       1.390   4.792  20.683  0.00  0.00    +0.000 C 
ATOM     18  C   UNL     1       1.379   3.278  20.584  0.00  0.00    +0.000 C 
ENDBRANCH  16  18
ENDBRANCH  15  16
ENDBRANCH  14  15
ENDBRANCH  13  14
ENDBRANCH  12  13
ENDBRANCH  11  12
ENDBRANCH   1  11
TORSDOF 8
ENDMDL
MODEL 9
REMARK VINA RESULT:      -5.6      1.325      1.701
REMARK  Name = 
REMARK  9 active torsions:
REMARK  status: ('A' for Active; 'I' for Inactive)
REMARK    1  A    between atoms: C_1  and  C_2
REMARK    2  A    between atoms: C_2  and  C_3
REMARK    3  A    between atoms: C_3  and  C_4
REMARK    4  A    between atoms: C_4  and  C_5
REMARK    5  A    between atoms: C_5  and  C_6
REMARK    6  A    between atoms: C_6  and  C_7
REMARK    7  A    between atoms: C_7  and  C_8
REMARK    8  A    between atoms: C_8  and  S_9
REMARK    9  A    between atoms: S_9  and  C_10
REMARK                            x       y       z     vdW  Elec       q    Type
REMARK                         _______ _______ _______ _____ _____    ______ ____
ROOT
ATOM      1  S   UNL     1       7.215   4.741  17.711  0.00  0.00    +0.000 S 
ENDROOT
BRANCH   1   2
ATOM      2  C   UNL     1       7.033   4.643  15.983  0.00  0.00    +0.000 A 
ATOM      3  N   UNL     1       7.585   5.575  15.200  0.00  0.00    +0.000 NA
ATOM      4  N   UNL     1       7.195   5.163  13.984  0.00  0.00    +0.000 N 
ATOM      5  C   UNL     1       6.444   4.024  14.064  0.00  0.00    +0.000 A 
ATOM      6  N   UNL     1       5.939   3.421  12.981  0.00  0.00    +0.000 N 
ATOM      7  N   UNL     1       6.330   3.670  15.319  0.00  0.00    +0.000 NA
ATOM      8  H   UNL     1       7.463   5.692  13.166  0.00  0.00    +0.000 HD
ATOM      9  H   UNL     1       5.982   3.790  12.039  0.00  0.00    +0.000 HD
ATOM     10  H   UNL     1       5.327   2.620  13.110  0.00  0.00    +0.000 HD
ENDBRANCH   1   2
BRANCH   1  11
ATOM     11  C   UNL     1       6.103   6.107  18.142  0.00  0.00    +0.000 C 
BRANCH  11  12
ATOM     12  C   UNL     1       4.800   5.521  18.698  0.00  0.00    +0.000 C 
BRANCH  12  13
ATOM     13  C   UNL     1       3.676   5.560  17.662  0.00  0.00    +0.000 C 
BRANCH  13  14
ATOM     14  C   UNL     1       2.308   5.385  18.329  0.00  0.00    +0.000 C 
BRANCH  14  15
ATOM     15  C   UNL     1       1.504   4.278  17.648  0.00  0.00    +0.000 C 
BRANCH  15  16
ATOM     16  C   UNL     1       2.366   3.040  17.411  0.00  0.00    +0.000 C 
BRANCH  16  18
ATOM     17  C   UNL     1       3.815   1.868  19.094  0.00  0.00    +0.000 C 
ATOM     18  C   UNL     1       2.391   2.138  18.643  0.00  0.00    +0.000 C 
ENDBRANCH  16  18
ENDBRANCH  15  16
ENDBRANCH  14  15
ENDBRANCH  13  14
ENDBRANCH  12  13
ENDBRANCH  11  12
ENDBRANCH   1  11
TORSDOF 8
ENDMDL
