MODEL 1
REMARK VINA RESULT:      -6.4      0.000      0.000
REMARK  Name = 
REMARK  9 active torsions:
REMARK  status: ('A' for Active; 'I' for Inactive)
REMARK    1  A    between atoms: C_1  and  C_2
REMARK    2  A    between atoms: C_2  and  O_3
REMARK    3  A    between atoms: O_3  and  C_4
REMARK    4  A    between atoms: C_4  and  C_6
REMARK    5  A    between atoms: C_6  and  C_7
REMARK    6  A    between atoms: C_14  and  C_15
REMARK    7  A    between atoms: C_15  and  N_16
REMARK    8  A    between atoms: N_16  and  C_17
REMARK    9  A    between atoms: N_16  and  C_18
REMARK                            x       y       z     vdW  Elec       q    Type
REMARK                         _______ _______ _______ _____ _____    ______ ____
ROOT
ATOM      1  C   UNL     1       3.069   4.636  18.316  0.00  0.00    +0.000 C 
ATOM      2  C   UNL     1       4.263   3.981  19.017  0.00  0.00    +0.000 C 
ATOM      3  C   UNL     1       4.326   4.214  17.536  0.00  0.00    +0.000 C 
ENDROOT
BRANCH   1   4
ATOM      4  C   UNL     1       2.735   6.080  18.661  0.00  0.00    +0.000 A 
ATOM      5  C   UNL     1       2.326   6.452  19.957  0.00  0.00    +0.000 A 
ATOM      6  C   UNL     1       1.828   7.731  20.227  0.00  0.00    +0.000 A 
ATOM      7  C   UNL     1       1.741   8.673  19.205  0.00  0.00    +0.000 A 
ATOM      8  C   UNL     1       2.175   8.343  17.925  0.00  0.00    +0.000 A 
ATOM      9  C   UNL     1       2.665   7.063  17.660  0.00  0.00    +0.000 A 
ENDBRANCH   1   4
BRANCH   1  10
ATOM     10  C   UNL     1       1.865   3.774  18.073  0.00  0.00    +0.000 C 
ATOM     11  O   UNL     1       1.023   4.041  17.223  0.00  0.00    +0.000 OA
BRANCH  10  12
ATOM     12  O   UNL     1       1.789   2.769  19.004  0.00  0.00    +0.000 OA
BRANCH  12  14
ATOM     13  C   UNL     1       1.558   2.941  21.408  0.00  0.00    +0.000 C 
ATOM     14  C   UNL     1       0.864   3.002  20.065  0.00  0.00    +0.000 C 
ENDBRANCH  12  14
ENDBRANCH  10  12
ENDBRANCH   1  10
BRANCH   3  15
ATOM     15  C   UNL     1       5.333   5.144  16.946  0.00  0.00    +0.000 C 
BRANCH  15  16
ATOM     16  N   UNL     1       6.547   4.422  16.531  0.00  0.00    +0.000 NA
ATOM     17  C   UNL     1       7.056   4.833  15.221  0.00  0.00    +0.000 C 
ATOM     18  C   UNL     1       7.595   4.605  17.539  0.00  0.00    +0.000 C 
ENDBRANCH  15  16
ENDBRANCH   3  15
TORSDOF 6
ENDMDL
MODEL 2
REMARK VINA RESULT:      -6.4      2.656      4.546
REMARK  Name = 
REMARK  9 active torsions:
REMARK  status: ('A' for Active; 'I' for Inactive)
REMARK    1  A    between atoms: C_1  and  C_2
REMARK    2  A    between atoms: C_2  and  O_3
REMARK    3  A    between atoms: O_3  and  C_4
REMARK    4  A    between atoms: C_4  and  C_6
REMARK    5  A    between atoms: C_6  and  C_7
REMARK    6  A    between atoms: C_14  and  C_15
REMARK    7  A    between atoms: C_15  and  N_16
REMARK    8  A    between atoms: N_16  and  C_17
REMARK    9  A    between atoms: N_16  and  C_18
REMARK                            x       y       z     vdW  Elec       q    Type
REMARK                         _______ _______ _______ _____ _____    ______ ____
ROOT
ATOM      1  C   UNL     1       4.885   5.176  17.685  0.00  0.00    +0.000 C 
ATOM      2  C   UNL     1       4.850   4.853  16.188  0.00  0.00    +0.000 C 
ATOM      3  C   UNL     1       4.380   3.818  17.166  0.00  0.00    +0.000 C 
ENDROOT
BRANCH   1   4
ATOM      4  C   UNL     1       3.969   6.272  18.206  0.00  0.00    +0.000 A 
ATOM      5  C   UNL     1       3.258   6.126  19.414  0.00  0.00    +0.000 A 
ATOM      6  C   UNL     1       2.269   7.038  19.795  0.00  0.00    +0.000 A 
ATOM      7  C   UNL     1       1.977   8.128  18.979  0.00  0.00    +0.000 A 
ATOM      8  C   UNL     1       2.691   8.317  17.800  0.00  0.00    +0.000 A 
ATOM      9  C   UNL     1       3.674   7.400  17.422  0.00  0.00    +0.000 A 
ENDBRANCH   1   4
BRANCH   1  10
ATOM     10  C   UNL     1       6.223   5.126  18.361  0.00  0.00    +0.000 C 
ATOM     11  O   UNL     1       6.384   4.629  19.470  0.00  0.00    +0.000 OA
BRANCH  10  12
ATOM     12  O   UNL     1       7.161   5.819  17.638  0.00  0.00    +0.000 OA
BRANCH  12  14
ATOM     13  C   UNL     1       7.800   8.154  17.591  0.00  0.00    +0.000 C 
ATOM     14  C   UNL     1       7.833   6.851  18.359  0.00  0.00    +0.000 C 
ENDBRANCH  12  14
ENDBRANCH  10  12
ENDBRANCH   1  10
BRANCH   3  15
ATOM     15  C   UNL     1       2.959   3.360  17.177  0.00  0.00    +0.000 C 
BRANCH  15  16
ATOM     16  N   UNL     1       2.628   2.680  18.441  0.00  0.00    +0.000 NA
ATOM     17  C   UNL     1       1.209   2.340  18.570  0.00  0.00    +0.000 C 
ATOM     18  C   UNL     1       3.434   1.463  18.568  0.00  0.00    +0.000 C 
ENDBRANCH  15  16
ENDBRANCH   3  15
TORSDOF 6
ENDMDL
MODEL 3
REMARK VINA RESULT:      -6.3      1.971      4.148
REMARK  Name = 
REMARK  9 active torsions:
REMARK  status: ('A' for Active; 'I' for Inactive)
REMARK    1  A    between atoms: C_1  and  C_2
REMARK    2  A    between atoms: C_2  and  O_3
REMARK    3  A    between atoms: O_3  and  C_4
REMARK    4  A    between atoms: C_4  and  C_6
REMARK    5  A    between atoms: C_6  and  C_7
REMARK    6  A    between atoms: C_14  and  C_15
REMARK    7  A    between atoms: C_15  and  N_16
REMARK    8  A    between atoms: N_16  and  C_17
REMARK    9  A    between atoms: N_16  and  C_18
REMARK                            x       y       z     vdW  Elec       q    Type
REMARK                         _______ _______ _______ _____ _____    ______ ____
ROOT
ATOM      1  C   UNL     1       3.089   5.840  18.593  0.00  0.00    +0.000 C 
ATOM      2  C   UNL     1       3.850   5.676  17.274  0.00  0.00    +0.000 C 
ATOM      3  C   UNL     1       4.624   5.733  18.557  0.00  0.00    +0.000 C 
ENDROOT
BRANCH   1   4
ATOM      4  C   UNL     1       2.176   4.710  19.043  0.00  0.00    +0.000 A 
ATOM      5  C   UNL     1       1.936   4.455  20.408  0.00  0.00    +0.000 A 
ATOM      6  C   UNL     1       1.264   3.303  20.830  0.00  0.00    +0.000 A 
ATOM      7  C   UNL     1       0.802   2.385  19.890  0.00  0.00    +0.000 A 
ATOM      8  C   UNL     1       0.991   2.632  18.534  0.00  0.00    +0.000 A 
ATOM      9  C   UNL     1       1.668   3.781  18.119  0.00  0.00    +0.000 A 
ENDBRANCH   1   4
BRANCH   1  10
ATOM     10  C   UNL     1       2.568   7.209  18.913  0.00  0.00    +0.000 C 
ATOM     11  O   UNL     1       2.327   7.574  20.059  0.00  0.00    +0.000 OA
BRANCH  10  12
ATOM     12  O   UNL     1       2.282   7.903  17.764  0.00  0.00    +0.000 OA
BRANCH  12  14
ATOM     13  C   UNL     1       0.638   9.665  18.004  0.00  0.00    +0.000 C 
ATOM     14  C   UNL     1       2.107   9.309  17.939  0.00  0.00    +0.000 C 
ENDBRANCH  12  14
ENDBRANCH  10  12
ENDBRANCH   1  10
BRANCH   3  15
ATOM     15  C   UNL     1       5.422   4.562  19.026  0.00  0.00    +0.000 C 
BRANCH  15  16
ATOM     16  N   UNL     1       6.836   4.691  18.636  0.00  0.00    +0.000 NA
ATOM     17  C   UNL     1       7.072   4.477  17.207  0.00  0.00    +0.000 C 
ATOM     18  C   UNL     1       7.332   6.015  19.019  0.00  0.00    +0.000 C 
ENDBRANCH  15  16
ENDBRANCH   3  15
TORSDOF 6
ENDMDL
MODEL 4
REMARK VINA RESULT:      -6.2      2.915      5.101
REMARK  Name = 
REMARK  9 active torsions:
REMARK  status: ('A' for Active; 'I' for Inactive)
REMARK    1  A    between atoms: C_1  and  C_2
REMARK    2  A    between atoms: C_2  and  O_3
REMARK    3  A    between atoms: O_3  and  C_4
REMARK    4  A    between atoms: C_4  and  C_6
REMARK    5  A    between atoms: C_6  and  C_7
REMARK    6  A    between atoms: C_14  and  C_15
REMARK    7  A    between atoms: C_15  and  N_16
REMARK    8  A    between atoms: N_16  and  C_17
REMARK    9  A    between atoms: N_16  and  C_18
REMARK                            x       y       z     vdW  Elec       q    Type
REMARK                         _______ _______ _______ _____ _____    ______ ____
ROOT
ATOM      1  C   UNL     1       5.635   5.089  16.547  0.00  0.00    +0.000 C 
ATOM      2  C   UNL     1       5.547   6.223  15.522  0.00  0.00    +0.000 C 
ATOM      3  C   UNL     1       6.008   4.869  15.070  0.00  0.00    +0.000 C 
ENDROOT
BRANCH   1   4
ATOM      4  C   UNL     1       4.346   4.584  17.175  0.00  0.00    +0.000 A 
ATOM      5  C   UNL     1       4.007   3.216  17.165  0.00  0.00    +0.000 A 
ATOM      6  C   UNL     1       2.740   2.774  17.559  0.00  0.00    +0.000 A 
ATOM      7  C   UNL     1       1.784   3.693  17.986  0.00  0.00    +0.000 A 
ATOM      8  C   UNL     1       2.106   5.045  18.042  0.00  0.00    +0.000 A 
ATOM      9  C   UNL     1       3.371   5.482  17.642  0.00  0.00    +0.000 A 
ENDBRANCH   1   4
BRANCH   1  10
ATOM     10  C   UNL     1       6.804   5.111  17.488  0.00  0.00    +0.000 C 
ATOM     11  O   UNL     1       6.897   4.348  18.443  0.00  0.00    +0.000 OA
BRANCH  10  12
ATOM     12  O   UNL     1       7.637   6.163  17.205  0.00  0.00    +0.000 OA
BRANCH  12  14
ATOM     13  C   UNL     1       8.017   8.476  17.813  0.00  0.00    +0.000 C 
ATOM     14  C   UNL     1       7.876   7.050  18.298  0.00  0.00    +0.000 C 
ENDBRANCH  12  14
ENDBRANCH  10  12
ENDBRANCH   1  10
BRANCH   3  15
ATOM     15  C   UNL     1       5.215   4.075  14.085  0.00  0.00    +0.000 C 
BRANCH  15  16
ATOM     16  N   UNL     1       6.084   3.484  13.054  0.00  0.00    +0.000 NA
ATOM     17  C   UNL     1       5.361   3.041  11.860  0.00  0.00    +0.000 C 
ATOM     18  C   UNL     1       7.115   4.451  12.669  0.00  0.00    +0.000 C 
ENDBRANCH  15  16
ENDBRANCH   3  15
TORSDOF 6
ENDMDL
MODEL 5
REMARK VINA RESULT:      -6.2      0.952      1.569
REMARK  Name = 
REMARK  9 active torsions:
REMARK  status: ('A' for Active; 'I' for Inactive)
REMARK    1  A    between atoms: C_1  and  C_2
REMARK    2  A    between atoms: C_2  and  O_3
REMARK    3  A    between atoms: O_3  and  C_4
REMARK    4  A    between atoms: C_4  and  C_6
REMARK    5  A    between atoms: C_6  and  C_7
REMARK    6  A    between atoms: C_14  and  C_15
REMARK    7  A    between atoms: C_15  and  N_16
REMARK    8  A    between atoms: N_16  and  C_17
REMARK    9  A    between atoms: N_16  and  C_18
REMARK                            x       y       z     vdW  Elec       q    Type
REMARK                         _______ _______ _______ _____ _____    ______ ____
ROOT
ATOM      1  C   UNL     1       3.061   5.120  18.589  0.00  0.00    +0.000 C 
ATOM      2  C   UNL     1       4.277   4.726  19.433  0.00  0.00    +0.000 C 
ATOM      3  C   UNL     1       4.461   4.979  17.966  0.00  0.00    +0.000 C 
ENDROOT
BRANCH   1   4
ATOM      4  C   UNL     1       2.393   6.457  18.868  0.00  0.00    +0.000 A 
ATOM      5  C   UNL     1       2.281   7.446  17.871  0.00  0.00    +0.000 A 
ATOM      6  C   UNL     1       1.852   8.743  18.172  0.00  0.00    +0.000 A 
ATOM      7  C   UNL     1       1.512   9.076  19.481  0.00  0.00    +0.000 A 
ATOM      8  C   UNL     1       1.577   8.107  20.477  0.00  0.00    +0.000 A 
ATOM      9  C   UNL     1       2.011   6.815  20.171  0.00  0.00    +0.000 A 
ENDBRANCH   1   4
BRANCH   1  10
ATOM     10  C   UNL     1       2.104   4.025  18.222  0.00  0.00    +0.000 C 
ATOM     11  O   UNL     1       1.319   4.120  17.285  0.00  0.00    +0.000 OA
BRANCH  10  12
ATOM     12  O   UNL     1       2.146   3.011  19.146  0.00  0.00    +0.000 OA
BRANCH  12  14
ATOM     13  C   UNL     1       1.546   2.863  21.487  0.00  0.00    +0.000 C 
ATOM     14  C   UNL     1       1.052   2.988  20.063  0.00  0.00    +0.000 C 
ENDBRANCH  12  14
ENDBRANCH  10  12
ENDBRANCH   1  10
BRANCH   3  15
ATOM     15  C   UNL     1       5.312   6.105  17.481  0.00  0.00    +0.000 C 
BRANCH  15  16
ATOM     16  N   UNL     1       6.702   5.962  17.945  0.00  0.00    +0.000 NA
ATOM     17  C   UNL     1       7.373   4.768  17.427  0.00  0.00    +0.000 C 
ATOM     18  C   UNL     1       7.469   7.153  17.570  0.00  0.00    +0.000 C 
ENDBRANCH  15  16
ENDBRANCH   3  15
TORSDOF 6
ENDMDL
MODEL 6
REMARK VINA RESULT:      -6.2      1.928      4.217
REMARK  Name = 
REMARK  9 active torsions:
REMARK  status: ('A' for Active; 'I' for Inactive)
REMARK    1  A    between atoms: C_1  and  C_2
REMARK    2  A    between atoms: C_2  and  O_3
REMARK    3  A    between atoms: O_3  and  C_4
REMARK    4  A    between atoms: C_4  and  C_6
REMARK    5  A    between atoms: C_6  and  C_7
REMARK    6  A    between atoms: C_14  and  C_15
REMARK    7  A    between atoms: C_15  and  N_16
REMARK    8  A    between atoms: N_16  and  C_17
REMARK    9  A    between atoms: N_16  and  C_18
REMARK                            x       y       z     vdW  Elec       q    Type
REMARK                         _______ _______ _______ _____ _____    ______ ____
ROOT
ATOM      1  C   UNL     1       3.254   5.775  18.587  0.00  0.00    +0.000 C 
ATOM      2  C   UNL     1       4.003   5.688  17.254  0.00  0.00    +0.000 C 
ATOM      3  C   UNL     1       4.791   5.806  18.524  0.00  0.00    +0.000 C 
ENDROOT
BRANCH   1   4
ATOM      4  C   UNL     1       2.453   4.566  19.043  0.00  0.00    +0.000 A 
ATOM      5  C   UNL     1       1.896   3.659  18.119  0.00  0.00    +0.000 A 
ATOM      6  C   UNL     1       0.997   2.666  18.520  0.00  0.00    +0.000 A 
ATOM      7  C   UNL     1       0.645   2.549  19.863  0.00  0.00    +0.000 A 
ATOM      8  C   UNL     1       1.210   3.406  20.801  0.00  0.00    +0.000 A 
ATOM      9  C   UNL     1       2.103   4.400  20.394  0.00  0.00    +0.000 A 
ENDBRANCH   1   4
BRANCH   1  10
ATOM     10  C   UNL     1       2.618   7.091  18.925  0.00  0.00    +0.000 C 
ATOM     11  O   UNL     1       2.421   7.452  20.080  0.00  0.00    +0.000 OA
BRANCH  10  12
ATOM     12  O   UNL     1       2.183   7.728  17.790  0.00  0.00    +0.000 OA
BRANCH  12  14
ATOM     13  C   UNL     1       0.706   9.635  18.007  0.00  0.00    +0.000 C 
ATOM     14  C   UNL     1       2.134   9.152  17.882  0.00  0.00    +0.000 C 
ENDBRANCH  12  14
ENDBRANCH  10  12
ENDBRANCH   1  10
BRANCH   3  15
ATOM     15  C   UNL     1       5.700   4.709  18.971  0.00  0.00    +0.000 C 
BRANCH  15  16
ATOM     16  N   UNL     1       7.071   4.919  18.478  0.00  0.00    +0.000 NA
ATOM     17  C   UNL     1       7.268   4.488  17.092  0.00  0.00    +0.000 C 
ATOM     18  C   UNL     1       7.426   6.335  18.603  0.00  0.00    +0.000 C 
ENDBRANCH  15  16
ENDBRANCH   3  15
TORSDOF 6
ENDMDL
MODEL 7
REMARK VINA RESULT:      -6.2      2.861      4.721
REMARK  Name = 
REMARK  9 active torsions:
REMARK  status: ('A' for Active; 'I' for Inactive)
REMARK    1  A    between atoms: C_1  and  C_2
REMARK    2  A    between atoms: C_2  and  O_3
REMARK    3  A    between atoms: O_3  and  C_4
REMARK    4  A    between atoms: C_4  and  C_6
REMARK    5  A    between atoms: C_6  and  C_7
REMARK    6  A    between atoms: C_14  and  C_15
REMARK    7  A    between atoms: C_15  and  N_16
REMARK    8  A    between atoms: N_16  and  C_17
REMARK    9  A    between atoms: N_16  and  C_18
REMARK                            x       y       z     vdW  Elec       q    Type
REMARK                         _______ _______ _______ _____ _____    ______ ____
ROOT
ATOM      1  C   UNL     1       4.957   4.757  17.513  0.00  0.00    +0.000 C 
ATOM      2  C   UNL     1       4.909   5.889  16.482  0.00  0.00    +0.000 C 
ATOM      3  C   UNL     1       5.811   4.717  16.234  0.00  0.00    +0.000 C 
ENDROOT
BRANCH   1   4
ATOM      4  C   UNL     1       3.707   3.917  17.719  0.00  0.00    +0.000 A 
ATOM      5  C   UNL     1       2.420   4.492  17.694  0.00  0.00    +0.000 A 
ATOM      6  C   UNL     1       1.288   3.767  18.079  0.00  0.00    +0.000 A 
ATOM      7  C   UNL     1       1.416   2.442  18.486  0.00  0.00    +0.000 A 
ATOM      8  C   UNL     1       2.670   1.838  18.483  0.00  0.00    +0.000 A 
ATOM      9  C   UNL     1       3.798   2.569  18.103  0.00  0.00    +0.000 A 
ENDBRANCH   1   4
BRANCH   1  10
ATOM     10  C   UNL     1       5.732   5.016  18.771  0.00  0.00    +0.000 C 
ATOM     11  O   UNL     1       5.221   5.503  19.773  0.00  0.00    +0.000 OA
BRANCH  10  12
ATOM     12  O   UNL     1       7.068   4.765  18.582  0.00  0.00    +0.000 OA
BRANCH  12  14
ATOM     13  C   UNL     1       7.903   7.019  18.289  0.00  0.00    +0.000 C 
ATOM     14  C   UNL     1       7.947   5.754  19.117  0.00  0.00    +0.000 C 
ENDBRANCH  12  14
ENDBRANCH  10  12
ENDBRANCH   1  10
BRANCH   3  15
ATOM     15  C   UNL     1       5.589   3.807  15.071  0.00  0.00    +0.000 C 
BRANCH  15  16
ATOM     16  N   UNL     1       6.058   4.420  13.817  0.00  0.00    +0.000 NA
ATOM     17  C   UNL     1       7.400   5.000  13.914  0.00  0.00    +0.000 C 
ATOM     18  C   UNL     1       6.035   3.422  12.745  0.00  0.00    +0.000 C 
ENDBRANCH  15  16
ENDBRANCH   3  15
TORSDOF 6
ENDMDL
MODEL 8
REMARK VINA RESULT:      -6.2      3.090      5.223
REMARK  Name = 
REMARK  9 active torsions:
REMARK  status: ('A' for Active; 'I' for Inactive)
REMARK    1  A    between atoms: C_1  and  C_2
REMARK    2  A    between atoms: C_2  and  O_3
REMARK    3  A    between atoms: O_3  and  C_4
REMARK    4  A    between atoms: C_4  and  C_6
REMARK    5  A    between atoms: C_6  and  C_7
REMARK    6  A    between atoms: C_14  and  C_15
REMARK    7  A    between atoms: C_15  and  N_16
REMARK    8  A    between atoms: N_16  and  C_17
REMARK    9  A    between atoms: N_16  and  C_18
REMARK                            x       y       z     vdW  Elec       q    Type
REMARK                         _______ _______ _______ _____ _____    ______ ____
ROOT
ATOM      1  C   UNL     1       5.782   4.800  16.363  0.00  0.00    +0.000 C 
ATOM      2  C   UNL     1       5.610   5.882  15.293  0.00  0.00    +0.000 C 
ATOM      3  C   UNL     1       6.065   4.515  14.878  0.00  0.00    +0.000 C 
ENDROOT
BRANCH   1   4
ATOM      4  C   UNL     1       4.544   4.307  17.095  0.00  0.00    +0.000 A 
ATOM      5  C   UNL     1       4.342   2.939  17.362  0.00  0.00    +0.000 A 
ATOM      6  C   UNL     1       3.122   2.461  17.851  0.00  0.00    +0.000 A 
ATOM      7  C   UNL     1       2.077   3.349  18.099  0.00  0.00    +0.000 A 
ATOM      8  C   UNL     1       2.264   4.710  17.881  0.00  0.00    +0.000 A 
ATOM      9  C   UNL     1       3.482   5.180  17.386  0.00  0.00    +0.000 A 
ENDBRANCH   1   4
BRANCH   1  10
ATOM     10  C   UNL     1       7.007   4.885  17.225  0.00  0.00    +0.000 C 
ATOM     11  O   UNL     1       7.999   4.191  17.034  0.00  0.00    +0.000 OA
BRANCH  10  12
ATOM     12  O   UNL     1       6.794   5.720  18.294  0.00  0.00    +0.000 OA
BRANCH  12  14
ATOM     13  C   UNL     1       7.746   7.838  17.609  0.00  0.00    +0.000 C 
ATOM     14  C   UNL     1       7.843   6.654  18.545  0.00  0.00    +0.000 C 
ENDBRANCH  12  14
ENDBRANCH  10  12
ENDBRANCH   1  10
BRANCH   3  15
ATOM     15  C   UNL     1       5.227   3.663  13.983  0.00  0.00    +0.000 C 
BRANCH  15  16
ATOM     16  N   UNL     1       5.516   3.933  12.565  0.00  0.00    +0.000 NA
ATOM     17  C   UNL     1       6.899   3.638  12.182  0.00  0.00    +0.000 C 
ATOM     18  C   UNL     1       4.602   3.159  11.722  0.00  0.00    +0.000 C 
ENDBRANCH  15  16
ENDBRANCH   3  15
TORSDOF 6
ENDMDL
MODEL 9
REMARK VINA RESULT:      -6.1      1.102      1.304
REMARK  Name = 
REMARK  9 active torsions:
REMARK  status: ('A' for Active; 'I' for Inactive)
REMARK    1  A    between atoms: C_1  and  C_2
REMARK    2  A    between atoms: C_2  and  O_3
REMARK    3  A    between atoms: O_3  and  C_4
REMARK    4  A    between atoms: C_4  and  C_6
REMARK    5  A    between atoms: C_6  and  C_7
REMARK    6  A    between atoms: C_14  and  C_15
REMARK    7  A    between atoms: C_15  and  N_16
REMARK    8  A    between atoms: N_16  and  C_17
REMARK    9  A    between atoms: N_16  and  C_18
REMARK                            x       y       z     vdW  Elec       q    Type
REMARK                         _______ _______ _______ _____ _____    ______ ____
ROOT
ATOM      1  C   UNL     1       3.182   5.603  18.147  0.00  0.00    +0.000 C 
ATOM      2  C   UNL     1       4.564   5.198  18.668  0.00  0.00    +0.000 C 
ATOM      3  C   UNL     1       4.401   5.519  17.212  0.00  0.00    +0.000 C 
ENDROOT
BRANCH   1   4
ATOM      4  C   UNL     1       2.584   6.913  18.636  0.00  0.00    +0.000 A 
ATOM      5  C   UNL     1       2.216   7.097  19.984  0.00  0.00    +0.000 A 
ATOM      6  C   UNL     1       1.486   8.217  20.396  0.00  0.00    +0.000 A 
ATOM      7  C   UNL     1       1.118   9.187  19.467  0.00  0.00    +0.000 A 
ATOM      8  C   UNL     1       1.501   9.049  18.137  0.00  0.00    +0.000 A 
ATOM      9  C   UNL     1       2.226   7.926  17.730  0.00  0.00    +0.000 A 
ENDBRANCH   1   4
BRANCH   1  10
ATOM     10  C   UNL     1       2.176   4.506  17.960  0.00  0.00    +0.000 C 
ATOM     11  O   UNL     1       1.155   4.652  17.298  0.00  0.00    +0.000 OA
BRANCH  10  12
ATOM     12  O   UNL     1       2.497   3.415  18.728  0.00  0.00    +0.000 OA
BRANCH  12  14
ATOM     13  C   UNL     1       1.156   3.608  20.735  0.00  0.00    +0.000 C 
ATOM     14  C   UNL     1       1.405   2.848  19.451  0.00  0.00    +0.000 C 
ENDBRANCH  12  14
ENDBRANCH  10  12
ENDBRANCH   1  10
BRANCH   3  15
ATOM     15  C   UNL     1       5.105   6.683  16.598  0.00  0.00    +0.000 C 
BRANCH  15  16
ATOM     16  N   UNL     1       6.507   6.356  16.287  0.00  0.00    +0.000 NA
ATOM     17  C   UNL     1       7.434   6.653  17.381  0.00  0.00    +0.000 C 
ATOM     18  C   UNL     1       6.612   4.939  15.931  0.00  0.00    +0.000 C 
ENDBRANCH  15  16
ENDBRANCH   3  15
TORSDOF 6
ENDMDL
