MODEL 1
REMARK VINA RESULT:      -9.1      0.000      0.000
REMARK  Name = 
REMARK  4 active torsions:
REMARK  status: ('A' for Active; 'I' for Inactive)
REMARK    1  A    between atoms: C_2  and  O_3
REMARK    2  A    between atoms: C_2  and  C_4
REMARK    3  A    between atoms: C_11  and  N_12
REMARK    4  A    between atoms: N_12  and  C_13
REMARK                            x       y       z     vdW  Elec       q    Type
REMARK                         _______ _______ _______ _____ _____    ______ ____
ROOT
ATOM      1  C   UNL     1       5.988   5.366  16.641  0.00  0.00    +0.000 A 
ATOM      2  C   UNL     1       5.541   4.089  16.293  0.00  0.00    +0.000 A 
ATOM      3  C   UNL     1       4.432   3.545  16.938  0.00  0.00    +0.000 A 
ATOM      4  C   UNL     1       3.762   4.293  17.933  0.00  0.00    +0.000 A 
ATOM      5  C   UNL     1       4.202   5.580  18.272  0.00  0.00    +0.000 A 
ATOM      6  C   UNL     1       5.307   6.102  17.618  0.00  0.00    +0.000 A 
ATOM      7  N   UNL     1       3.605   6.328  19.197  0.00  0.00    +0.000 NA
ATOM      8  C   UNL     1       2.521   5.893  19.895  0.00  0.00    +0.000 A 
ATOM      9  C   UNL     1       1.993   4.607  19.616  0.00  0.00    +0.000 A 
ATOM     10  C   UNL     1       0.840   3.930  20.161  0.00  0.00    +0.000 A 
ATOM     11  C   UNL     1       0.622   2.693  19.607  0.00  0.00    +0.000 A 
ATOM     12  S   UNL     1       1.797   2.307  18.442  0.00  0.00    +0.000 S 
ATOM     13  C   UNL     1       2.615   3.824  18.634  0.00  0.00    +0.000 A 
ENDROOT
BRANCH   1  15
ATOM     14  O   UNL     1       7.568   5.438  14.872  0.00  0.00    +0.000 OA
ATOM     15  C   UNL     1       7.154   5.921  15.913  0.00  0.00    +0.000 C 
BRANCH  15  16
ATOM     16  O   UNL     1       7.743   6.965  16.531  0.00  0.00    +0.000 OA
ATOM     17  H   UNL     1       8.221   6.753  17.353  0.00  0.00    +0.000 HD
ENDBRANCH  15  16
ENDBRANCH   1  15
BRANCH   8  18
ATOM     18  N   UNL     1       1.985   6.720  20.892  0.00  0.00    +0.000 N 
ATOM     19  H   UNL     1       1.806   6.283  21.782  0.00  0.00    +0.000 HD
BRANCH  18  20
ATOM     20  C   UNL     1       1.517   8.041  20.763  0.00  0.00    +0.000 A 
ATOM     21  C   UNL     1       1.073   8.769  21.873  0.00  0.00    +0.000 A 
ATOM     22  C   UNL     1       0.557  10.065  21.751  0.00  0.00    +0.000 A 
ATOM     23  C   UNL     1       0.439  10.634  20.474  0.00  0.00    +0.000 A 
ATOM     24  C   UNL     1      -0.062  11.872  19.989  0.00  0.00    +0.000 A 
ATOM     25  C   UNL     1       0.050  11.860  18.617  0.00  0.00    +0.000 A 
ATOM     26  N   UNL     1       0.615  10.666  18.253  0.00  0.00    +0.000 N 
ATOM     27  C   UNL     1       0.868   9.898  19.369  0.00  0.00    +0.000 A 
ATOM     28  C   UNL     1       1.421   8.613  19.484  0.00  0.00    +0.000 A 
ATOM     29  H   UNL     1       0.806  10.378  17.304  0.00  0.00    +0.000 HD
ENDBRANCH  18  20
ENDBRANCH   8  18
TORSDOF 4
ENDMDL
MODEL 2
REMARK VINA RESULT:      -9.1      0.942      1.191
REMARK  Name = 
REMARK  4 active torsions:
REMARK  status: ('A' for Active; 'I' for Inactive)
REMARK    1  A    between atoms: C_2  and  O_3
REMARK    2  A    between atoms: C_2  and  C_4
REMARK    3  A    between atoms: C_11  and  N_12
REMARK    4  A    between atoms: N_12  and  C_13
REMARK                            x       y       z     vdW  Elec       q    Type
REMARK                         _______ _______ _______ _____ _____    ______ ____
ROOT
ATOM      1  C   UNL     1       5.616   4.671  15.903  0.00  0.00    +0.000 A 
ATOM      2  C   UNL     1       5.036   3.400  15.935  0.00  0.00    +0.000 A 
ATOM      3  C   UNL     1       4.043   3.118  16.871  0.00  0.00    +0.000 A 
ATOM      4  C   UNL     1       3.623   4.120  17.774  0.00  0.00    +0.000 A 
ATOM      5  C   UNL     1       4.194   5.400  17.733  0.00  0.00    +0.000 A 
ATOM      6  C   UNL     1       5.180   5.661  16.793  0.00  0.00    +0.000 A 
ATOM      7  N   UNL     1       3.832   6.380  18.556  0.00  0.00    +0.000 NA
ATOM      8  C   UNL     1       2.881   6.212  19.514  0.00  0.00    +0.000 A 
ATOM      9  C   UNL     1       2.235   4.955  19.629  0.00  0.00    +0.000 A 
ATOM     10  C   UNL     1       1.173   4.525  20.507  0.00  0.00    +0.000 A 
ATOM     11  C   UNL     1       0.780   3.228  20.292  0.00  0.00    +0.000 A 
ATOM     12  S   UNL     1       1.682   2.490  19.056  0.00  0.00    +0.000 S 
ATOM     13  C   UNL     1       2.609   3.925  18.754  0.00  0.00    +0.000 A 
ENDROOT
BRANCH   1  15
ATOM     14  O   UNL     1       7.580   5.705  15.066  0.00  0.00    +0.000 OA
ATOM     15  C   UNL     1       6.648   4.943  14.874  0.00  0.00    +0.000 C 
BRANCH  15  16
ATOM     16  O   UNL     1       6.433   4.316  13.700  0.00  0.00    +0.000 OA
ATOM     17  H   UNL     1       6.347   4.896  12.922  0.00  0.00    +0.000 HD
ENDBRANCH  15  16
ENDBRANCH   1  15
BRANCH   8  18
ATOM     18  N   UNL     1       2.598   7.279  20.377  0.00  0.00    +0.000 N 
ATOM     19  H   UNL     1       3.098   7.288  21.252  0.00  0.00    +0.000 HD
BRANCH  18  20
ATOM     20  C   UNL     1       1.589   8.252  20.250  0.00  0.00    +0.000 A 
ATOM     21  C   UNL     1       0.689   8.511  21.291  0.00  0.00    +0.000 A 
ATOM     22  C   UNL     1      -0.351   9.439  21.157  0.00  0.00    +0.000 A 
ATOM     23  C   UNL     1      -0.523  10.098  19.930  0.00  0.00    +0.000 A 
ATOM     24  C   UNL     1      -1.466  11.043  19.443  0.00  0.00    +0.000 A 
ATOM     25  C   UNL     1      -1.150  11.310  18.130  0.00  0.00    +0.000 A 
ATOM     26  N   UNL     1      -0.040  10.573  17.808  0.00  0.00    +0.000 N 
ATOM     27  C   UNL     1       0.368   9.825  18.892  0.00  0.00    +0.000 A 
ATOM     28  C   UNL     1       1.435   8.925  19.026  0.00  0.00    +0.000 A 
ATOM     29  H   UNL     1       0.408  10.562  16.903  0.00  0.00    +0.000 HD
ENDBRANCH  18  20
ENDBRANCH   8  18
TORSDOF 4
ENDMDL
MODEL 3
REMARK VINA RESULT:      -8.9      1.021      1.472
REMARK  Name = 
REMARK  4 active torsions:
REMARK  status: ('A' for Active; 'I' for Inactive)
REMARK    1  A    between atoms: C_2  and  O_3
REMARK    2  A    between atoms: C_2  and  C_4
REMARK    3  A    between atoms: C_11  and  N_12
REMARK    4  A    between atoms: N_12  and  C_13
REMARK                            x       y       z     vdW  Elec       q    Type
REMARK                         _______ _______ _______ _____ _____    ______ ____
ROOT
ATOM      1  C   UNL     1       5.736   5.094  16.270  0.00  0.00    +0.000 A 
ATOM      2  C   UNL     1       5.242   3.795  16.124  0.00  0.00    +0.000 A 
ATOM      3  C   UNL     1       4.198   3.358  16.937  0.00  0.00    +0.000 A 
ATOM      4  C   UNL     1       3.640   4.233  17.896  0.00  0.00    +0.000 A 
ATOM      5  C   UNL     1       4.126   5.541  18.033  0.00  0.00    +0.000 A 
ATOM      6  C   UNL     1       5.165   5.957  17.214  0.00  0.00    +0.000 A 
ATOM      7  N   UNL     1       3.634   6.407  18.915  0.00  0.00    +0.000 NA
ATOM      8  C   UNL     1       2.621   6.083  19.764  0.00  0.00    +0.000 A 
ATOM      9  C   UNL     1       2.053   4.786  19.696  0.00  0.00    +0.000 A 
ATOM     10  C   UNL     1       0.954   4.205  20.430  0.00  0.00    +0.000 A 
ATOM     11  C   UNL     1       0.668   2.917  20.052  0.00  0.00    +0.000 A 
ATOM     12  S   UNL     1       1.714   2.368  18.832  0.00  0.00    +0.000 S 
ATOM     13  C   UNL     1       2.564   3.877  18.758  0.00  0.00    +0.000 A 
ENDROOT
BRANCH   1  15
ATOM     14  O   UNL     1       6.903   5.172  14.206  0.00  0.00    +0.000 OA
ATOM     15  C   UNL     1       6.828   5.531  15.369  0.00  0.00    +0.000 C 
BRANCH  15  16
ATOM     16  O   UNL     1       7.753   6.312  15.963  0.00  0.00    +0.000 OA
ATOM     17  H   UNL     1       7.933   7.163  15.523  0.00  0.00    +0.000 HD
ENDBRANCH  15  16
ENDBRANCH   1  15
BRANCH   8  18
ATOM     18  N   UNL     1       2.198   7.035  20.702  0.00  0.00    +0.000 N 
ATOM     19  H   UNL     1       2.365   6.809  21.670  0.00  0.00    +0.000 HD
BRANCH  18  20
ATOM     20  C   UNL     1       1.428   8.191  20.477  0.00  0.00    +0.000 A 
ATOM     21  C   UNL     1       1.430   8.840  19.237  0.00  0.00    +0.000 A 
ATOM     22  C   UNL     1       0.709  10.020  19.017  0.00  0.00    +0.000 A 
ATOM     23  C   UNL     1      -0.001  10.594  20.082  0.00  0.00    +0.000 A 
ATOM     24  C   UNL     1      -0.784  11.771  20.224  0.00  0.00    +0.000 A 
ATOM     25  C   UNL     1      -1.210  11.834  21.531  0.00  0.00    +0.000 A 
ATOM     26  N   UNL     1      -0.727  10.731  22.183  0.00  0.00    +0.000 N 
ATOM     27  C   UNL     1       0.013   9.952  21.321  0.00  0.00    +0.000 A 
ATOM     28  C   UNL     1       0.701   8.749  21.542  0.00  0.00    +0.000 A 
ATOM     29  H   UNL     1      -0.875  10.522  23.161  0.00  0.00    +0.000 HD
ENDBRANCH  18  20
ENDBRANCH   8  18
TORSDOF 4
ENDMDL
MODEL 4
REMARK VINA RESULT:      -8.4      1.772      2.217
REMARK  Name = 
REMARK  4 active torsions:
REMARK  status: ('A' for Active; 'I' for Inactive)
REMARK    1  A    between atoms: C_2  and  O_3
REMARK    2  A    between atoms: C_2  and  C_4
REMARK    3  A    between atoms: C_11  and  N_12
REMARK    4  A    between atoms: N_12  and  C_13
REMARK                            x       y       z     vdW  Elec       q    Type
REMARK                         _______ _______ _______ _____ _____    ______ ____
ROOT
ATOM      1  C   UNL     1       5.686   4.748  15.582  0.00  0.00    +0.000 A 
ATOM      2  C   UNL     1       5.282   3.557  16.191  0.00  0.00    +0.000 A 
ATOM      3  C   UNL     1       4.396   3.597  17.266  0.00  0.00    +0.000 A 
ATOM      4  C   UNL     1       3.906   4.840  17.727  0.00  0.00    +0.000 A 
ATOM      5  C   UNL     1       4.301   6.034  17.107  0.00  0.00    +0.000 A 
ATOM      6  C   UNL     1       5.182   5.972  16.038  0.00  0.00    +0.000 A 
ATOM      7  N   UNL     1       3.866   7.229  17.498  0.00  0.00    +0.000 NA
ATOM      8  C   UNL     1       3.007   7.385  18.541  0.00  0.00    +0.000 A 
ATOM      9  C   UNL     1       2.541   6.235  19.227  0.00  0.00    +0.000 A 
ATOM     10  C   UNL     1       1.602   6.112  20.316  0.00  0.00    +0.000 A 
ATOM     11  C   UNL     1       1.370   4.811  20.690  0.00  0.00    +0.000 A 
ATOM     12  S   UNL     1       2.281   3.715  19.766  0.00  0.00    +0.000 S 
ATOM     13  C   UNL     1       2.990   4.975  18.808  0.00  0.00    +0.000 A 
ENDROOT
BRANCH   1  15
ATOM     14  O   UNL     1       7.473   5.495  14.212  0.00  0.00    +0.000 OA
ATOM     15  C   UNL     1       6.608   4.663  14.424  0.00  0.00    +0.000 C 
BRANCH  15  16
ATOM     16  O   UNL     1       6.366   3.620  13.605  0.00  0.00    +0.000 OA
ATOM     17  H   UNL     1       5.494   3.617  13.171  0.00  0.00    +0.000 HD
ENDBRANCH  15  16
ENDBRANCH   1  15
BRANCH   8  18
ATOM     18  N   UNL     1       2.642   8.683  18.925  0.00  0.00    +0.000 N 
ATOM     19  H   UNL     1       3.353   9.226  19.388  0.00  0.00    +0.000 HD
BRANCH  18  20
ATOM     20  C   UNL     1       1.362   9.269  18.890  0.00  0.00    +0.000 A 
ATOM     21  C   UNL     1       0.750   9.755  20.051  0.00  0.00    +0.000 A 
ATOM     22  C   UNL     1      -0.543  10.293  20.037  0.00  0.00    +0.000 A 
ATOM     23  C   UNL     1      -1.263  10.304  18.833  0.00  0.00    +0.000 A 
ATOM     24  C   UNL     1      -2.572  10.723  18.472  0.00  0.00    +0.000 A 
ATOM     25  C   UNL     1      -2.742  10.456  17.133  0.00  0.00    +0.000 A 
ATOM     26  N   UNL     1      -1.579   9.904  16.664  0.00  0.00    +0.000 N 
ATOM     27  C   UNL     1      -0.655   9.803  17.682  0.00  0.00    +0.000 A 
ATOM     28  C   UNL     1       0.654   9.297  17.677  0.00  0.00    +0.000 A 
ATOM     29  H   UNL     1      -1.421   9.598  15.715  0.00  0.00    +0.000 HD
ENDBRANCH  18  20
ENDBRANCH   8  18
TORSDOF 4
ENDMDL
MODEL 5
REMARK VINA RESULT:      -8.2      4.886      8.456
REMARK  Name = 
REMARK  4 active torsions:
REMARK  status: ('A' for Active; 'I' for Inactive)
REMARK    1  A    between atoms: C_2  and  O_3
REMARK    2  A    between atoms: C_2  and  C_4
REMARK    3  A    between atoms: C_11  and  N_12
REMARK    4  A    between atoms: N_12  and  C_13
REMARK                            x       y       z     vdW  Elec       q    Type
REMARK                         _______ _______ _______ _____ _____    ______ ____
ROOT
ATOM      1  C   UNL     1      -3.330  10.413  15.488  0.00  0.00    +0.000 A 
ATOM      2  C   UNL     1      -4.294  11.220  16.100  0.00  0.00    +0.000 A 
ATOM      3  C   UNL     1      -4.083  11.686  17.396  0.00  0.00    +0.000 A 
ATOM      4  C   UNL     1      -2.893  11.348  18.079  0.00  0.00    +0.000 A 
ATOM      5  C   UNL     1      -1.919  10.551  17.460  0.00  0.00    +0.000 A 
ATOM      6  C   UNL     1      -2.148  10.098  16.169  0.00  0.00    +0.000 A 
ATOM      7  N   UNL     1      -0.780  10.208  18.056  0.00  0.00    +0.000 NA
ATOM      8  C   UNL     1      -0.475  10.599  19.323  0.00  0.00    +0.000 A 
ATOM      9  C   UNL     1      -1.392  11.418  20.029  0.00  0.00    +0.000 A 
ATOM     10  C   UNL     1      -1.299  12.009  21.344  0.00  0.00    +0.000 A 
ATOM     11  C   UNL     1      -2.385  12.782  21.671  0.00  0.00    +0.000 A 
ATOM     12  S   UNL     1      -3.544  12.802  20.429  0.00  0.00    +0.000 S 
ATOM     13  C   UNL     1      -2.588  11.789  19.398  0.00  0.00    +0.000 A 
ENDROOT
BRANCH   1  15
ATOM     14  O   UNL     1      -2.677   9.791  13.294  0.00  0.00    +0.000 OA
ATOM     15  C   UNL     1      -3.577   9.960  14.098  0.00  0.00    +0.000 C 
BRANCH  15  16
ATOM     16  O   UNL     1      -4.882   9.807  13.794  0.00  0.00    +0.000 OA
ATOM     17  H   UNL     1      -5.242   8.911  13.920  0.00  0.00    +0.000 HD
ENDBRANCH  15  16
ENDBRANCH   1  15
BRANCH   8  18
ATOM     18  N   UNL     1       0.720  10.148  19.899  0.00  0.00    +0.000 N 
ATOM     19  H   UNL     1       1.164  10.776  20.551  0.00  0.00    +0.000 HD
BRANCH  18  20
ATOM     20  C   UNL     1       1.465   9.001  19.565  0.00  0.00    +0.000 A 
ATOM     21  C   UNL     1       2.064   8.861  18.308  0.00  0.00    +0.000 A 
ATOM     22  C   UNL     1       2.763   7.703  17.946  0.00  0.00    +0.000 A 
ATOM     23  C   UNL     1       2.827   6.634  18.852  0.00  0.00    +0.000 A 
ATOM     24  C   UNL     1       3.398   5.334  18.804  0.00  0.00    +0.000 A 
ATOM     25  C   UNL     1       3.111   4.706  19.995  0.00  0.00    +0.000 A 
ATOM     26  N   UNL     1       2.399   5.584  20.770  0.00  0.00    +0.000 N 
ATOM     27  C   UNL     1       2.214   6.773  20.098  0.00  0.00    +0.000 A 
ATOM     28  C   UNL     1       1.543   7.943  20.485  0.00  0.00    +0.000 A 
ATOM     29  H   UNL     1       2.043   5.387  21.695  0.00  0.00    +0.000 HD
ENDBRANCH  18  20
ENDBRANCH   8  18
TORSDOF 4
ENDMDL
MODEL 6
REMARK VINA RESULT:      -8.2      3.202      7.178
REMARK  Name = 
REMARK  4 active torsions:
REMARK  status: ('A' for Active; 'I' for Inactive)
REMARK    1  A    between atoms: C_2  and  O_3
REMARK    2  A    between atoms: C_2  and  C_4
REMARK    3  A    between atoms: C_11  and  N_12
REMARK    4  A    between atoms: N_12  and  C_13
REMARK                            x       y       z     vdW  Elec       q    Type
REMARK                         _______ _______ _______ _____ _____    ______ ____
ROOT
ATOM      1  C   UNL     1       1.777   8.682  18.997  0.00  0.00    +0.000 A 
ATOM      2  C   UNL     1       1.368   8.256  20.264  0.00  0.00    +0.000 A 
ATOM      3  C   UNL     1       1.622   6.946  20.667  0.00  0.00    +0.000 A 
ATOM      4  C   UNL     1       2.298   6.061  19.797  0.00  0.00    +0.000 A 
ATOM      5  C   UNL     1       2.720   6.492  18.532  0.00  0.00    +0.000 A 
ATOM      6  C   UNL     1       2.459   7.800  18.150  0.00  0.00    +0.000 A 
ATOM      7  N   UNL     1       3.364   5.703  17.676  0.00  0.00    +0.000 NA
ATOM      8  C   UNL     1       3.654   4.405  17.962  0.00  0.00    +0.000 A 
ATOM      9  C   UNL     1       3.278   3.877  19.224  0.00  0.00    +0.000 A 
ATOM     10  C   UNL     1       3.504   2.572  19.797  0.00  0.00    +0.000 A 
ATOM     11  C   UNL     1       3.018   2.447  21.075  0.00  0.00    +0.000 A 
ATOM     12  S   UNL     1       2.266   3.874  21.608  0.00  0.00    +0.000 S 
ATOM     13  C   UNL     1       2.610   4.713  20.129  0.00  0.00    +0.000 A 
ENDROOT
BRANCH   1  15
ATOM     14  O   UNL     1       0.958  10.879  19.360  0.00  0.00    +0.000 OA
ATOM     15  C   UNL     1       1.514  10.090  18.615  0.00  0.00    +0.000 C 
BRANCH  15  16
ATOM     16  O   UNL     1       1.894  10.399  17.359  0.00  0.00    +0.000 OA
ATOM     17  H   UNL     1       1.188  10.727  16.773  0.00  0.00    +0.000 HD
ENDBRANCH  15  16
ENDBRANCH   1  15
BRANCH   8  18
ATOM     18  N   UNL     1       4.285   3.624  16.985  0.00  0.00    +0.000 N 
ATOM     19  H   UNL     1       4.094   2.635  17.014  0.00  0.00    +0.000 HD
BRANCH  18  20
ATOM     20  C   UNL     1       5.276   4.018  16.066  0.00  0.00    +0.000 A 
ATOM     21  C   UNL     1       6.275   4.934  16.419  0.00  0.00    +0.000 A 
ATOM     22  C   UNL     1       7.234   5.374  15.499  0.00  0.00    +0.000 A 
ATOM     23  C   UNL     1       7.167   4.919  14.173  0.00  0.00    +0.000 A 
ATOM     24  C   UNL     1       7.927   5.180  13.002  0.00  0.00    +0.000 A 
ATOM     25  C   UNL     1       7.367   4.461  11.971  0.00  0.00    +0.000 A 
ATOM     26  N   UNL     1       6.304   3.761  12.477  0.00  0.00    +0.000 N 
ATOM     27  C   UNL     1       6.161   4.018  13.823  0.00  0.00    +0.000 A 
ATOM     28  C   UNL     1       5.217   3.542  14.746  0.00  0.00    +0.000 A 
ATOM     29  H   UNL     1       5.698   3.155  11.942  0.00  0.00    +0.000 HD
ENDBRANCH  18  20
ENDBRANCH   8  18
TORSDOF 4
ENDMDL
MODEL 7
REMARK VINA RESULT:      -8.1      1.675      2.368
REMARK  Name = 
REMARK  4 active torsions:
REMARK  status: ('A' for Active; 'I' for Inactive)
REMARK    1  A    between atoms: C_2  and  O_3
REMARK    2  A    between atoms: C_2  and  C_4
REMARK    3  A    between atoms: C_11  and  N_12
REMARK    4  A    between atoms: N_12  and  C_13
REMARK                            x       y       z     vdW  Elec       q    Type
REMARK                         _______ _______ _______ _____ _____    ______ ____
ROOT
ATOM      1  C   UNL     1       5.730   4.859  15.569  0.00  0.00    +0.000 A 
ATOM      2  C   UNL     1       5.343   3.657  16.166  0.00  0.00    +0.000 A 
ATOM      3  C   UNL     1       4.447   3.672  17.233  0.00  0.00    +0.000 A 
ATOM      4  C   UNL     1       3.928   4.901  17.698  0.00  0.00    +0.000 A 
ATOM      5  C   UNL     1       4.305   6.107  17.090  0.00  0.00    +0.000 A 
ATOM      6  C   UNL     1       5.198   6.070  16.029  0.00  0.00    +0.000 A 
ATOM      7  N   UNL     1       3.844   7.291  17.485  0.00  0.00    +0.000 NA
ATOM      8  C   UNL     1       2.973   7.423  18.521  0.00  0.00    +0.000 A 
ATOM      9  C   UNL     1       2.522   6.259  19.194  0.00  0.00    +0.000 A 
ATOM     10  C   UNL     1       1.576   6.110  20.274  0.00  0.00    +0.000 A 
ATOM     11  C   UNL     1       1.366   4.803  20.637  0.00  0.00    +0.000 A 
ATOM     12  S   UNL     1       2.306   3.731  19.714  0.00  0.00    +0.000 S 
ATOM     13  C   UNL     1       3.000   5.011  18.771  0.00  0.00    +0.000 A 
ENDROOT
BRANCH   1  15
ATOM     14  O   UNL     1       7.652   5.509  14.340  0.00  0.00    +0.000 OA
ATOM     15  C   UNL     1       6.663   4.801  14.419  0.00  0.00    +0.000 C 
BRANCH  15  16
ATOM     16  O   UNL     1       6.291   3.938  13.452  0.00  0.00    +0.000 OA
ATOM     17  H   UNL     1       6.964   3.285  13.186  0.00  0.00    +0.000 HD
ENDBRANCH  15  16
ENDBRANCH   1  15
BRANCH   8  18
ATOM     18  N   UNL     1       2.578   8.710  18.911  0.00  0.00    +0.000 N 
ATOM     19  H   UNL     1       3.252   9.241  19.440  0.00  0.00    +0.000 HD
BRANCH  18  20
ATOM     20  C   UNL     1       1.305   9.299  18.795  0.00  0.00    +0.000 A 
ATOM     21  C   UNL     1       0.523   9.128  17.646  0.00  0.00    +0.000 A 
ATOM     22  C   UNL     1      -0.722   9.751  17.499  0.00  0.00    +0.000 A 
ATOM     23  C   UNL     1      -1.181  10.607  18.511  0.00  0.00    +0.000 A 
ATOM     24  C   UNL     1      -2.341  11.411  18.671  0.00  0.00    +0.000 A 
ATOM     25  C   UNL     1      -2.230  12.071  19.873  0.00  0.00    +0.000 A 
ATOM     26  N   UNL     1      -1.051  11.685  20.456  0.00  0.00    +0.000 N 
ATOM     27  C   UNL     1      -0.391  10.787  19.647  0.00  0.00    +0.000 A 
ATOM     28  C   UNL     1       0.842  10.138  19.822  0.00  0.00    +0.000 A 
ATOM     29  H   UNL     1      -0.703  12.021  21.343  0.00  0.00    +0.000 HD
ENDBRANCH  18  20
ENDBRANCH   8  18
TORSDOF 4
ENDMDL
MODEL 8
REMARK VINA RESULT:      -7.9      3.198      7.198
REMARK  Name = 
REMARK  4 active torsions:
REMARK  status: ('A' for Active; 'I' for Inactive)
REMARK    1  A    between atoms: C_2  and  O_3
REMARK    2  A    between atoms: C_2  and  C_4
REMARK    3  A    between atoms: C_11  and  N_12
REMARK    4  A    between atoms: N_12  and  C_13
REMARK                            x       y       z     vdW  Elec       q    Type
REMARK                         _______ _______ _______ _____ _____    ______ ____
ROOT
ATOM      1  C   UNL     1       1.866   8.507  18.908  0.00  0.00    +0.000 A 
ATOM      2  C   UNL     1       1.189   7.961  20.002  0.00  0.00    +0.000 A 
ATOM      3  C   UNL     1       1.499   6.673  20.434  0.00  0.00    +0.000 A 
ATOM      4  C   UNL     1       2.502   5.932  19.770  0.00  0.00    +0.000 A 
ATOM      5  C   UNL     1       3.192   6.484  18.681  0.00  0.00    +0.000 A 
ATOM      6  C   UNL     1       2.869   7.768  18.268  0.00  0.00    +0.000 A 
ATOM      7  N   UNL     1       4.147   5.832  18.025  0.00  0.00    +0.000 NA
ATOM      8  C   UNL     1       4.523   4.567  18.355  0.00  0.00    +0.000 A 
ATOM      9  C   UNL     1       3.892   3.925  19.450  0.00  0.00    +0.000 A 
ATOM     10  C   UNL     1       4.129   2.628  20.038  0.00  0.00    +0.000 A 
ATOM     11  C   UNL     1       3.333   2.370  21.126  0.00  0.00    +0.000 A 
ATOM     12  S   UNL     1       2.275   3.657  21.455  0.00  0.00    +0.000 S 
ATOM     13  C   UNL     1       2.892   4.616  20.149  0.00  0.00    +0.000 A 
ENDROOT
BRANCH   1  15
ATOM     14  O   UNL     1       0.705  10.568  19.087  0.00  0.00    +0.000 OA
ATOM     15  C   UNL     1       1.528   9.890  18.496  0.00  0.00    +0.000 C 
BRANCH  15  16
ATOM     16  O   UNL     1       2.170  10.305  17.385  0.00  0.00    +0.000 OA
ATOM     17  H   UNL     1       2.959  10.858  17.535  0.00  0.00    +0.000 HD
ENDBRANCH  15  16
ENDBRANCH   1  15
BRANCH   8  18
ATOM     18  N   UNL     1       5.499   3.929  17.577  0.00  0.00    +0.000 N 
ATOM     19  H   UNL     1       6.150   3.342  18.074  0.00  0.00    +0.000 HD
BRANCH  18  20
ATOM     20  C   UNL     1       5.786   4.126  16.213  0.00  0.00    +0.000 A 
ATOM     21  C   UNL     1       5.018   3.521  15.211  0.00  0.00    +0.000 A 
ATOM     22  C   UNL     1       5.325   3.667  13.853  0.00  0.00    +0.000 A 
ATOM     23  C   UNL     1       6.462   4.404  13.486  0.00  0.00    +0.000 A 
ATOM     24  C   UNL     1       7.077   4.714  12.243  0.00  0.00    +0.000 A 
ATOM     25  C   UNL     1       8.205   5.455  12.509  0.00  0.00    +0.000 A 
ATOM     26  N   UNL     1       8.289   5.621  13.866  0.00  0.00    +0.000 N 
ATOM     27  C   UNL     1       7.233   4.991  14.489  0.00  0.00    +0.000 A 
ATOM     28  C   UNL     1       6.913   4.882  15.852  0.00  0.00    +0.000 A 
ATOM     29  H   UNL     1       9.026   6.116  14.348  0.00  0.00    +0.000 HD
ENDBRANCH  18  20
ENDBRANCH   8  18
TORSDOF 4
ENDMDL
MODEL 9
REMARK VINA RESULT:      -7.9      4.723      8.338
REMARK  Name = 
REMARK  4 active torsions:
REMARK  status: ('A' for Active; 'I' for Inactive)
REMARK    1  A    between atoms: C_2  and  O_3
REMARK    2  A    between atoms: C_2  and  C_4
REMARK    3  A    between atoms: C_11  and  N_12
REMARK    4  A    between atoms: N_12  and  C_13
REMARK                            x       y       z     vdW  Elec       q    Type
REMARK                         _______ _______ _______ _____ _____    ______ ____
ROOT
ATOM      1  C   UNL     1      -1.137  11.467  22.228  0.00  0.00    +0.000 A 
ATOM      2  C   UNL     1      -0.868  12.118  21.022  0.00  0.00    +0.000 A 
ATOM      3  C   UNL     1      -0.081  11.491  20.058  0.00  0.00    +0.000 A 
ATOM      4  C   UNL     1       0.434  10.198  20.304  0.00  0.00    +0.000 A 
ATOM      5  C   UNL     1       0.154   9.539  21.509  0.00  0.00    +0.000 A 
ATOM      6  C   UNL     1      -0.634  10.180  22.454  0.00  0.00    +0.000 A 
ATOM      7  N   UNL     1       0.608   8.320  21.789  0.00  0.00    +0.000 NA
ATOM      8  C   UNL     1       1.393   7.621  20.926  0.00  0.00    +0.000 A 
ATOM      9  C   UNL     1       1.724   8.199  19.674  0.00  0.00    +0.000 A 
ATOM     10  C   UNL     1       2.484   7.665  18.568  0.00  0.00    +0.000 A 
ATOM     11  C   UNL     1       2.557   8.519  17.496  0.00  0.00    +0.000 A 
ATOM     12  S   UNL     1       1.741   9.979  17.793  0.00  0.00    +0.000 S 
ATOM     13  C   UNL     1       1.236   9.478  19.374  0.00  0.00    +0.000 A 
ENDROOT
BRANCH   1  15
ATOM     14  O   UNL     1      -3.105  11.736  23.525  0.00  0.00    +0.000 OA
ATOM     15  C   UNL     1      -2.001  12.154  23.217  0.00  0.00    +0.000 C 
BRANCH  15  16
ATOM     16  O   UNL     1      -1.483  13.302  23.697  0.00  0.00    +0.000 OA
ATOM     17  H   UNL     1      -0.595  13.534  23.369  0.00  0.00    +0.000 HD
ENDBRANCH  15  16
ENDBRANCH   1  15
BRANCH   8  18
ATOM     18  N   UNL     1       1.877   6.366  21.320  0.00  0.00    +0.000 N 
ATOM     19  H   UNL     1       2.342   6.329  22.213  0.00  0.00    +0.000 HD
BRANCH  18  20
ATOM     20  C   UNL     1       1.939   5.183  20.560  0.00  0.00    +0.000 A 
ATOM     21  C   UNL     1       0.800   4.399  20.336  0.00  0.00    +0.000 A 
ATOM     22  C   UNL     1       0.859   3.194  19.626  0.00  0.00    +0.000 A 
ATOM     23  C   UNL     1       2.102   2.734  19.165  0.00  0.00    +0.000 A 
ATOM     24  C   UNL     1       2.525   1.571  18.466  0.00  0.00    +0.000 A 
ATOM     25  C   UNL     1       3.890   1.649  18.314  0.00  0.00    +0.000 A 
ATOM     26  N   UNL     1       4.309   2.824  18.880  0.00  0.00    +0.000 N 
ATOM     27  C   UNL     1       3.235   3.510  19.405  0.00  0.00    +0.000 A 
ATOM     28  C   UNL     1       3.183   4.738  20.082  0.00  0.00    +0.000 A 
ATOM     29  H   UNL     1       5.268   3.139  18.925  0.00  0.00    +0.000 HD
ENDBRANCH  18  20
ENDBRANCH   8  18
TORSDOF 4
ENDMDL
