MODEL 1
REMARK VINA RESULT:      -6.9      0.000      0.000
REMARK  Name = 
REMARK  12 active torsions:
REMARK  status: ('A' for Active; 'I' for Inactive)
REMARK    1  A    between atoms: C_1  and  C_2
REMARK    2  A    between atoms: C_2  and  C_3
REMARK    3  A    between atoms: C_3  and  C_4
REMARK    4  A    between atoms: C_4  and  C_5
REMARK    5  A    between atoms: C_5  and  C_6
REMARK    6  A    between atoms: C_6  and  C_7
REMARK    7  A    between atoms: CA_17  and  C_18
REMARK    8  A    between atoms: C_18  and  O_19
REMARK    9  A    between atoms: C_23  and  C_24
REMARK   10  A    between atoms: C_24  and  C_25
REMARK   11  A    between atoms: C_24  and  C_26
REMARK   12  A    between atoms: N_27  and  C_28
REMARK                            x       y       z     vdW  Elec       q    Type
REMARK                         _______ _______ _______ _____ _____    ______ ____
ROOT
ATOM      1  C   UNL     1       5.951   4.410  15.019  0.00  0.00    +0.000 A 
ATOM      2  C   UNL     1       5.892   3.202  15.725  0.00  0.00    +0.000 A 
ATOM      3  C   UNL     1       5.256   3.111  16.961  0.00  0.00    +0.000 A 
ATOM      4  C   UNL     1       4.688   4.237  17.600  0.00  0.00    +0.000 A 
ATOM      5  C   UNL     1       4.721   5.467  16.888  0.00  0.00    +0.000 A 
ATOM      6  C   UNL     1       4.321   6.813  17.205  0.00  0.00    +0.000 A 
ATOM      7  C   UNL     1       4.544   7.578  16.078  0.00  0.00    +0.000 A 
ATOM      8  N   UNL     1       5.128   6.786  15.136  0.00  0.00    +0.000 N 
ATOM      9  C   UNL     1       5.298   5.506  15.614  0.00  0.00    +0.000 A 
ATOM     10  C   UNL     1       3.840   7.359  18.511  0.00  0.00    +0.000 C 
ATOM     11  CA  UNL     1       2.606   6.710  19.173  0.00  0.00    +0.000 C 
ATOM     12  N   UNL     1       1.738   5.943  18.267  0.00  0.00    +0.000 N 
ATOM     13  C   UNL     1       1.840   4.607  17.961  0.00  0.00    +0.000 C 
ATOM     14  O   UNL     1       1.154   4.178  17.026  0.00  0.00    +0.000 OA
ATOM     15  C   UNL     1       2.705   3.638  18.849  0.00  0.00    +0.000 C 
ATOM     16  N   UNL     1       4.129   4.144  18.916  0.00  0.00    +0.000 N 
ATOM     17  C   UNL     1       5.082   3.466  19.791  0.00  0.00    +0.000 C 
ATOM     18  H   UNL     1       5.439   7.101  14.229  0.00  0.00    +0.000 HD
ATOM     19  H   UNL     1       1.226   6.441  17.551  0.00  0.00    +0.000 HD
ENDROOT
BRANCH  15  20
ATOM     20  C   UNL     1       1.958   3.465  20.222  0.00  0.00    +0.000 C 
ATOM     21  C   UNL     1       2.604   2.499  21.223  0.00  0.00    +0.000 C 
ATOM     22  C   UNL     1       0.521   2.947  19.996  0.00  0.00    +0.000 C 
ENDBRANCH  15  20
BRANCH   1  23
ATOM     23  C   UNL     1       6.741   4.493  13.732  0.00  0.00    +0.000 C 
BRANCH  23  24
ATOM     24  C   UNL     1       6.267   3.485  12.675  0.00  0.00    +0.000 C 
BRANCH  24  25
ATOM     25  C   UNL     1       4.788   3.662  12.324  0.00  0.00    +0.000 C 
BRANCH  25  26
ATOM     26  C   UNL     1       4.415   2.853  11.087  0.00  0.00    +0.000 C 
BRANCH  26  28
ATOM     27  C   UNL     1       3.021   4.260   9.547  0.00  0.00    +0.000 C 
ATOM     28  C   UNL     1       2.999   3.193  10.626  0.00  0.00    +0.000 C 
ENDBRANCH  26  28
ENDBRANCH  25  26
ENDBRANCH  24  25
ENDBRANCH  23  24
ENDBRANCH   1  23
BRANCH  11  29
ATOM     29  C   UNL     1       1.773   7.768  19.925  0.00  0.00    +0.000 C 
BRANCH  29  30
ATOM     30  O   UNL     1       1.615   8.978  19.182  0.00  0.00    +0.000 OA
ATOM     31  H   UNL     1       1.828   8.790  18.253  0.00  0.00    +0.000 HD
ENDBRANCH  29  30
ENDBRANCH  11  29
TORSDOF 8
ENDMDL
MODEL 2
REMARK VINA RESULT:      -6.7      4.655      8.177
REMARK  Name = 
REMARK  12 active torsions:
REMARK  status: ('A' for Active; 'I' for Inactive)
REMARK    1  A    between atoms: C_1  and  C_2
REMARK    2  A    between atoms: C_2  and  C_3
REMARK    3  A    between atoms: C_3  and  C_4
REMARK    4  A    between atoms: C_4  and  C_5
REMARK    5  A    between atoms: C_5  and  C_6
REMARK    6  A    between atoms: C_6  and  C_7
REMARK    7  A    between atoms: CA_17  and  C_18
REMARK    8  A    between atoms: C_18  and  O_19
REMARK    9  A    between atoms: C_23  and  C_24
REMARK   10  A    between atoms: C_24  and  C_25
REMARK   11  A    between atoms: C_24  and  C_26
REMARK   12  A    between atoms: N_27  and  C_28
REMARK                            x       y       z     vdW  Elec       q    Type
REMARK                         _______ _______ _______ _____ _____    ______ ____
ROOT
ATOM      1  C   UNL     1       2.156   7.723  19.124  0.00  0.00    +0.000 A 
ATOM      2  C   UNL     1       1.848   8.320  17.894  0.00  0.00    +0.000 A 
ATOM      3  C   UNL     1       1.064   9.469  17.819  0.00  0.00    +0.000 A 
ATOM      4  C   UNL     1       0.488  10.064  18.965  0.00  0.00    +0.000 A 
ATOM      5  C   UNL     1       0.807   9.483  20.223  0.00  0.00    +0.000 A 
ATOM      6  C   UNL     1       0.389   9.742  21.575  0.00  0.00    +0.000 A 
ATOM      7  C   UNL     1       1.097   8.883  22.391  0.00  0.00    +0.000 A 
ATOM      8  N   UNL     1       1.853   8.072  21.598  0.00  0.00    +0.000 N 
ATOM      9  C   UNL     1       1.662   8.376  20.269  0.00  0.00    +0.000 A 
ATOM     10  C   UNL     1      -0.671  10.680  22.059  0.00  0.00    +0.000 C 
ATOM     11  CA  UNL     1      -0.566  12.172  21.680  0.00  0.00    +0.000 C 
ATOM     12  N   UNL     1       0.776  12.628  21.290  0.00  0.00    +0.000 N 
ATOM     13  C   UNL     1       1.311  12.629  20.023  0.00  0.00    +0.000 C 
ATOM     14  O   UNL     1       2.522  12.855  19.912  0.00  0.00    +0.000 OA
ATOM     15  C   UNL     1       0.391  12.472  18.757  0.00  0.00    +0.000 C 
ATOM     16  N   UNL     1      -0.397  11.185  18.857  0.00  0.00    +0.000 N 
ATOM     17  C   UNL     1      -1.412  10.894  17.847  0.00  0.00    +0.000 C 
ATOM     18  H   UNL     1       2.437   7.320  21.932  0.00  0.00    +0.000 HD
ATOM     19  H   UNL     1       1.504  12.644  21.990  0.00  0.00    +0.000 HD
ENDROOT
BRANCH  15  20
ATOM     20  C   UNL     1      -0.445  13.797  18.615  0.00  0.00    +0.000 C 
ATOM     21  C   UNL     1       0.267  15.090  19.031  0.00  0.00    +0.000 C 
ATOM     22  C   UNL     1      -1.728  13.722  19.470  0.00  0.00    +0.000 C 
ENDBRANCH  15  20
BRANCH   1  23
ATOM     23  C   UNL     1       2.919   6.419  19.158  0.00  0.00    +0.000 C 
BRANCH  23  24
ATOM     24  C   UNL     1       2.801   5.624  17.849  0.00  0.00    +0.000 C 
BRANCH  24  25
ATOM     25  C   UNL     1       1.557   4.733  17.820  0.00  0.00    +0.000 C 
BRANCH  25  26
ATOM     26  C   UNL     1       1.923   3.268  18.027  0.00  0.00    +0.000 C 
BRANCH  26  28
ATOM     27  C   UNL     1       0.978   3.431  20.344  0.00  0.00    +0.000 C 
ATOM     28  C   UNL     1       1.004   2.622  19.060  0.00  0.00    +0.000 C 
ENDBRANCH  26  28
ENDBRANCH  25  26
ENDBRANCH  24  25
ENDBRANCH  23  24
ENDBRANCH   1  23
BRANCH  11  29
ATOM     29  C   UNL     1      -1.112  13.061  22.816  0.00  0.00    +0.000 C 
BRANCH  29  30
ATOM     30  O   UNL     1      -2.306  12.539  23.402  0.00  0.00    +0.000 OA
ATOM     31  H   UNL     1      -3.019  12.616  22.747  0.00  0.00    +0.000 HD
ENDBRANCH  29  30
ENDBRANCH  11  29
TORSDOF 8
ENDMDL
MODEL 3
REMARK VINA RESULT:      -6.6      3.114      6.565
REMARK  Name = 
REMARK  12 active torsions:
REMARK  status: ('A' for Active; 'I' for Inactive)
REMARK    1  A    between atoms: C_1  and  C_2
REMARK    2  A    between atoms: C_2  and  C_3
REMARK    3  A    between atoms: C_3  and  C_4
REMARK    4  A    between atoms: C_4  and  C_5
REMARK    5  A    between atoms: C_5  and  C_6
REMARK    6  A    between atoms: C_6  and  C_7
REMARK    7  A    between atoms: CA_17  and  C_18
REMARK    8  A    between atoms: C_18  and  O_19
REMARK    9  A    between atoms: C_23  and  C_24
REMARK   10  A    between atoms: C_24  and  C_25
REMARK   11  A    between atoms: C_24  and  C_26
REMARK   12  A    between atoms: N_27  and  C_28
REMARK                            x       y       z     vdW  Elec       q    Type
REMARK                         _______ _______ _______ _____ _____    ______ ____
ROOT
ATOM      1  C   UNL     1       1.442   9.473  18.683  0.00  0.00    +0.000 A 
ATOM      2  C   UNL     1       2.335   9.268  17.623  0.00  0.00    +0.000 A 
ATOM      3  C   UNL     1       3.080   8.096  17.515  0.00  0.00    +0.000 A 
ATOM      4  C   UNL     1       3.026   7.077  18.493  0.00  0.00    +0.000 A 
ATOM      5  C   UNL     1       2.110   7.259  19.565  0.00  0.00    +0.000 A 
ATOM      6  C   UNL     1       1.809   6.511  20.756  0.00  0.00    +0.000 A 
ATOM      7  C   UNL     1       0.768   7.159  21.391  0.00  0.00    +0.000 A 
ATOM      8  N   UNL     1       0.486   8.293  20.691  0.00  0.00    +0.000 N 
ATOM      9  C   UNL     1       1.318   8.413  19.601  0.00  0.00    +0.000 A 
ATOM     10  C   UNL     1       2.512   5.310  21.305  0.00  0.00    +0.000 C 
ATOM     11  CA  UNL     1       2.645   4.060  20.411  0.00  0.00    +0.000 C 
ATOM     12  N   UNL     1       1.686   3.977  19.300  0.00  0.00    +0.000 N 
ATOM     13  C   UNL     1       1.850   4.473  18.029  0.00  0.00    +0.000 C 
ATOM     14  O   UNL     1       0.860   4.492  17.288  0.00  0.00    +0.000 OA
ATOM     15  C   UNL     1       3.273   4.885  17.499  0.00  0.00    +0.000 C 
ATOM     16  N   UNL     1       3.876   5.926  18.417  0.00  0.00    +0.000 N 
ATOM     17  C   UNL     1       5.250   6.363  18.187  0.00  0.00    +0.000 C 
ATOM     18  H   UNL     1      -0.205   8.979  20.957  0.00  0.00    +0.000 HD
ATOM     19  H   UNL     1       0.706   3.850  19.516  0.00  0.00    +0.000 HD
ENDROOT
BRANCH  15  20
ATOM     20  C   UNL     1       4.101   3.563  17.299  0.00  0.00    +0.000 C 
ATOM     21  C   UNL     1       5.062   3.546  16.104  0.00  0.00    +0.000 C 
ATOM     22  C   UNL     1       3.158   2.356  17.106  0.00  0.00    +0.000 C 
ENDBRANCH  15  20
BRANCH   1  23
ATOM     23  C   UNL     1       0.731  10.800  18.823  0.00  0.00    +0.000 C 
BRANCH  23  24
ATOM     24  C   UNL     1      -0.791  10.682  18.658  0.00  0.00    +0.000 C 
BRANCH  24  25
ATOM     25  C   UNL     1      -1.181   9.829  17.448  0.00  0.00    +0.000 C 
BRANCH  25  26
ATOM     26  C   UNL     1      -2.640  10.047  17.068  0.00  0.00    +0.000 C 
BRANCH  26  28
ATOM     27  C   UNL     1      -3.261  10.104  14.638  0.00  0.00    +0.000 C 
ATOM     28  C   UNL     1      -2.749  10.914  15.815  0.00  0.00    +0.000 C 
ENDBRANCH  26  28
ENDBRANCH  25  26
ENDBRANCH  24  25
ENDBRANCH  23  24
ENDBRANCH   1  23
BRANCH  11  29
ATOM     29  C   UNL     1       2.577   2.774  21.260  0.00  0.00    +0.000 C 
BRANCH  29  30
ATOM     30  O   UNL     1       1.280   2.546  21.815  0.00  0.00    +0.000 OA
ATOM     31  H   UNL     1       0.625   2.681  21.111  0.00  0.00    +0.000 HD
ENDBRANCH  29  30
ENDBRANCH  11  29
TORSDOF 8
ENDMDL
MODEL 4
REMARK VINA RESULT:      -6.6      2.697      6.819
REMARK  Name = 
REMARK  12 active torsions:
REMARK  status: ('A' for Active; 'I' for Inactive)
REMARK    1  A    between atoms: C_1  and  C_2
REMARK    2  A    between atoms: C_2  and  C_3
REMARK    3  A    between atoms: C_3  and  C_4
REMARK    4  A    between atoms: C_4  and  C_5
REMARK    5  A    between atoms: C_5  and  C_6
REMARK    6  A    between atoms: C_6  and  C_7
REMARK    7  A    between atoms: CA_17  and  C_18
REMARK    8  A    between atoms: C_18  and  O_19
REMARK    9  A    between atoms: C_23  and  C_24
REMARK   10  A    between atoms: C_24  and  C_25
REMARK   11  A    between atoms: C_24  and  C_26
REMARK   12  A    between atoms: N_27  and  C_28
REMARK                            x       y       z     vdW  Elec       q    Type
REMARK                         _______ _______ _______ _____ _____    ______ ____
ROOT
ATOM      1  C   UNL     1       1.730   8.306  19.093  0.00  0.00    +0.000 A 
ATOM      2  C   UNL     1       2.467   8.609  17.940  0.00  0.00    +0.000 A 
ATOM      3  C   UNL     1       3.444   7.744  17.452  0.00  0.00    +0.000 A 
ATOM      4  C   UNL     1       3.790   6.546  18.119  0.00  0.00    +0.000 A 
ATOM      5  C   UNL     1       3.039   6.213  19.279  0.00  0.00    +0.000 A 
ATOM      6  C   UNL     1       3.118   5.150  20.245  0.00  0.00    +0.000 A 
ATOM      7  C   UNL     1       2.067   5.322  21.123  0.00  0.00    +0.000 A 
ATOM      8  N   UNL     1       1.415   6.470  20.785  0.00  0.00    +0.000 N 
ATOM      9  C   UNL     1       2.011   7.066  19.697  0.00  0.00    +0.000 A 
ATOM     10  C   UNL     1       4.165   4.091  20.382  0.00  0.00    +0.000 C 
ATOM     11  CA  UNL     1       4.449   3.174  19.175  0.00  0.00    +0.000 C 
ATOM     12  N   UNL     1       3.374   3.099  18.176  0.00  0.00    +0.000 N 
ATOM     13  C   UNL     1       3.211   3.909  17.076  0.00  0.00    +0.000 C 
ATOM     14  O   UNL     1       2.140   3.834  16.462  0.00  0.00    +0.000 OA
ATOM     15  C   UNL     1       4.392   4.805  16.550  0.00  0.00    +0.000 C 
ATOM     16  N   UNL     1       4.867   5.722  17.656  0.00  0.00    +0.000 N 
ATOM     17  C   UNL     1       6.042   6.558  17.429  0.00  0.00    +0.000 C 
ATOM     18  H   UNL     1       0.631   6.858  21.289  0.00  0.00    +0.000 HD
ATOM     19  H   UNL     1       2.500   2.664  18.437  0.00  0.00    +0.000 HD
ENDROOT
BRANCH  15  20
ATOM     20  C   UNL     1       5.469   3.845  15.926  0.00  0.00    +0.000 C 
ATOM     21  C   UNL     1       6.900   4.003  16.455  0.00  0.00    +0.000 C 
ATOM     22  C   UNL     1       5.555   4.048  14.397  0.00  0.00    +0.000 C 
ENDBRANCH  15  20
BRANCH   1  23
ATOM     23  C   UNL     1       0.755   9.317  19.651  0.00  0.00    +0.000 C 
BRANCH  23  24
ATOM     24  C   UNL     1       0.861  10.688  18.969  0.00  0.00    +0.000 C 
BRANCH  24  25
ATOM     25  C   UNL     1      -0.509  11.328  18.733  0.00  0.00    +0.000 C 
BRANCH  25  26
ATOM     26  C   UNL     1      -1.585  10.267  18.528  0.00  0.00    +0.000 C 
BRANCH  26  28
ATOM     27  C   UNL     1      -2.753  10.677  16.346  0.00  0.00    +0.000 C 
ATOM     28  C   UNL     1      -1.680   9.873  17.056  0.00  0.00    +0.000 C 
ENDBRANCH  26  28
ENDBRANCH  25  26
ENDBRANCH  24  25
ENDBRANCH  23  24
ENDBRANCH   1  23
BRANCH  11  29
ATOM     29  C   UNL     1       4.825   1.754  19.647  0.00  0.00    +0.000 C 
BRANCH  29  30
ATOM     30  O   UNL     1       5.190   1.709  21.028  0.00  0.00    +0.000 OA
ATOM     31  H   UNL     1       5.720   2.499  21.224  0.00  0.00    +0.000 HD
ENDBRANCH  29  30
ENDBRANCH  11  29
TORSDOF 8
ENDMDL
MODEL 5
REMARK VINA RESULT:      -6.5      2.524      7.771
REMARK  Name = 
REMARK  12 active torsions:
REMARK  status: ('A' for Active; 'I' for Inactive)
REMARK    1  A    between atoms: C_1  and  C_2
REMARK    2  A    between atoms: C_2  and  C_3
REMARK    3  A    between atoms: C_3  and  C_4
REMARK    4  A    between atoms: C_4  and  C_5
REMARK    5  A    between atoms: C_5  and  C_6
REMARK    6  A    between atoms: C_6  and  C_7
REMARK    7  A    between atoms: CA_17  and  C_18
REMARK    8  A    between atoms: C_18  and  O_19
REMARK    9  A    between atoms: C_23  and  C_24
REMARK   10  A    between atoms: C_24  and  C_25
REMARK   11  A    between atoms: C_24  and  C_26
REMARK   12  A    between atoms: N_27  and  C_28
REMARK                            x       y       z     vdW  Elec       q    Type
REMARK                         _______ _______ _______ _____ _____    ______ ____
ROOT
ATOM      1  C   UNL     1       1.666   8.164  19.138  0.00  0.00    +0.000 A 
ATOM      2  C   UNL     1       2.447   8.514  18.029  0.00  0.00    +0.000 A 
ATOM      3  C   UNL     1       3.450   7.674  17.550  0.00  0.00    +0.000 A 
ATOM      4  C   UNL     1       3.779   6.455  18.187  0.00  0.00    +0.000 A 
ATOM      5  C   UNL     1       2.983   6.075  19.301  0.00  0.00    +0.000 A 
ATOM      6  C   UNL     1       3.029   4.977  20.231  0.00  0.00    +0.000 A 
ATOM      7  C   UNL     1       1.941   5.109  21.070  0.00  0.00    +0.000 A 
ATOM      8  N   UNL     1       1.295   6.265  20.747  0.00  0.00    +0.000 N 
ATOM      9  C   UNL     1       1.931   6.904  19.707  0.00  0.00    +0.000 A 
ATOM     10  C   UNL     1       4.078   3.921  20.373  0.00  0.00    +0.000 C 
ATOM     11  CA  UNL     1       4.420   3.050  19.146  0.00  0.00    +0.000 C 
ATOM     12  N   UNL     1       3.387   3.006  18.100  0.00  0.00    +0.000 N 
ATOM     13  C   UNL     1       3.264   3.854  17.025  0.00  0.00    +0.000 C 
ATOM     14  O   UNL     1       2.221   3.795  16.364  0.00  0.00    +0.000 OA
ATOM     15  C   UNL     1       4.459   4.776  16.582  0.00  0.00    +0.000 C 
ATOM     16  N   UNL     1       4.880   5.655  17.740  0.00  0.00    +0.000 N 
ATOM     17  C   UNL     1       6.057   6.506  17.593  0.00  0.00    +0.000 C 
ATOM     18  H   UNL     1       0.488   6.629  21.231  0.00  0.00    +0.000 HD
ATOM     19  H   UNL     1       2.507   2.555  18.308  0.00  0.00    +0.000 HD
ENDROOT
BRANCH  15  20
ATOM     20  C   UNL     1       5.569   3.847  15.968  0.00  0.00    +0.000 C 
ATOM     21  C   UNL     1       6.998   4.082  16.473  0.00  0.00    +0.000 C 
ATOM     22  C   UNL     1       5.626   4.011  14.434  0.00  0.00    +0.000 C 
ENDBRANCH  15  20
BRANCH   1  23
ATOM     23  C   UNL     1       0.660   9.148  19.691  0.00  0.00    +0.000 C 
BRANCH  23  24
ATOM     24  C   UNL     1       0.903   9.481  21.170  0.00  0.00    +0.000 C 
BRANCH  24  25
ATOM     25  C   UNL     1      -0.282   9.089  22.057  0.00  0.00    +0.000 C 
BRANCH  25  26
ATOM     26  C   UNL     1      -0.414  10.031  23.248  0.00  0.00    +0.000 C 
BRANCH  26  28
ATOM     27  C   UNL     1      -0.859  12.424  22.640  0.00  0.00    +0.000 C 
ATOM     28  C   UNL     1      -1.486  11.086  22.987  0.00  0.00    +0.000 C 
ENDBRANCH  26  28
ENDBRANCH  25  26
ENDBRANCH  24  25
ENDBRANCH  23  24
ENDBRANCH   1  23
BRANCH  11  29
ATOM     29  C   UNL     1       4.787   1.617  19.581  0.00  0.00    +0.000 C 
BRANCH  29  30
ATOM     30  O   UNL     1       4.409   0.632  18.617  0.00  0.00    +0.000 OA
ATOM     31  H   UNL     1       4.700   0.941  17.743  0.00  0.00    +0.000 HD
ENDBRANCH  29  30
ENDBRANCH  11  29
TORSDOF 8
ENDMDL
MODEL 6
REMARK VINA RESULT:      -6.5      4.715      8.447
REMARK  Name = 
REMARK  12 active torsions:
REMARK  status: ('A' for Active; 'I' for Inactive)
REMARK    1  A    between atoms: C_1  and  C_2
REMARK    2  A    between atoms: C_2  and  C_3
REMARK    3  A    between atoms: C_3  and  C_4
REMARK    4  A    between atoms: C_4  and  C_5
REMARK    5  A    between atoms: C_5  and  C_6
REMARK    6  A    between atoms: C_6  and  C_7
REMARK    7  A    between atoms: CA_17  and  C_18
REMARK    8  A    between atoms: C_18  and  O_19
REMARK    9  A    between atoms: C_23  and  C_24
REMARK   10  A    between atoms: C_24  and  C_25
REMARK   11  A    between atoms: C_24  and  C_26
REMARK   12  A    between atoms: N_27  and  C_28
REMARK                            x       y       z     vdW  Elec       q    Type
REMARK                         _______ _______ _______ _____ _____    ______ ____
ROOT
ATOM      1  C   UNL     1       1.866   8.129  19.345  0.00  0.00    +0.000 A 
ATOM      2  C   UNL     1       1.635   8.774  18.123  0.00  0.00    +0.000 A 
ATOM      3  C   UNL     1       0.947   9.984  18.058  0.00  0.00    +0.000 A 
ATOM      4  C   UNL     1       0.393  10.598  19.205  0.00  0.00    +0.000 A 
ATOM      5  C   UNL     1       0.635   9.967  20.455  0.00  0.00    +0.000 A 
ATOM      6  C   UNL     1       0.207  10.229  21.804  0.00  0.00    +0.000 A 
ATOM      7  C   UNL     1       0.825   9.298  22.614  0.00  0.00    +0.000 A 
ATOM      8  N   UNL     1       1.532   8.447  21.819  0.00  0.00    +0.000 N 
ATOM      9  C   UNL     1       1.398   8.794  20.494  0.00  0.00    +0.000 A 
ATOM     10  C   UNL     1      -0.786  11.237  22.286  0.00  0.00    +0.000 C 
ATOM     11  CA  UNL     1      -0.554  12.724  21.945  0.00  0.00    +0.000 C 
ATOM     12  N   UNL     1       0.829  13.079  21.595  0.00  0.00    +0.000 N 
ATOM     13  C   UNL     1       1.392  13.066  20.341  0.00  0.00    +0.000 C 
ATOM     14  O   UNL     1       2.619  13.196  20.262  0.00  0.00    +0.000 OA
ATOM     15  C   UNL     1       0.493  13.011  19.051  0.00  0.00    +0.000 C 
ATOM     16  N   UNL     1      -0.398  11.788  19.103  0.00  0.00    +0.000 N 
ATOM     17  C   UNL     1      -1.408  11.602  18.066  0.00  0.00    +0.000 C 
ATOM     18  H   UNL     1       2.047   7.643  22.149  0.00  0.00    +0.000 HD
ATOM     19  H   UNL     1       1.539  13.022  22.312  0.00  0.00    +0.000 HD
ENDROOT
BRANCH  15  20
ATOM     20  C   UNL     1      -0.231  14.400  18.922  0.00  0.00    +0.000 C 
ATOM     21  C   UNL     1       0.577  15.625  19.369  0.00  0.00    +0.000 C 
ATOM     22  C   UNL     1      -1.528  14.416  19.760  0.00  0.00    +0.000 C 
ENDBRANCH  15  20
BRANCH   1  23
ATOM     23  C   UNL     1       2.522   6.767  19.365  0.00  0.00    +0.000 C 
BRANCH  23  24
ATOM     24  C   UNL     1       3.292   6.456  18.073  0.00  0.00    +0.000 C 
BRANCH  24  25
ATOM     25  C   UNL     1       3.170   4.987  17.662  0.00  0.00    +0.000 C 
BRANCH  25  26
ATOM     26  C   UNL     1       1.720   4.519  17.713  0.00  0.00    +0.000 C 
BRANCH  26  28
ATOM     27  C   UNL     1       2.527   2.151  17.900  0.00  0.00    +0.000 C 
ATOM     28  C   UNL     1       1.604   3.205  18.483  0.00  0.00    +0.000 C 
ENDBRANCH  26  28
ENDBRANCH  25  26
ENDBRANCH  24  25
ENDBRANCH  23  24
ENDBRANCH   1  23
BRANCH  11  29
ATOM     29  C   UNL     1      -1.054  13.629  23.089  0.00  0.00    +0.000 C 
BRANCH  29  30
ATOM     30  O   UNL     1      -0.211  14.762  23.307  0.00  0.00    +0.000 OA
ATOM     31  H   UNL     1       0.669  14.437  23.556  0.00  0.00    +0.000 HD
ENDBRANCH  29  30
ENDBRANCH  11  29
TORSDOF 8
ENDMDL
MODEL 7
REMARK VINA RESULT:      -6.5      0.846      1.188
REMARK  Name = 
REMARK  12 active torsions:
REMARK  status: ('A' for Active; 'I' for Inactive)
REMARK    1  A    between atoms: C_1  and  C_2
REMARK    2  A    between atoms: C_2  and  C_3
REMARK    3  A    between atoms: C_3  and  C_4
REMARK    4  A    between atoms: C_4  and  C_5
REMARK    5  A    between atoms: C_5  and  C_6
REMARK    6  A    between atoms: C_6  and  C_7
REMARK    7  A    between atoms: CA_17  and  C_18
REMARK    8  A    between atoms: C_18  and  O_19
REMARK    9  A    between atoms: C_23  and  C_24
REMARK   10  A    between atoms: C_24  and  C_25
REMARK   11  A    between atoms: C_24  and  C_26
REMARK   12  A    between atoms: N_27  and  C_28
REMARK                            x       y       z     vdW  Elec       q    Type
REMARK                         _______ _______ _______ _____ _____    ______ ____
ROOT
ATOM      1  C   UNL     1       5.802   4.715  15.205  0.00  0.00    +0.000 A 
ATOM      2  C   UNL     1       5.732   3.364  15.570  0.00  0.00    +0.000 A 
ATOM      3  C   UNL     1       5.094   2.958  16.740  0.00  0.00    +0.000 A 
ATOM      4  C   UNL     1       4.534   3.882  17.652  0.00  0.00    +0.000 A 
ATOM      5  C   UNL     1       4.578   5.255  17.288  0.00  0.00    +0.000 A 
ATOM      6  C   UNL     1       4.189   6.474  17.946  0.00  0.00    +0.000 A 
ATOM      7  C   UNL     1       4.419   7.506  17.059  0.00  0.00    +0.000 A 
ATOM      8  N   UNL     1       4.999   6.984  15.942  0.00  0.00    +0.000 N 
ATOM      9  C   UNL     1       5.157   5.622  16.067  0.00  0.00    +0.000 A 
ATOM     10  C   UNL     1       3.709   6.662  19.350  0.00  0.00    +0.000 C 
ATOM     11  CA  UNL     1       2.469   5.873  19.819  0.00  0.00    +0.000 C 
ATOM     12  N   UNL     1       1.597   5.378  18.745  0.00  0.00    +0.000 N 
ATOM     13  C   UNL     1       1.688   4.168  18.099  0.00  0.00    +0.000 C 
ATOM     14  O   UNL     1       1.000   4.005  17.084  0.00  0.00    +0.000 OA
ATOM     15  C   UNL     1       2.544   2.993  18.701  0.00  0.00    +0.000 C 
ATOM     16  N   UNL     1       3.972   3.451  18.897  0.00  0.00    +0.000 N 
ATOM     17  C   UNL     1       4.918   2.560  19.564  0.00  0.00    +0.000 C 
ATOM     18  H   UNL     1       5.313   7.523  15.149  0.00  0.00    +0.000 HD
ATOM     19  H   UNL     1       1.090   6.050  18.184  0.00  0.00    +0.000 HD
ENDROOT
BRANCH  15  20
ATOM     20  C   UNL     1       1.793   2.472  19.981  0.00  0.00    +0.000 C 
ATOM     21  C   UNL     1       0.327   2.900  20.123  0.00  0.00    +0.000 C 
ATOM     22  C   UNL     1       2.504   2.959  21.262  0.00  0.00    +0.000 C 
ENDBRANCH  15  20
BRANCH   1  23
ATOM     23  C   UNL     1       6.595   5.126  13.985  0.00  0.00    +0.000 C 
BRANCH  23  24
ATOM     24  C   UNL     1       7.230   3.933  13.257  0.00  0.00    +0.000 C 
BRANCH  24  25
ATOM     25  C   UNL     1       6.701   3.772  11.831  0.00  0.00    +0.000 C 
BRANCH  25  26
ATOM     26  C   UNL     1       5.612   2.707  11.764  0.00  0.00    +0.000 C 
BRANCH  26  28
ATOM     27  C   UNL     1       3.539   3.281  10.474  0.00  0.00    +0.000 C 
ATOM     28  C   UNL     1       4.227   3.345  11.825  0.00  0.00    +0.000 C 
ENDBRANCH  26  28
ENDBRANCH  25  26
ENDBRANCH  24  25
ENDBRANCH  23  24
ENDBRANCH   1  23
BRANCH  11  29
ATOM     29  C   UNL     1       1.644   6.704  20.823  0.00  0.00    +0.000 C 
BRANCH  29  30
ATOM     30  O   UNL     1       1.884   8.108  20.708  0.00  0.00    +0.000 OA
ATOM     31  H   UNL     1       1.353   8.442  19.967  0.00  0.00    +0.000 HD
ENDBRANCH  29  30
ENDBRANCH  11  29
TORSDOF 8
ENDMDL
MODEL 8
REMARK VINA RESULT:      -6.4      5.609      9.818
REMARK  Name = 
REMARK  12 active torsions:
REMARK  status: ('A' for Active; 'I' for Inactive)
REMARK    1  A    between atoms: C_1  and  C_2
REMARK    2  A    between atoms: C_2  and  C_3
REMARK    3  A    between atoms: C_3  and  C_4
REMARK    4  A    between atoms: C_4  and  C_5
REMARK    5  A    between atoms: C_5  and  C_6
REMARK    6  A    between atoms: C_6  and  C_7
REMARK    7  A    between atoms: CA_17  and  C_18
REMARK    8  A    between atoms: C_18  and  O_19
REMARK    9  A    between atoms: C_23  and  C_24
REMARK   10  A    between atoms: C_24  and  C_25
REMARK   11  A    between atoms: C_24  and  C_26
REMARK   12  A    between atoms: N_27  and  C_28
REMARK                            x       y       z     vdW  Elec       q    Type
REMARK                         _______ _______ _______ _____ _____    ______ ____
ROOT
ATOM      1  C   UNL     1       1.212   8.950  20.321  0.00  0.00    +0.000 A 
ATOM      2  C   UNL     1       1.316   9.674  19.126  0.00  0.00    +0.000 A 
ATOM      3  C   UNL     1       0.706  10.916  18.971  0.00  0.00    +0.000 A 
ATOM      4  C   UNL     1      -0.099  11.491  19.982  0.00  0.00    +0.000 A 
ATOM      5  C   UNL     1      -0.198  10.780  21.209  0.00  0.00    +0.000 A 
ATOM      6  C   UNL     1      -0.943  10.986  22.423  0.00  0.00    +0.000 A 
ATOM      7  C   UNL     1      -0.578   9.983  23.298  0.00  0.00    +0.000 A 
ATOM      8  N   UNL     1       0.278   9.145  22.650  0.00  0.00    +0.000 N 
ATOM      9  C   UNL     1       0.493   9.571  21.359  0.00  0.00    +0.000 A 
ATOM     10  C   UNL     1      -1.993  12.012  22.709  0.00  0.00    +0.000 C 
ATOM     11  CA  UNL     1      -1.635  13.502  22.535  0.00  0.00    +0.000 C 
ATOM     12  N   UNL     1      -0.198  13.811  22.564  0.00  0.00    +0.000 N 
ATOM     13  C   UNL     1       0.662  13.841  21.492  0.00  0.00    +0.000 C 
ATOM     14  O   UNL     1       1.873  13.917  21.729  0.00  0.00    +0.000 OA
ATOM     15  C   UNL     1       0.114  13.901  20.018  0.00  0.00    +0.000 C 
ATOM     16  N   UNL     1      -0.800  12.721  19.767  0.00  0.00    +0.000 N 
ATOM     17  C   UNL     1      -1.522  12.641  18.500  0.00  0.00    +0.000 C 
ATOM     18  H   UNL     1       0.667   8.300  23.043  0.00  0.00    +0.000 HD
ATOM     19  H   UNL     1       0.307  13.680  23.430  0.00  0.00    +0.000 HD
ENDROOT
BRANCH  15  20
ATOM     20  C   UNL     1      -0.510  15.328  19.805  0.00  0.00    +0.000 C 
ATOM     21  C   UNL     1      -0.296  15.957  18.423  0.00  0.00    +0.000 C 
ATOM     22  C   UNL     1       0.070  16.331  20.825  0.00  0.00    +0.000 C 
ENDBRANCH  15  20
BRANCH   1  23
ATOM     23  C   UNL     1       1.798   7.560  20.413  0.00  0.00    +0.000 C 
BRANCH  23  24
ATOM     24  C   UNL     1       2.424   7.087  19.093  0.00  0.00    +0.000 C 
BRANCH  24  25
ATOM     25  C   UNL     1       2.371   5.566  18.935  0.00  0.00    +0.000 C 
BRANCH  25  26
ATOM     26  C   UNL     1       2.294   4.874  20.292  0.00  0.00    +0.000 C 
BRANCH  26  28
ATOM     27  C   UNL     1       1.352   2.831  21.400  0.00  0.00    +0.000 C 
ATOM     28  C   UNL     1       1.134   3.882  20.327  0.00  0.00    +0.000 C 
ENDBRANCH  26  28
ENDBRANCH  25  26
ENDBRANCH  24  25
ENDBRANCH  23  24
ENDBRANCH   1  23
BRANCH  11  29
ATOM     29  C   UNL     1      -2.378  14.364  23.577  0.00  0.00    +0.000 C 
BRANCH  29  30
ATOM     30  O   UNL     1      -3.709  13.908  23.825  0.00  0.00    +0.000 OA
ATOM     31  H   UNL     1      -4.311  14.659  23.699  0.00  0.00    +0.000 HD
ENDBRANCH  29  30
ENDBRANCH  11  29
TORSDOF 8
ENDMDL
MODEL 9
REMARK VINA RESULT:      -6.3      4.637      8.251
REMARK  Name = 
REMARK  12 active torsions:
REMARK  status: ('A' for Active; 'I' for Inactive)
REMARK    1  A    between atoms: C_1  and  C_2
REMARK    2  A    between atoms: C_2  and  C_3
REMARK    3  A    between atoms: C_3  and  C_4
REMARK    4  A    between atoms: C_4  and  C_5
REMARK    5  A    between atoms: C_5  and  C_6
REMARK    6  A    between atoms: C_6  and  C_7
REMARK    7  A    between atoms: CA_17  and  C_18
REMARK    8  A    between atoms: C_18  and  O_19
REMARK    9  A    between atoms: C_23  and  C_24
REMARK   10  A    between atoms: C_24  and  C_25
REMARK   11  A    between atoms: C_24  and  C_26
REMARK   12  A    between atoms: N_27  and  C_28
REMARK                            x       y       z     vdW  Elec       q    Type
REMARK                         _______ _______ _______ _____ _____    ______ ____
ROOT
ATOM      1  C   UNL     1       2.131   7.874  19.181  0.00  0.00    +0.000 A 
ATOM      2  C   UNL     1       1.827   8.492  17.961  0.00  0.00    +0.000 A 
ATOM      3  C   UNL     1       1.056   9.651  17.904  0.00  0.00    +0.000 A 
ATOM      4  C   UNL     1       0.487  10.234  19.060  0.00  0.00    +0.000 A 
ATOM      5  C   UNL     1       0.803   9.632  20.308  0.00  0.00    +0.000 A 
ATOM      6  C   UNL     1       0.389   9.875  21.665  0.00  0.00    +0.000 A 
ATOM      7  C   UNL     1       1.090   8.997  22.466  0.00  0.00    +0.000 A 
ATOM      8  N   UNL     1       1.835   8.190  21.660  0.00  0.00    +0.000 N 
ATOM      9  C   UNL     1       1.646   8.515  20.336  0.00  0.00    +0.000 A 
ATOM     10  C   UNL     1      -0.660  10.817  22.164  0.00  0.00    +0.000 C 
ATOM     11  CA  UNL     1      -0.540  12.313  21.807  0.00  0.00    +0.000 C 
ATOM     12  N   UNL     1       0.807  12.760  21.421  0.00  0.00    +0.000 N 
ATOM     13  C   UNL     1       1.340  12.775  20.154  0.00  0.00    +0.000 C 
ATOM     14  O   UNL     1       2.553  12.989  20.044  0.00  0.00    +0.000 OA
ATOM     15  C   UNL     1       0.416  12.647  18.887  0.00  0.00    +0.000 C 
ATOM     16  N   UNL     1      -0.386  11.366  18.969  0.00  0.00    +0.000 N 
ATOM     17  C   UNL     1      -1.405  11.101  17.958  0.00  0.00    +0.000 C 
ATOM     18  H   UNL     1       2.412   7.426  21.982  0.00  0.00    +0.000 HD
ATOM     19  H   UNL     1       1.536  12.758  22.121  0.00  0.00    +0.000 HD
ENDROOT
BRANCH  15  20
ATOM     20  C   UNL     1      -0.406  13.982  18.766  0.00  0.00    +0.000 C 
ATOM     21  C   UNL     1       0.319  15.261  19.203  0.00  0.00    +0.000 C 
ATOM     22  C   UNL     1      -1.690  13.907  19.620  0.00  0.00    +0.000 C 
ENDBRANCH  15  20
BRANCH   1  23
ATOM     23  C   UNL     1       2.881   6.561  19.194  0.00  0.00    +0.000 C 
BRANCH  23  24
ATOM     24  C   UNL     1       3.327   6.115  17.794  0.00  0.00    +0.000 C 
BRANCH  24  25
ATOM     25  C   UNL     1       4.834   6.283  17.583  0.00  0.00    +0.000 C 
BRANCH  25  26
ATOM     26  C   UNL     1       5.626   5.442  18.578  0.00  0.00    +0.000 C 
BRANCH  26  28
ATOM     27  C   UNL     1       7.358   6.994  17.639  0.00  0.00    +0.000 C 
ATOM     28  C   UNL     1       7.117   5.759  18.487  0.00  0.00    +0.000 C 
ENDBRANCH  26  28
ENDBRANCH  25  26
ENDBRANCH  24  25
ENDBRANCH  23  24
ENDBRANCH   1  23
BRANCH  11  29
ATOM     29  C   UNL     1      -1.074  13.191  22.957  0.00  0.00    +0.000 C 
BRANCH  29  30
ATOM     30  O   UNL     1      -0.324  14.396  23.128  0.00  0.00    +0.000 OA
ATOM     31  H   UNL     1      -0.372  14.898  22.298  0.00  0.00    +0.000 HD
ENDBRANCH  29  30
ENDBRANCH  11  29
TORSDOF 8
ENDMDL
