MODEL 1
REMARK VINA RESULT:      -9.5      0.000      0.000
REMARK  Name = 
REMARK  7 active torsions:
REMARK  status: ('A' for Active; 'I' for Inactive)
REMARK    1  A    between atoms: C_1  and  C_2
REMARK    2  A    between atoms: C_2  and  C_3
REMARK    3  A    between atoms: C_2  and  C_4
REMARK    4  A    between atoms: C_8  and  C_9
REMARK    5  A    between atoms: N_14  and  C_15
REMARK    6  A    between atoms: C_20  and  C_21
REMARK    7  A    between atoms: N_26  and  C_27
REMARK                            x       y       z     vdW  Elec       q    Type
REMARK                         _______ _______ _______ _____ _____    ______ ____
ROOT
ATOM      1  C   UNL     1       1.701   7.509  19.917  0.00  0.00    +0.000 A 
ATOM      2  C   UNL     1       2.193   7.650  18.612  0.00  0.00    +0.000 A 
ATOM      3  C   UNL     1       2.130   8.866  17.914  0.00  0.00    +0.000 A 
ATOM      4  C   UNL     1       1.550   9.957  18.569  0.00  0.00    +0.000 A 
ATOM      5  N   UNL     1       1.356  11.258  18.169  0.00  0.00    +0.000 N 
ATOM      6  C   UNL     1       0.802  12.007  19.191  0.00  0.00    +0.000 A 
ATOM      7  C   UNL     1       0.521  11.116  20.209  0.00  0.00    +0.000 A 
ATOM      8  C   UNL     1       1.039   9.852  19.858  0.00  0.00    +0.000 A 
ATOM      9  C   UNL     1       1.124   8.629  20.531  0.00  0.00    +0.000 A 
ATOM     10  H   UNL     1       1.633  11.644  17.277  0.00  0.00    +0.000 HD
ENDROOT
BRANCH   6  11
ATOM     11  C   UNL     1       0.563  13.424  19.090  0.00  0.00    +0.000 C 
ATOM     12  O   UNL     1      -0.424  13.861  18.504  0.00  0.00    +0.000 OA
ATOM     13  N   UNL     1       1.506  14.280  19.687  0.00  0.00    +0.000 N 
ATOM     14  C   UNL     1       1.219  15.708  19.626  0.00  0.00    +0.000 C 
ATOM     15  C   UNL     1       2.094  16.536  20.586  0.00  0.00    +0.000 C 
ATOM     16  N   UNL     1       3.545  16.257  20.516  0.00  0.00    +0.000 NA
ATOM     17  C   UNL     1       4.138  16.777  19.284  0.00  0.00    +0.000 C 
ATOM     18  C   UNL     1       3.764  14.808  20.644  0.00  0.00    +0.000 C 
ATOM     19  C   UNL     1       2.941  13.946  19.676  0.00  0.00    +0.000 C 
ENDBRANCH   6  11
BRANCH   1  25
ATOM     20  C   UNL     1       4.405   4.267  19.189  0.00  0.00    +0.000 A 
ATOM     21  C   UNL     1       4.205   3.060  19.820  0.00  0.00    +0.000 A 
ATOM     22  C   UNL     1       3.136   2.993  20.679  0.00  0.00    +0.000 A 
ATOM     23  N   UNL     1       2.318   4.029  20.939  0.00  0.00    +0.000 NA
ATOM     24  C   UNL     1       2.565   5.167  20.277  0.00  0.00    +0.000 A 
ATOM     25  N   UNL     1       1.747   6.262  20.553  0.00  0.00    +0.000 N 
ATOM     26  N   UNL     1       3.580   5.307  19.415  0.00  0.00    +0.000 NA
ATOM     27  H   UNL     1       1.267   6.145  21.428  0.00  0.00    +0.000 HD
BRANCH  20  32
ATOM     28  C   UNL     1       6.270   4.748  15.917  0.00  0.00    +0.000 A 
ATOM     29  C   UNL     1       7.572   4.666  16.420  0.00  0.00    +0.000 A 
ATOM     30  C   UNL     1       7.756   4.527  17.785  0.00  0.00    +0.000 A 
ATOM     31  N   UNL     1       6.749   4.431  18.676  0.00  0.00    +0.000 NA
ATOM     32  C   UNL     1       5.479   4.485  18.199  0.00  0.00    +0.000 A 
ATOM     33  C   UNL     1       5.217   4.671  16.834  0.00  0.00    +0.000 A 
BRANCH  28  35
ATOM     34  C   UNL     1       7.373   5.073  13.697  0.00  0.00    +0.000 C 
ATOM     35  C   UNL     1       6.043   4.829  14.417  0.00  0.00    +0.000 C 
ATOM     36  C   UNL     1       5.346   3.604  13.818  0.00  0.00    +0.000 C 
ENDBRANCH  28  35
ENDBRANCH  20  32
ENDBRANCH   1  25
TORSDOF 4
ENDMDL
MODEL 2
REMARK VINA RESULT:      -9.2      4.205     10.104
REMARK  Name = 
REMARK  7 active torsions:
REMARK  status: ('A' for Active; 'I' for Inactive)
REMARK    1  A    between atoms: C_1  and  C_2
REMARK    2  A    between atoms: C_2  and  C_3
REMARK    3  A    between atoms: C_2  and  C_4
REMARK    4  A    between atoms: C_8  and  C_9
REMARK    5  A    between atoms: N_14  and  C_15
REMARK    6  A    between atoms: C_20  and  C_21
REMARK    7  A    between atoms: N_26  and  C_27
REMARK                            x       y       z     vdW  Elec       q    Type
REMARK                         _______ _______ _______ _____ _____    ______ ____
ROOT
ATOM      1  C   UNL     1      -0.844  11.049  22.541  0.00  0.00    +0.000 A 
ATOM      2  C   UNL     1      -0.338  10.025  23.353  0.00  0.00    +0.000 A 
ATOM      3  C   UNL     1       0.482   9.004  22.847  0.00  0.00    +0.000 A 
ATOM      4  C   UNL     1       0.786   9.036  21.483  0.00  0.00    +0.000 A 
ATOM      5  N   UNL     1       1.557   8.206  20.705  0.00  0.00    +0.000 N 
ATOM      6  C   UNL     1       1.630   8.678  19.407  0.00  0.00    +0.000 A 
ATOM      7  C   UNL     1       0.771   9.760  19.345  0.00  0.00    +0.000 A 
ATOM      8  C   UNL     1       0.292  10.029  20.644  0.00  0.00    +0.000 A 
ATOM      9  C   UNL     1      -0.517  11.037  21.179  0.00  0.00    +0.000 A 
ATOM     10  H   UNL     1       2.060   7.393  21.034  0.00  0.00    +0.000 HD
ENDROOT
BRANCH   6  11
ATOM     11  C   UNL     1       2.436   8.059  18.385  0.00  0.00    +0.000 C 
ATOM     12  O   UNL     1       2.614   8.605  17.300  0.00  0.00    +0.000 OA
ATOM     13  N   UNL     1       3.003   6.807  18.685  0.00  0.00    +0.000 N 
ATOM     14  C   UNL     1       3.863   6.223  17.663  0.00  0.00    +0.000 C 
ATOM     15  C   UNL     1       4.710   5.050  18.193  0.00  0.00    +0.000 C 
ATOM     16  N   UNL     1       3.961   4.021  18.945  0.00  0.00    +0.000 NA
ATOM     17  C   UNL     1       3.117   3.212  18.066  0.00  0.00    +0.000 C 
ATOM     18  C   UNL     1       3.165   4.675  19.996  0.00  0.00    +0.000 C 
ATOM     19  C   UNL     1       2.273   5.824  19.504  0.00  0.00    +0.000 C 
ENDBRANCH   6  11
BRANCH   1  25
ATOM     20  C   UNL     1      -4.248  12.909  20.720  0.00  0.00    +0.000 A 
ATOM     21  C   UNL     1      -4.880  13.949  21.364  0.00  0.00    +0.000 A 
ATOM     22  C   UNL     1      -4.370  14.306  22.588  0.00  0.00    +0.000 A 
ATOM     23  N   UNL     1      -3.330  13.687  23.175  0.00  0.00    +0.000 NA
ATOM     24  C   UNL     1      -2.757  12.694  22.483  0.00  0.00    +0.000 A 
ATOM     25  N   UNL     1      -1.695  12.019  23.086  0.00  0.00    +0.000 N 
ATOM     26  N   UNL     1      -3.187  12.295  21.280  0.00  0.00    +0.000 NA
ATOM     27  H   UNL     1      -1.689  12.168  24.080  0.00  0.00    +0.000 HD
BRANCH  20  32
ATOM     28  C   UNL     1      -4.246  11.157  17.352  0.00  0.00    +0.000 A 
ATOM     29  C   UNL     1      -5.354  11.802  16.795  0.00  0.00    +0.000 A 
ATOM     30  C   UNL     1      -6.061  12.708  17.567  0.00  0.00    +0.000 A 
ATOM     31  N   UNL     1      -5.731  13.041  18.831  0.00  0.00    +0.000 NA
ATOM     32  C   UNL     1      -4.643  12.439  19.377  0.00  0.00    +0.000 A 
ATOM     33  C   UNL     1      -3.906  11.478  18.671  0.00  0.00    +0.000 A 
BRANCH  28  35
ATOM     34  C   UNL     1      -3.345  10.728  15.059  0.00  0.00    +0.000 C 
ATOM     35  C   UNL     1      -3.413  10.213  16.501  0.00  0.00    +0.000 C 
ATOM     36  C   UNL     1      -1.998   9.968  17.032  0.00  0.00    +0.000 C 
ENDBRANCH  28  35
ENDBRANCH  20  32
ENDBRANCH   1  25
TORSDOF 4
ENDMDL
MODEL 3
REMARK VINA RESULT:      -9.1      1.014      1.336
REMARK  Name = 
REMARK  7 active torsions:
REMARK  status: ('A' for Active; 'I' for Inactive)
REMARK    1  A    between atoms: C_1  and  C_2
REMARK    2  A    between atoms: C_2  and  C_3
REMARK    3  A    between atoms: C_2  and  C_4
REMARK    4  A    between atoms: C_8  and  C_9
REMARK    5  A    between atoms: N_14  and  C_15
REMARK    6  A    between atoms: C_20  and  C_21
REMARK    7  A    between atoms: N_26  and  C_27
REMARK                            x       y       z     vdW  Elec       q    Type
REMARK                         _______ _______ _______ _____ _____    ______ ____
ROOT
ATOM      1  C   UNL     1       2.092   7.190  19.613  0.00  0.00    +0.000 A 
ATOM      2  C   UNL     1       2.363   7.478  18.268  0.00  0.00    +0.000 A 
ATOM      3  C   UNL     1       2.082   8.731  17.700  0.00  0.00    +0.000 A 
ATOM      4  C   UNL     1       1.512   9.702  18.528  0.00  0.00    +0.000 A 
ATOM      5  N   UNL     1       1.141  11.003  18.279  0.00  0.00    +0.000 N 
ATOM      6  C   UNL     1       0.684  11.611  19.434  0.00  0.00    +0.000 A 
ATOM      7  C   UNL     1       0.646  10.622  20.398  0.00  0.00    +0.000 A 
ATOM      8  C   UNL     1       1.218   9.449  19.863  0.00  0.00    +0.000 A 
ATOM      9  C   UNL     1       1.516   8.194  20.403  0.00  0.00    +0.000 A 
ATOM     10  H   UNL     1       1.240  11.482  17.394  0.00  0.00    +0.000 HD
ENDROOT
BRANCH   6  11
ATOM     11  C   UNL     1       0.303  12.999  19.497  0.00  0.00    +0.000 C 
ATOM     12  O   UNL     1      -0.879  13.333  19.515  0.00  0.00    +0.000 OA
ATOM     13  N   UNL     1       1.339  13.950  19.533  0.00  0.00    +0.000 N 
ATOM     14  C   UNL     1       0.937  15.345  19.655  0.00  0.00    +0.000 C 
ATOM     15  C   UNL     1       2.106  16.274  20.037  0.00  0.00    +0.000 C 
ATOM     16  N   UNL     1       3.329  16.117  19.221  0.00  0.00    +0.000 NA
ATOM     17  C   UNL     1       3.150  16.646  17.869  0.00  0.00    +0.000 C 
ATOM     18  C   UNL     1       3.710  14.696  19.191  0.00  0.00    +0.000 C 
ATOM     19  C   UNL     1       2.584  13.738  18.774  0.00  0.00    +0.000 C 
ENDBRANCH   6  11
BRANCH   1  25
ATOM     20  C   UNL     1       4.671   4.173  17.999  0.00  0.00    +0.000 A 
ATOM     21  C   UNL     1       4.688   2.919  18.566  0.00  0.00    +0.000 A 
ATOM     22  C   UNL     1       3.870   2.731  19.653  0.00  0.00    +0.000 A 
ATOM     23  N   UNL     1       3.097   3.696  20.183  0.00  0.00    +0.000 NA
ATOM     24  C   UNL     1       3.122   4.887  19.570  0.00  0.00    +0.000 A 
ATOM     25  N   UNL     1       2.350   5.910  20.121  0.00  0.00    +0.000 N 
ATOM     26  N   UNL     1       3.883   5.144  18.500  0.00  0.00    +0.000 NA
ATOM     27  H   UNL     1       2.108   5.708  21.075  0.00  0.00    +0.000 HD
BRANCH  20  32
ATOM     28  C   UNL     1       6.104   4.161  14.483  0.00  0.00    +0.000 A 
ATOM     29  C   UNL     1       7.124   5.096  14.684  0.00  0.00    +0.000 A 
ATOM     30  C   UNL     1       7.236   5.711  15.919  0.00  0.00    +0.000 A 
ATOM     31  N   UNL     1       6.437   5.443  16.971  0.00  0.00    +0.000 NA
ATOM     32  C   UNL     1       5.456   4.520  16.797  0.00  0.00    +0.000 A 
ATOM     33  C   UNL     1       5.254   3.890  15.561  0.00  0.00    +0.000 A 
BRANCH  28  35
ATOM     34  C   UNL     1       4.631   3.661  12.525  0.00  0.00    +0.000 C 
ATOM     35  C   UNL     1       6.005   3.422  13.159  0.00  0.00    +0.000 C 
ATOM     36  C   UNL     1       7.108   3.775  12.157  0.00  0.00    +0.000 C 
ENDBRANCH  28  35
ENDBRANCH  20  32
ENDBRANCH   1  25
TORSDOF 4
ENDMDL
MODEL 4
REMARK VINA RESULT:      -9.1      2.227      3.101
REMARK  Name = 
REMARK  7 active torsions:
REMARK  status: ('A' for Active; 'I' for Inactive)
REMARK    1  A    between atoms: C_1  and  C_2
REMARK    2  A    between atoms: C_2  and  C_3
REMARK    3  A    between atoms: C_2  and  C_4
REMARK    4  A    between atoms: C_8  and  C_9
REMARK    5  A    between atoms: N_14  and  C_15
REMARK    6  A    between atoms: C_20  and  C_21
REMARK    7  A    between atoms: N_26  and  C_27
REMARK                            x       y       z     vdW  Elec       q    Type
REMARK                         _______ _______ _______ _____ _____    ______ ____
ROOT
ATOM      1  C   UNL     1       1.834   6.484  19.663  0.00  0.00    +0.000 A 
ATOM      2  C   UNL     1       2.100   7.014  18.392  0.00  0.00    +0.000 A 
ATOM      3  C   UNL     1       1.976   8.383  18.111  0.00  0.00    +0.000 A 
ATOM      4  C   UNL     1       1.572   9.222  19.153  0.00  0.00    +0.000 A 
ATOM      5  N   UNL     1       1.375  10.582  19.199  0.00  0.00    +0.000 N 
ATOM      6  C   UNL     1       1.042  10.986  20.480  0.00  0.00    +0.000 A 
ATOM      7  C   UNL     1       0.898   9.828  21.220  0.00  0.00    +0.000 A 
ATOM      8  C   UNL     1       1.286   8.732  20.423  0.00  0.00    +0.000 A 
ATOM      9  C   UNL     1       1.426   7.363  20.675  0.00  0.00    +0.000 A 
ATOM     10  H   UNL     1       1.511  11.221  18.428  0.00  0.00    +0.000 HD
ENDROOT
BRANCH   6  11
ATOM     11  C   UNL     1       0.857  12.366  20.849  0.00  0.00    +0.000 C 
ATOM     12  O   UNL     1       1.790  13.038  21.282  0.00  0.00    +0.000 OA
ATOM     13  N   UNL     1      -0.433  12.906  20.696  0.00  0.00    +0.000 N 
ATOM     14  C   UNL     1      -0.588  14.319  21.019  0.00  0.00    +0.000 C 
ATOM     15  C   UNL     1      -1.914  14.909  20.501  0.00  0.00    +0.000 C 
ATOM     16  N   UNL     1      -3.124  14.126  20.831  0.00  0.00    +0.000 NA
ATOM     17  C   UNL     1      -3.462  14.222  22.251  0.00  0.00    +0.000 C 
ATOM     18  C   UNL     1      -2.921  12.727  20.423  0.00  0.00    +0.000 C 
ATOM     19  C   UNL     1      -1.630  12.086  20.954  0.00  0.00    +0.000 C 
ENDBRANCH   6  11
BRANCH   1  25
ATOM     20  C   UNL     1       4.245   3.634  17.560  0.00  0.00    +0.000 A 
ATOM     21  C   UNL     1       4.099   2.292  17.827  0.00  0.00    +0.000 A 
ATOM     22  C   UNL     1       3.180   1.959  18.792  0.00  0.00    +0.000 A 
ATOM     23  N   UNL     1       2.459   2.862  19.481  0.00  0.00    +0.000 NA
ATOM     24  C   UNL     1       2.645   4.149  19.158  0.00  0.00    +0.000 A 
ATOM     25  N   UNL     1       1.929   5.104  19.880  0.00  0.00    +0.000 N 
ATOM     26  N   UNL     1       3.512   4.551  18.221  0.00  0.00    +0.000 NA
ATOM     27  H   UNL     1       1.592   4.724  20.748  0.00  0.00    +0.000 HD
BRANCH  20  32
ATOM     28  C   UNL     1       6.103   4.091  14.281  0.00  0.00    +0.000 A 
ATOM     29  C   UNL     1       7.041   5.031  14.717  0.00  0.00    +0.000 A 
ATOM     30  C   UNL     1       6.968   5.499  16.018  0.00  0.00    +0.000 A 
ATOM     31  N   UNL     1       6.058   5.080  16.920  0.00  0.00    +0.000 NA
ATOM     32  C   UNL     1       5.154   4.149  16.517  0.00  0.00    +0.000 A 
ATOM     33  C   UNL     1       5.140   3.664  15.202  0.00  0.00    +0.000 A 
BRANCH  28  35
ATOM     34  C   UNL     1       4.823   3.469  12.225  0.00  0.00    +0.000 C 
ATOM     35  C   UNL     1       6.207   3.512  12.880  0.00  0.00    +0.000 C 
ATOM     36  C   UNL     1       7.191   4.248  11.966  0.00  0.00    +0.000 C 
ENDBRANCH  28  35
ENDBRANCH  20  32
ENDBRANCH   1  25
TORSDOF 4
ENDMDL
MODEL 5
REMARK VINA RESULT:      -8.9      3.945      7.305
REMARK  Name = 
REMARK  7 active torsions:
REMARK  status: ('A' for Active; 'I' for Inactive)
REMARK    1  A    between atoms: C_1  and  C_2
REMARK    2  A    between atoms: C_2  and  C_3
REMARK    3  A    between atoms: C_2  and  C_4
REMARK    4  A    between atoms: C_8  and  C_9
REMARK    5  A    between atoms: N_14  and  C_15
REMARK    6  A    between atoms: C_20  and  C_21
REMARK    7  A    between atoms: N_26  and  C_27
REMARK                            x       y       z     vdW  Elec       q    Type
REMARK                         _______ _______ _______ _____ _____    ______ ____
ROOT
ATOM      1  C   UNL     1       1.955  14.312  19.120  0.00  0.00    +0.000 A 
ATOM      2  C   UNL     1       2.299  14.363  20.479  0.00  0.00    +0.000 A 
ATOM      3  C   UNL     1       3.605  14.640  20.911  0.00  0.00    +0.000 A 
ATOM      4  C   UNL     1       4.575  14.869  19.931  0.00  0.00    +0.000 A 
ATOM      5  N   UNL     1       5.912  15.173  20.031  0.00  0.00    +0.000 N 
ATOM      6  C   UNL     1       6.460  15.385  18.779  0.00  0.00    +0.000 A 
ATOM      7  C   UNL     1       5.468  15.075  17.869  0.00  0.00    +0.000 A 
ATOM      8  C   UNL     1       4.275  14.814  18.575  0.00  0.00    +0.000 A 
ATOM      9  C   UNL     1       2.962  14.543  18.174  0.00  0.00    +0.000 A 
ATOM     10  H   UNL     1       6.424  15.290  20.894  0.00  0.00    +0.000 HD
ENDROOT
BRANCH   6  11
ATOM     11  C   UNL     1       7.825  15.801  18.575  0.00  0.00    +0.000 C 
ATOM     12  O   UNL     1       8.095  16.953  18.246  0.00  0.00    +0.000 OA
ATOM     13  N   UNL     1       8.827  14.833  18.766  0.00  0.00    +0.000 N 
ATOM     14  C   UNL     1      10.204  15.285  18.612  0.00  0.00    +0.000 C 
ATOM     15  C   UNL     1      11.230  14.280  19.171  0.00  0.00    +0.000 C 
ATOM     16  N   UNL     1      11.051  12.882  18.724  0.00  0.00    +0.000 NA
ATOM     17  C   UNL     1      11.420  12.709  17.320  0.00  0.00    +0.000 C 
ATOM     18  C   UNL     1       9.657  12.473  18.964  0.00  0.00    +0.000 C 
ATOM     19  C   UNL     1       8.601  13.427  18.386  0.00  0.00    +0.000 C 
ENDBRANCH   6  11
BRANCH   1  25
ATOM     20  C   UNL     1       0.206  10.422  18.718  0.00  0.00    +0.000 A 
ATOM     21  C   UNL     1      -1.061  10.297  18.195  0.00  0.00    +0.000 A 
ATOM     22  C   UNL     1      -1.696  11.466  17.853  0.00  0.00    +0.000 A 
ATOM     23  N   UNL     1      -1.159  12.688  18.025  0.00  0.00    +0.000 NA
ATOM     24  C   UNL     1       0.082  12.730  18.527  0.00  0.00    +0.000 A 
ATOM     25  N   UNL     1       0.647  13.987  18.740  0.00  0.00    +0.000 N 
ATOM     26  N   UNL     1       0.771  11.635  18.872  0.00  0.00    +0.000 NA
ATOM     27  H   UNL     1      -0.059  14.701  18.771  0.00  0.00    +0.000 HD
BRANCH  20  32
ATOM     28  C   UNL     1       2.482   7.390  18.518  0.00  0.00    +0.000 A 
ATOM     29  C   UNL     1       2.377   6.979  19.850  0.00  0.00    +0.000 A 
ATOM     30  C   UNL     1       1.634   7.744  20.732  0.00  0.00    +0.000 A 
ATOM     31  N   UNL     1       0.965   8.861  20.383  0.00  0.00    +0.000 NA
ATOM     32  C   UNL     1       1.038   9.259  19.087  0.00  0.00    +0.000 A 
ATOM     33  C   UNL     1       1.810   8.560  18.148  0.00  0.00    +0.000 A 
BRANCH  28  35
ATOM     34  C   UNL     1       4.719   6.905  17.511  0.00  0.00    +0.000 C 
ATOM     35  C   UNL     1       3.234   6.528  17.517  0.00  0.00    +0.000 C 
ATOM     36  C   UNL     1       3.082   5.021  17.744  0.00  0.00    +0.000 C 
ENDBRANCH  28  35
ENDBRANCH  20  32
ENDBRANCH   1  25
TORSDOF 4
ENDMDL
MODEL 6
REMARK VINA RESULT:      -8.9      1.765      2.011
REMARK  Name = 
REMARK  7 active torsions:
REMARK  status: ('A' for Active; 'I' for Inactive)
REMARK    1  A    between atoms: C_1  and  C_2
REMARK    2  A    between atoms: C_2  and  C_3
REMARK    3  A    between atoms: C_2  and  C_4
REMARK    4  A    between atoms: C_8  and  C_9
REMARK    5  A    between atoms: N_14  and  C_15
REMARK    6  A    between atoms: C_20  and  C_21
REMARK    7  A    between atoms: N_26  and  C_27
REMARK                            x       y       z     vdW  Elec       q    Type
REMARK                         _______ _______ _______ _____ _____    ______ ____
ROOT
ATOM      1  C   UNL     1       1.644   7.297  20.116  0.00  0.00    +0.000 A 
ATOM      2  C   UNL     1       2.261   7.539  18.880  0.00  0.00    +0.000 A 
ATOM      3  C   UNL     1       2.150   8.770  18.216  0.00  0.00    +0.000 A 
ATOM      4  C   UNL     1       1.391   9.769  18.831  0.00  0.00    +0.000 A 
ATOM      5  N   UNL     1       1.108  11.060  18.450  0.00  0.00    +0.000 N 
ATOM      6  C   UNL     1       0.369  11.707  19.423  0.00  0.00    +0.000 A 
ATOM      7  C   UNL     1       0.071  10.752  20.376  0.00  0.00    +0.000 A 
ATOM      8  C   UNL     1       0.754   9.562  20.050  0.00  0.00    +0.000 A 
ATOM      9  C   UNL     1       0.890   8.327  20.692  0.00  0.00    +0.000 A 
ATOM     10  H   UNL     1       1.440  11.508  17.607  0.00  0.00    +0.000 HD
ENDROOT
BRANCH   6  11
ATOM     11  C   UNL     1      -0.004  13.097  19.337  0.00  0.00    +0.000 C 
ATOM     12  O   UNL     1       0.137  13.728  18.293  0.00  0.00    +0.000 OA
ATOM     13  N   UNL     1      -0.530  13.695  20.496  0.00  0.00    +0.000 N 
ATOM     14  C   UNL     1      -0.956  15.083  20.375  0.00  0.00    +0.000 C 
ATOM     15  C   UNL     1      -1.828  15.547  21.558  0.00  0.00    +0.000 C 
ATOM     16  N   UNL     1      -1.282  15.248  22.899  0.00  0.00    +0.000 NA
ATOM     17  C   UNL     1      -0.131  16.094  23.217  0.00  0.00    +0.000 C 
ATOM     18  C   UNL     1      -0.931  13.821  22.970  0.00  0.00    +0.000 C 
ATOM     19  C   UNL     1      -0.027  13.325  21.831  0.00  0.00    +0.000 C 
ENDBRANCH   6  11
BRANCH   1  25
ATOM     20  C   UNL     1       4.445   4.174  19.241  0.00  0.00    +0.000 A 
ATOM     21  C   UNL     1       4.303   2.945  19.843  0.00  0.00    +0.000 A 
ATOM     22  C   UNL     1       3.256   2.816  20.723  0.00  0.00    +0.000 A 
ATOM     23  N   UNL     1       2.408   3.815  21.029  0.00  0.00    +0.000 NA
ATOM     24  C   UNL     1       2.600   4.978  20.393  0.00  0.00    +0.000 A 
ATOM     25  N   UNL     1       1.749   6.036  20.716  0.00  0.00    +0.000 N 
ATOM     26  N   UNL     1       3.589   5.178  19.514  0.00  0.00    +0.000 NA
ATOM     27  H   UNL     1       1.294   5.878  21.598  0.00  0.00    +0.000 HD
BRANCH  20  32
ATOM     28  C   UNL     1       6.222   4.789  15.943  0.00  0.00    +0.000 A 
ATOM     29  C   UNL     1       7.535   4.764  16.420  0.00  0.00    +0.000 A 
ATOM     30  C   UNL     1       7.753   4.615  17.779  0.00  0.00    +0.000 A 
ATOM     31  N   UNL     1       6.769   4.459  18.687  0.00  0.00    +0.000 NA
ATOM     32  C   UNL     1       5.489   4.458  18.235  0.00  0.00    +0.000 A 
ATOM     33  C   UNL     1       5.191   4.649  16.878  0.00  0.00    +0.000 A 
BRANCH  28  35
ATOM     34  C   UNL     1       7.287   5.026  13.693  0.00  0.00    +0.000 C 
ATOM     35  C   UNL     1       5.962   4.879  14.448  0.00  0.00    +0.000 C 
ATOM     36  C   UNL     1       5.165   3.704  13.875  0.00  0.00    +0.000 C 
ENDBRANCH  28  35
ENDBRANCH  20  32
ENDBRANCH   1  25
TORSDOF 4
ENDMDL
MODEL 7
REMARK VINA RESULT:      -8.7      3.037      9.821
REMARK  Name = 
REMARK  7 active torsions:
REMARK  status: ('A' for Active; 'I' for Inactive)
REMARK    1  A    between atoms: C_1  and  C_2
REMARK    2  A    between atoms: C_2  and  C_3
REMARK    3  A    between atoms: C_2  and  C_4
REMARK    4  A    between atoms: C_8  and  C_9
REMARK    5  A    between atoms: N_14  and  C_15
REMARK    6  A    between atoms: C_20  and  C_21
REMARK    7  A    between atoms: N_26  and  C_27
REMARK                            x       y       z     vdW  Elec       q    Type
REMARK                         _______ _______ _______ _____ _____    ______ ____
ROOT
ATOM      1  C   UNL     1       0.350  11.290  19.418  0.00  0.00    +0.000 A 
ATOM      2  C   UNL     1       0.217  10.823  20.734  0.00  0.00    +0.000 A 
ATOM      3  C   UNL     1       0.739   9.587  21.146  0.00  0.00    +0.000 A 
ATOM      4  C   UNL     1       1.409   8.817  20.190  0.00  0.00    +0.000 A 
ATOM      5  N   UNL     1       2.031   7.594  20.282  0.00  0.00    +0.000 N 
ATOM      6  C   UNL     1       2.627   7.257  19.081  0.00  0.00    +0.000 A 
ATOM      7  C   UNL     1       2.253   8.235  18.179  0.00  0.00    +0.000 A 
ATOM      8  C   UNL     1       1.549   9.241  18.873  0.00  0.00    +0.000 A 
ATOM      9  C   UNL     1       1.025  10.482  18.494  0.00  0.00    +0.000 A 
ATOM     10  H   UNL     1       2.104   7.036  21.121  0.00  0.00    +0.000 HD
ENDROOT
BRANCH   6  11
ATOM     11  C   UNL     1       3.423   6.069  18.901  0.00  0.00    +0.000 C 
ATOM     12  O   UNL     1       4.498   6.108  18.309  0.00  0.00    +0.000 OA
ATOM     13  N   UNL     1       2.913   4.868  19.428  0.00  0.00    +0.000 N 
ATOM     14  C   UNL     1       3.757   3.688  19.289  0.00  0.00    +0.000 C 
ATOM     15  C   UNL     1       3.302   2.518  20.182  0.00  0.00    +0.000 C 
ATOM     16  N   UNL     1       1.863   2.186  20.101  0.00  0.00    +0.000 NA
ATOM     17  C   UNL     1       1.524   1.547  18.830  0.00  0.00    +0.000 C 
ATOM     18  C   UNL     1       1.073   3.409  20.311  0.00  0.00    +0.000 C 
ATOM     19  C   UNL     1       1.467   4.589  19.410  0.00  0.00    +0.000 C 
ENDBRANCH   6  11
BRANCH   1  25
ATOM     20  C   UNL     1       2.224  15.134  19.152  0.00  0.00    +0.000 A 
ATOM     21  C   UNL     1       1.456  16.248  18.903  0.00  0.00    +0.000 A 
ATOM     22  C   UNL     1       0.111  16.034  18.731  0.00  0.00    +0.000 A 
ATOM     23  N   UNL     1      -0.465  14.819  18.770  0.00  0.00    +0.000 NA
ATOM     24  C   UNL     1       0.343  13.782  19.030  0.00  0.00    +0.000 A 
ATOM     25  N   UNL     1      -0.228  12.510  19.047  0.00  0.00    +0.000 N 
ATOM     26  N   UNL     1       1.661  13.911  19.222  0.00  0.00    +0.000 NA
ATOM     27  H   UNL     1      -1.112  12.503  18.568  0.00  0.00    +0.000 HD
BRANCH  20  32
ATOM     28  C   UNL     1       5.991  15.051  18.683  0.00  0.00    +0.000 A 
ATOM     29  C   UNL     1       6.357  15.123  20.030  0.00  0.00    +0.000 A 
ATOM     30  C   UNL     1       5.367  15.258  20.988  0.00  0.00    +0.000 A 
ATOM     31  N   UNL     1       4.049  15.294  20.711  0.00  0.00    +0.000 NA
ATOM     32  C   UNL     1       3.677  15.202  19.408  0.00  0.00    +0.000 A 
ATOM     33  C   UNL     1       4.626  15.109  18.380  0.00  0.00    +0.000 A 
BRANCH  28  35
ATOM     34  C   UNL     1       8.300  15.664  17.944  0.00  0.00    +0.000 C 
ATOM     35  C   UNL     1       7.055  14.831  17.620  0.00  0.00    +0.000 C 
ATOM     36  C   UNL     1       7.449  13.366  17.417  0.00  0.00    +0.000 C 
ENDBRANCH  28  35
ENDBRANCH  20  32
ENDBRANCH   1  25
TORSDOF 4
ENDMDL
MODEL 8
REMARK VINA RESULT:      -8.6      1.912      2.691
REMARK  Name = 
REMARK  7 active torsions:
REMARK  status: ('A' for Active; 'I' for Inactive)
REMARK    1  A    between atoms: C_1  and  C_2
REMARK    2  A    between atoms: C_2  and  C_3
REMARK    3  A    between atoms: C_2  and  C_4
REMARK    4  A    between atoms: C_8  and  C_9
REMARK    5  A    between atoms: N_14  and  C_15
REMARK    6  A    between atoms: C_20  and  C_21
REMARK    7  A    between atoms: N_26  and  C_27
REMARK                            x       y       z     vdW  Elec       q    Type
REMARK                         _______ _______ _______ _____ _____    ______ ____
ROOT
ATOM      1  C   UNL     1       1.645   7.068  20.467  0.00  0.00    +0.000 A 
ATOM      2  C   UNL     1       1.931   7.376  19.130  0.00  0.00    +0.000 A 
ATOM      3  C   UNL     1       1.827   8.682  18.624  0.00  0.00    +0.000 A 
ATOM      4  C   UNL     1       1.421   9.686  19.506  0.00  0.00    +0.000 A 
ATOM      5  N   UNL     1       1.239  11.037  19.323  0.00  0.00    +0.000 N 
ATOM      6  C   UNL     1       0.897  11.651  20.515  0.00  0.00    +0.000 A 
ATOM      7  C   UNL     1       0.731  10.634  21.435  0.00  0.00    +0.000 A 
ATOM      8  C   UNL     1       1.115   9.416  20.836  0.00  0.00    +0.000 A 
ATOM      9  C   UNL     1       1.236   8.107  21.313  0.00  0.00    +0.000 A 
ATOM     10  H   UNL     1       1.393  11.537  18.459  0.00  0.00    +0.000 HD
ENDROOT
BRANCH   6  11
ATOM     11  C   UNL     1       0.725  13.075  20.648  0.00  0.00    +0.000 C 
ATOM     12  O   UNL     1       1.692  13.825  20.749  0.00  0.00    +0.000 OA
ATOM     13  N   UNL     1      -0.594  13.565  20.659  0.00  0.00    +0.000 N 
ATOM     14  C   UNL     1      -0.748  15.012  20.736  0.00  0.00    +0.000 C 
ATOM     15  C   UNL     1      -2.176  15.481  20.394  0.00  0.00    +0.000 C 
ATOM     16  N   UNL     1      -3.260  14.767  21.102  0.00  0.00    +0.000 NA
ATOM     17  C   UNL     1      -3.316  15.133  22.518  0.00  0.00    +0.000 C 
ATOM     18  C   UNL     1      -3.076  13.317  20.933  0.00  0.00    +0.000 C 
ATOM     19  C   UNL     1      -1.677  12.801  21.303  0.00  0.00    +0.000 C 
ENDBRANCH   6  11
BRANCH   1  25
ATOM     20  C   UNL     1       4.388   4.017  19.233  0.00  0.00    +0.000 A 
ATOM     21  C   UNL     1       4.218   2.727  19.683  0.00  0.00    +0.000 A 
ATOM     22  C   UNL     1       3.163   2.515  20.537  0.00  0.00    +0.000 A 
ATOM     23  N   UNL     1       2.333   3.487  20.957  0.00  0.00    +0.000 NA
ATOM     24  C   UNL     1       2.552   4.714  20.467  0.00  0.00    +0.000 A 
ATOM     25  N   UNL     1       1.721   5.742  20.912  0.00  0.00    +0.000 N 
ATOM     26  N   UNL     1       3.550   4.998  19.622  0.00  0.00    +0.000 NA
ATOM     27  H   UNL     1       1.257   5.489  21.767  0.00  0.00    +0.000 HD
BRANCH  20  32
ATOM     28  C   UNL     1       6.237   4.812  16.014  0.00  0.00    +0.000 A 
ATOM     29  C   UNL     1       7.528   4.894  16.545  0.00  0.00    +0.000 A 
ATOM     30  C   UNL     1       7.702   4.751  17.911  0.00  0.00    +0.000 A 
ATOM     31  N   UNL     1       6.699   4.502  18.777  0.00  0.00    +0.000 NA
ATOM     32  C   UNL     1       5.443   4.398  18.273  0.00  0.00    +0.000 A 
ATOM     33  C   UNL     1       5.185   4.576  16.906  0.00  0.00    +0.000 A 
BRANCH  28  35
ATOM     34  C   UNL     1       7.376   5.096  13.807  0.00  0.00    +0.000 C 
ATOM     35  C   UNL     1       6.031   4.895  14.511  0.00  0.00    +0.000 C 
ATOM     36  C   UNL     1       5.304   3.690  13.907  0.00  0.00    +0.000 C 
ENDBRANCH  28  35
ENDBRANCH  20  32
ENDBRANCH   1  25
TORSDOF 4
ENDMDL
MODEL 9
REMARK VINA RESULT:      -8.6      2.603      9.413
REMARK  Name = 
REMARK  7 active torsions:
REMARK  status: ('A' for Active; 'I' for Inactive)
REMARK    1  A    between atoms: C_1  and  C_2
REMARK    2  A    between atoms: C_2  and  C_3
REMARK    3  A    between atoms: C_2  and  C_4
REMARK    4  A    between atoms: C_8  and  C_9
REMARK    5  A    between atoms: N_14  and  C_15
REMARK    6  A    between atoms: C_20  and  C_21
REMARK    7  A    between atoms: N_26  and  C_27
REMARK                            x       y       z     vdW  Elec       q    Type
REMARK                         _______ _______ _______ _____ _____    ______ ____
ROOT
ATOM      1  C   UNL     1       0.418  11.172  19.567  0.00  0.00    +0.000 A 
ATOM      2  C   UNL     1       0.405  10.822  20.925  0.00  0.00    +0.000 A 
ATOM      3  C   UNL     1       0.907   9.594  21.386  0.00  0.00    +0.000 A 
ATOM      4  C   UNL     1       1.429   8.712  20.436  0.00  0.00    +0.000 A 
ATOM      5  N   UNL     1       1.995   7.466  20.569  0.00  0.00    +0.000 N 
ATOM      6  C   UNL     1       2.440   6.998  19.346  0.00  0.00    +0.000 A 
ATOM      7  C   UNL     1       2.020   7.920  18.407  0.00  0.00    +0.000 A 
ATOM      8  C   UNL     1       1.447   9.019  19.080  0.00  0.00    +0.000 A 
ATOM      9  C   UNL     1       0.947  10.253  18.651  0.00  0.00    +0.000 A 
ATOM     10  H   UNL     1       2.131   6.974  21.441  0.00  0.00    +0.000 HD
ENDROOT
BRANCH   6  11
ATOM     11  C   UNL     1       3.151   5.754  19.189  0.00  0.00    +0.000 C 
ATOM     12  O   UNL     1       3.099   4.880  20.050  0.00  0.00    +0.000 OA
ATOM     13  N   UNL     1       3.904   5.588  18.013  0.00  0.00    +0.000 N 
ATOM     14  C   UNL     1       4.569   4.302  17.843  0.00  0.00    +0.000 C 
ATOM     15  C   UNL     1       5.069   4.072  16.404  0.00  0.00    +0.000 C 
ATOM     16  N   UNL     1       5.852   5.184  15.823  0.00  0.00    +0.000 NA
ATOM     17  C   UNL     1       7.179   5.288  16.430  0.00  0.00    +0.000 C 
ATOM     18  C   UNL     1       5.096   6.438  15.975  0.00  0.00    +0.000 C 
ATOM     19  C   UNL     1       4.614   6.727  17.404  0.00  0.00    +0.000 C 
ENDBRANCH   6  11
BRANCH   1  25
ATOM     20  C   UNL     1       2.363  14.972  19.199  0.00  0.00    +0.000 A 
ATOM     21  C   UNL     1       1.617  16.092  18.909  0.00  0.00    +0.000 A 
ATOM     22  C   UNL     1       0.269  15.896  18.732  0.00  0.00    +0.000 A 
ATOM     23  N   UNL     1      -0.328  14.693  18.803  0.00  0.00    +0.000 NA
ATOM     24  C   UNL     1       0.459  13.651  19.102  0.00  0.00    +0.000 A 
ATOM     25  N   UNL     1      -0.135  12.390  19.153  0.00  0.00    +0.000 N 
ATOM     26  N   UNL     1       1.778  13.763  19.302  0.00  0.00    +0.000 NA
ATOM     27  H   UNL     1      -1.014  12.384  18.666  0.00  0.00    +0.000 HD
BRANCH  20  32
ATOM     28  C   UNL     1       6.131  14.938  18.742  0.00  0.00    +0.000 A 
ATOM     29  C   UNL     1       6.492  14.900  20.092  0.00  0.00    +0.000 A 
ATOM     30  C   UNL     1       5.498  14.954  21.054  0.00  0.00    +0.000 A 
ATOM     31  N   UNL     1       4.181  15.009  20.774  0.00  0.00    +0.000 NA
ATOM     32  C   UNL     1       3.814  15.023  19.467  0.00  0.00    +0.000 A 
ATOM     33  C   UNL     1       4.768  15.017  18.439  0.00  0.00    +0.000 A 
BRANCH  28  35
ATOM     34  C   UNL     1       8.259  15.901  17.849  0.00  0.00    +0.000 C 
ATOM     35  C   UNL     1       7.200  14.809  17.669  0.00  0.00    +0.000 C 
ATOM     36  C   UNL     1       7.876  13.435  17.615  0.00  0.00    +0.000 C 
ENDBRANCH  28  35
ENDBRANCH  20  32
ENDBRANCH   1  25
TORSDOF 4
ENDMDL
