MODEL 1
REMARK VINA RESULT:      -8.8      0.000      0.000
REMARK  Name = 
REMARK  3 active torsions:
REMARK  status: ('A' for Active; 'I' for Inactive)
REMARK    1  A    between atoms: C_1  and  C_2
REMARK    2  A    between atoms: C_4  and  C_5
REMARK    3  A    between atoms: N_18  and  C_19
REMARK                            x       y       z     vdW  Elec       q    Type
REMARK                         _______ _______ _______ _____ _____    ______ ____
ROOT
ATOM      1  C   UNL     1       1.398   2.233  18.706  0.00  0.00    +0.000 C 
ATOM      2  C   UNL     1       2.218   3.416  18.282  0.00  0.00    +0.000 A 
ATOM      3  C   UNL     1       1.870   4.720  18.664  0.00  0.00    +0.000 A 
ATOM      4  C   UNL     1       2.626   5.854  18.278  0.00  0.00    +0.000 A 
ATOM      5  C   UNL     1       3.787   5.639  17.492  0.00  0.00    +0.000 A 
ATOM      6  N   UNL     1       4.601   6.726  17.110  0.00  0.00    +0.000 NA
ATOM      7  C   UNL     1       5.627   6.508  16.366  0.00  0.00    +0.000 A 
ATOM      8  N   UNL     1       6.013   5.281  15.913  0.00  0.00    +0.000 N 
ATOM      9  C   UNL     1       7.190   5.147  15.076  0.00  0.00    +0.000 C 
ATOM     10  C   UNL     1       5.315   4.136  16.255  0.00  0.00    +0.000 A 
ATOM     11  O   UNL     1       5.637   3.009  15.890  0.00  0.00    +0.000 OA
ATOM     12  C   UNL     1       4.120   4.332  17.104  0.00  0.00    +0.000 A 
ATOM     13  C   UNL     1       3.350   3.229  17.490  0.00  0.00    +0.000 A 
ENDROOT
BRANCH   4  14
ATOM     14  C   UNL     1       2.168   7.206  18.692  0.00  0.00    +0.000 A 
ATOM     15  C   UNL     1       2.013   8.263  17.797  0.00  0.00    +0.000 A 
ATOM     16  C   UNL     1       1.559   9.494  18.253  0.00  0.00    +0.000 A 
ATOM     17  C   UNL     1       1.207   9.641  19.591  0.00  0.00    +0.000 A 
ATOM     18  C   UNL     1       0.673  10.847  20.071  0.00  0.00    +0.000 A 
ATOM     19  C   UNL     1       0.268  10.952  21.398  0.00  0.00    +0.000 A 
ATOM     20  C   UNL     1       0.430   9.867  22.252  0.00  0.00    +0.000 A 
ATOM     21  C   UNL     1       0.991   8.677  21.772  0.00  0.00    +0.000 A 
ATOM     22  C   UNL     1       1.369   8.530  20.443  0.00  0.00    +0.000 A 
ATOM     23  N   UNL     1       1.847   7.348  20.008  0.00  0.00    +0.000 NA
ENDBRANCH   4  14
TORSDOF 1
ENDMDL
MODEL 2
REMARK VINA RESULT:      -8.6      2.209      3.560
REMARK  Name = 
REMARK  3 active torsions:
REMARK  status: ('A' for Active; 'I' for Inactive)
REMARK    1  A    between atoms: C_1  and  C_2
REMARK    2  A    between atoms: C_4  and  C_5
REMARK    3  A    between atoms: N_18  and  C_19
REMARK                            x       y       z     vdW  Elec       q    Type
REMARK                         _______ _______ _______ _____ _____    ______ ____
ROOT
ATOM      1  C   UNL     1       5.239   6.382  15.919  0.00  0.00    +0.000 C 
ATOM      2  C   UNL     1       4.359   6.208  17.123  0.00  0.00    +0.000 A 
ATOM      3  C   UNL     1       3.527   7.243  17.573  0.00  0.00    +0.000 A 
ATOM      4  C   UNL     1       2.687   7.106  18.706  0.00  0.00    +0.000 A 
ATOM      5  C   UNL     1       2.687   5.861  19.383  0.00  0.00    +0.000 A 
ATOM      6  N   UNL     1       1.842   5.653  20.494  0.00  0.00    +0.000 NA
ATOM      7  C   UNL     1       1.889   4.527  21.114  0.00  0.00    +0.000 A 
ATOM      8  N   UNL     1       2.699   3.484  20.772  0.00  0.00    +0.000 N 
ATOM      9  C   UNL     1       2.675   2.255  21.542  0.00  0.00    +0.000 C 
ATOM     10  C   UNL     1       3.543   3.558  19.677  0.00  0.00    +0.000 A 
ATOM     11  O   UNL     1       4.273   2.637  19.318  0.00  0.00    +0.000 OA
ATOM     12  C   UNL     1       3.533   4.835  18.933  0.00  0.00    +0.000 A 
ATOM     13  C   UNL     1       4.362   5.000  17.818  0.00  0.00    +0.000 A 
ENDROOT
BRANCH   4  14
ATOM     14  C   UNL     1       1.863   8.265  19.142  0.00  0.00    +0.000 A 
ATOM     15  C   UNL     1       1.364   9.217  18.257  0.00  0.00    +0.000 A 
ATOM     16  C   UNL     1       0.582  10.262  18.734  0.00  0.00    +0.000 A 
ATOM     17  C   UNL     1       0.258  10.312  20.086  0.00  0.00    +0.000 A 
ATOM     18  C   UNL     1      -0.591  11.310  20.591  0.00  0.00    +0.000 A 
ATOM     19  C   UNL     1      -0.954  11.303  21.934  0.00  0.00    +0.000 A 
ATOM     20  C   UNL     1      -0.441  10.325  22.778  0.00  0.00    +0.000 A 
ATOM     21  C   UNL     1       0.429   9.351  22.272  0.00  0.00    +0.000 A 
ATOM     22  C   UNL     1       0.779   9.309  20.928  0.00  0.00    +0.000 A 
ATOM     23  N   UNL     1       1.569   8.318  20.470  0.00  0.00    +0.000 NA
ENDBRANCH   4  14
TORSDOF 1
ENDMDL
MODEL 3
REMARK VINA RESULT:      -8.5      1.425      1.765
REMARK  Name = 
REMARK  3 active torsions:
REMARK  status: ('A' for Active; 'I' for Inactive)
REMARK    1  A    between atoms: C_1  and  C_2
REMARK    2  A    between atoms: C_4  and  C_5
REMARK    3  A    between atoms: N_18  and  C_19
REMARK                            x       y       z     vdW  Elec       q    Type
REMARK                         _______ _______ _______ _____ _____    ______ ____
ROOT
ATOM      1  C   UNL     1       1.827   2.995  21.401  0.00  0.00    +0.000 C 
ATOM      2  C   UNL     1       2.244   4.117  20.495  0.00  0.00    +0.000 A 
ATOM      3  C   UNL     1       1.776   5.424  20.691  0.00  0.00    +0.000 A 
ATOM      4  C   UNL     1       2.153   6.501  19.850  0.00  0.00    +0.000 A 
ATOM      5  C   UNL     1       3.056   6.229  18.792  0.00  0.00    +0.000 A 
ATOM      6  N   UNL     1       3.498   7.269  17.947  0.00  0.00    +0.000 NA
ATOM      7  C   UNL     1       4.286   6.990  16.970  0.00  0.00    +0.000 A 
ATOM      8  N   UNL     1       4.755   5.742  16.681  0.00  0.00    +0.000 N 
ATOM      9  C   UNL     1       5.641   5.536  15.552  0.00  0.00    +0.000 C 
ATOM     10  C   UNL     1       4.421   4.650  17.463  0.00  0.00    +0.000 A 
ATOM     11  O   UNL     1       4.836   3.513  17.255  0.00  0.00    +0.000 OA
ATOM     12  C   UNL     1       3.509   4.915  18.596  0.00  0.00    +0.000 A 
ATOM     13  C   UNL     1       3.112   3.867  19.433  0.00  0.00    +0.000 A 
ENDROOT
BRANCH   4  14
ATOM     14  C   UNL     1       1.581   7.850  20.101  0.00  0.00    +0.000 A 
ATOM     15  C   UNL     1       1.555   8.855  19.137  0.00  0.00    +0.000 A 
ATOM     16  C   UNL     1       0.984  10.086  19.436  0.00  0.00    +0.000 A 
ATOM     17  C   UNL     1       0.391  10.281  20.680  0.00  0.00    +0.000 A 
ATOM     18  C   UNL     1      -0.262  11.484  20.990  0.00  0.00    +0.000 A 
ATOM     19  C   UNL     1      -0.903  11.634  22.215  0.00  0.00    +0.000 A 
ATOM     20  C   UNL     1      -0.861  10.599  23.143  0.00  0.00    +0.000 A 
ATOM     21  C   UNL     1      -0.183   9.414  22.836  0.00  0.00    +0.000 A 
ATOM     22  C   UNL     1       0.434   9.220  21.607  0.00  0.00    +0.000 A 
ATOM     23  N   UNL     1       1.024   8.040  21.329  0.00  0.00    +0.000 NA
ENDBRANCH   4  14
TORSDOF 1
ENDMDL
MODEL 4
REMARK VINA RESULT:      -8.4      2.405      7.094
REMARK  Name = 
REMARK  3 active torsions:
REMARK  status: ('A' for Active; 'I' for Inactive)
REMARK    1  A    between atoms: C_1  and  C_2
REMARK    2  A    between atoms: C_4  and  C_5
REMARK    3  A    between atoms: N_18  and  C_19
REMARK                            x       y       z     vdW  Elec       q    Type
REMARK                         _______ _______ _______ _____ _____    ______ ____
ROOT
ATOM      1  C   UNL     1       3.777   2.323  20.626  0.00  0.00    +0.000 C 
ATOM      2  C   UNL     1       3.743   3.577  19.802  0.00  0.00    +0.000 A 
ATOM      3  C   UNL     1       4.496   3.697  18.625  0.00  0.00    +0.000 A 
ATOM      4  C   UNL     1       4.482   4.869  17.829  0.00  0.00    +0.000 A 
ATOM      5  C   UNL     1       3.652   5.941  18.244  0.00  0.00    +0.000 A 
ATOM      6  N   UNL     1       3.568   7.118  17.470  0.00  0.00    +0.000 NA
ATOM      7  C   UNL     1       2.837   8.091  17.889  0.00  0.00    +0.000 A 
ATOM      8  N   UNL     1       2.108   8.076  19.041  0.00  0.00    +0.000 N 
ATOM      9  C   UNL     1       1.317   9.231  19.421  0.00  0.00    +0.000 C 
ATOM     10  C   UNL     1       2.082   6.961  19.861  0.00  0.00    +0.000 A 
ATOM     11  O   UNL     1       1.424   6.894  20.896  0.00  0.00    +0.000 OA
ATOM     12  C   UNL     1       2.912   5.817  19.430  0.00  0.00    +0.000 A 
ATOM     13  C   UNL     1       2.952   4.652  20.205  0.00  0.00    +0.000 A 
ENDROOT
BRANCH   4  14
ATOM     14  C   UNL     1       5.340   4.932  16.616  0.00  0.00    +0.000 A 
ATOM     15  C   UNL     1       6.591   5.544  16.602  0.00  0.00    +0.000 A 
ATOM     16  C   UNL     1       7.347   5.545  15.436  0.00  0.00    +0.000 A 
ATOM     17  C   UNL     1       6.870   4.881  14.310  0.00  0.00    +0.000 A 
ATOM     18  C   UNL     1       7.639   4.795  13.139  0.00  0.00    +0.000 A 
ATOM     19  C   UNL     1       7.170   4.072  12.047  0.00  0.00    +0.000 A 
ATOM     20  C   UNL     1       5.920   3.467  12.112  0.00  0.00    +0.000 A 
ATOM     21  C   UNL     1       5.147   3.582  13.273  0.00  0.00    +0.000 A 
ATOM     22  C   UNL     1       5.605   4.265  14.393  0.00  0.00    +0.000 A 
ATOM     23  N   UNL     1       4.855   4.299  15.512  0.00  0.00    +0.000 NA
ENDBRANCH   4  14
TORSDOF 1
ENDMDL
MODEL 5
REMARK VINA RESULT:      -8.3      3.308      5.059
REMARK  Name = 
REMARK  3 active torsions:
REMARK  status: ('A' for Active; 'I' for Inactive)
REMARK    1  A    between atoms: C_1  and  C_2
REMARK    2  A    between atoms: C_4  and  C_5
REMARK    3  A    between atoms: N_18  and  C_19
REMARK                            x       y       z     vdW  Elec       q    Type
REMARK                         _______ _______ _______ _____ _____    ______ ____
ROOT
ATOM      1  C   UNL     1       8.204   8.258  18.064  0.00  0.00    +0.000 C 
ATOM      2  C   UNL     1       7.320   7.214  17.446  0.00  0.00    +0.000 A 
ATOM      3  C   UNL     1       6.161   6.764  18.096  0.00  0.00    +0.000 A 
ATOM      4  C   UNL     1       5.309   5.780  17.536  0.00  0.00    +0.000 A 
ATOM      5  C   UNL     1       5.647   5.260  16.261  0.00  0.00    +0.000 A 
ATOM      6  N   UNL     1       4.814   4.307  15.636  0.00  0.00    +0.000 NA
ATOM      7  C   UNL     1       5.163   3.823  14.497  0.00  0.00    +0.000 A 
ATOM      8  N   UNL     1       6.293   4.171  13.817  0.00  0.00    +0.000 N 
ATOM      9  C   UNL     1       6.593   3.561  12.535  0.00  0.00    +0.000 C 
ATOM     10  C   UNL     1       7.165   5.125  14.312  0.00  0.00    +0.000 A 
ATOM     11  O   UNL     1       8.182   5.486  13.725  0.00  0.00    +0.000 OA
ATOM     12  C   UNL     1       6.815   5.708  15.625  0.00  0.00    +0.000 A 
ATOM     13  C   UNL     1       7.646   6.673  16.204  0.00  0.00    +0.000 A 
ENDROOT
BRANCH   4  14
ATOM     14  C   UNL     1       4.120   5.328  18.306  0.00  0.00    +0.000 A 
ATOM     15  C   UNL     1       2.834   5.805  18.067  0.00  0.00    +0.000 A 
ATOM     16  C   UNL     1       1.766   5.320  18.813  0.00  0.00    +0.000 A 
ATOM     17  C   UNL     1       1.988   4.317  19.752  0.00  0.00    +0.000 A 
ATOM     18  C   UNL     1       0.923   3.750  20.470  0.00  0.00    +0.000 A 
ATOM     19  C   UNL     1       1.159   2.704  21.357  0.00  0.00    +0.000 A 
ATOM     20  C   UNL     1       2.458   2.252  21.554  0.00  0.00    +0.000 A 
ATOM     21  C   UNL     1       3.518   2.844  20.856  0.00  0.00    +0.000 A 
ATOM     22  C   UNL     1       3.310   3.863  19.935  0.00  0.00    +0.000 A 
ATOM     23  N   UNL     1       4.349   4.363  19.239  0.00  0.00    +0.000 NA
ENDBRANCH   4  14
TORSDOF 1
ENDMDL
MODEL 6
REMARK VINA RESULT:      -8.2      1.685      3.296
REMARK  Name = 
REMARK  3 active torsions:
REMARK  status: ('A' for Active; 'I' for Inactive)
REMARK    1  A    between atoms: C_1  and  C_2
REMARK    2  A    between atoms: C_4  and  C_5
REMARK    3  A    between atoms: N_18  and  C_19
REMARK                            x       y       z     vdW  Elec       q    Type
REMARK                         _______ _______ _______ _____ _____    ______ ____
ROOT
ATOM      1  C   UNL     1       6.419   5.775  16.095  0.00  0.00    +0.000 C 
ATOM      2  C   UNL     1       5.142   5.558  16.854  0.00  0.00    +0.000 A 
ATOM      3  C   UNL     1       4.380   6.639  17.321  0.00  0.00    +0.000 A 
ATOM      4  C   UNL     1       3.171   6.463  18.039  0.00  0.00    +0.000 A 
ATOM      5  C   UNL     1       2.722   5.137  18.264  0.00  0.00    +0.000 A 
ATOM      6  N   UNL     1       1.506   4.901  18.939  0.00  0.00    +0.000 NA
ATOM      7  C   UNL     1       1.140   3.689  19.164  0.00  0.00    +0.000 A 
ATOM      8  N   UNL     1       1.841   2.582  18.785  0.00  0.00    +0.000 N 
ATOM      9  C   UNL     1       1.337   1.256  19.092  0.00  0.00    +0.000 C 
ATOM     10  C   UNL     1       3.029   2.689  18.082  0.00  0.00    +0.000 A 
ATOM     11  O   UNL     1       3.682   1.721  17.701  0.00  0.00    +0.000 OA
ATOM     12  C   UNL     1       3.499   4.063  17.804  0.00  0.00    +0.000 A 
ATOM     13  C   UNL     1       4.695   4.263  17.107  0.00  0.00    +0.000 A 
ENDROOT
BRANCH   4  14
ATOM     14  C   UNL     1       2.441   7.660  18.534  0.00  0.00    +0.000 A 
ATOM     15  C   UNL     1       2.075   8.721  17.710  0.00  0.00    +0.000 A 
ATOM     16  C   UNL     1       1.375   9.799  18.239  0.00  0.00    +0.000 A 
ATOM     17  C   UNL     1       0.996   9.777  19.577  0.00  0.00    +0.000 A 
ATOM     18  C   UNL     1       0.223  10.811  20.128  0.00  0.00    +0.000 A 
ATOM     19  C   UNL     1      -0.200  10.738  21.451  0.00  0.00    +0.000 A 
ATOM     20  C   UNL     1       0.179   9.653  22.233  0.00  0.00    +0.000 A 
ATOM     21  C   UNL     1       0.975   8.640  21.685  0.00  0.00    +0.000 A 
ATOM     22  C   UNL     1       1.380   8.666  20.356  0.00  0.00    +0.000 A 
ATOM     23  N   UNL     1       2.094   7.641  19.851  0.00  0.00    +0.000 NA
ENDBRANCH   4  14
TORSDOF 1
ENDMDL
MODEL 7
REMARK VINA RESULT:      -8.0      2.793      7.393
REMARK  Name = 
REMARK  3 active torsions:
REMARK  status: ('A' for Active; 'I' for Inactive)
REMARK    1  A    between atoms: C_1  and  C_2
REMARK    2  A    between atoms: C_4  and  C_5
REMARK    3  A    between atoms: N_18  and  C_19
REMARK                            x       y       z     vdW  Elec       q    Type
REMARK                         _______ _______ _______ _____ _____    ______ ____
ROOT
ATOM      1  C   UNL     1       2.229   8.850  18.107  0.00  0.00    +0.000 C 
ATOM      2  C   UNL     1       2.842   7.481  18.151  0.00  0.00    +0.000 A 
ATOM      3  C   UNL     1       3.736   7.051  17.159  0.00  0.00    +0.000 A 
ATOM      4  C   UNL     1       4.329   5.764  17.176  0.00  0.00    +0.000 A 
ATOM      5  C   UNL     1       4.011   4.903  18.256  0.00  0.00    +0.000 A 
ATOM      6  N   UNL     1       4.602   3.625  18.347  0.00  0.00    +0.000 NA
ATOM      7  C   UNL     1       4.268   2.848  19.316  0.00  0.00    +0.000 A 
ATOM      8  N   UNL     1       3.376   3.168  20.297  0.00  0.00    +0.000 N 
ATOM      9  C   UNL     1       3.068   2.215  21.346  0.00  0.00    +0.000 C 
ATOM     10  C   UNL     1       2.762   4.409  20.334  0.00  0.00    +0.000 A 
ATOM     11  O   UNL     1       1.970   4.749  21.209  0.00  0.00    +0.000 OA
ATOM     12  C   UNL     1       3.106   5.338  19.237  0.00  0.00    +0.000 A 
ATOM     13  C   UNL     1       2.525   6.610  19.191  0.00  0.00    +0.000 A 
ENDROOT
BRANCH   4  14
ATOM     14  C   UNL     1       5.236   5.370  16.066  0.00  0.00    +0.000 A 
ATOM     15  C   UNL     1       6.614   5.569  16.103  0.00  0.00    +0.000 A 
ATOM     16  C   UNL     1       7.402   5.155  15.036  0.00  0.00    +0.000 A 
ATOM     17  C   UNL     1       6.811   4.491  13.966  0.00  0.00    +0.000 A 
ATOM     18  C   UNL     1       7.585   3.991  12.907  0.00  0.00    +0.000 A 
ATOM     19  C   UNL     1       6.981   3.273  11.880  0.00  0.00    +0.000 A 
ATOM     20  C   UNL     1       5.604   3.088  11.891  0.00  0.00    +0.000 A 
ATOM     21  C   UNL     1       4.835   3.615  12.936  0.00  0.00    +0.000 A 
ATOM     22  C   UNL     1       5.414   4.302  13.995  0.00  0.00    +0.000 A 
ATOM     23  N   UNL     1       4.646   4.740  15.012  0.00  0.00    +0.000 NA
ENDBRANCH   4  14
TORSDOF 1
ENDMDL
MODEL 8
REMARK VINA RESULT:      -7.8      0.794      1.668
REMARK  Name = 
REMARK  3 active torsions:
REMARK  status: ('A' for Active; 'I' for Inactive)
REMARK    1  A    between atoms: C_1  and  C_2
REMARK    2  A    between atoms: C_4  and  C_5
REMARK    3  A    between atoms: N_18  and  C_19
REMARK                            x       y       z     vdW  Elec       q    Type
REMARK                         _______ _______ _______ _____ _____    ______ ____
ROOT
ATOM      1  C   UNL     1       1.366   1.922  18.577  0.00  0.00    +0.000 C 
ATOM      2  C   UNL     1       2.146   3.180  18.326  0.00  0.00    +0.000 A 
ATOM      3  C   UNL     1       1.771   4.399  18.909  0.00  0.00    +0.000 A 
ATOM      4  C   UNL     1       2.489   5.600  18.689  0.00  0.00    +0.000 A 
ATOM      5  C   UNL     1       3.640   5.541  17.864  0.00  0.00    +0.000 A 
ATOM      6  N   UNL     1       4.418   6.697  17.641  0.00  0.00    +0.000 NA
ATOM      7  C   UNL     1       5.436   6.626  16.857  0.00  0.00    +0.000 A 
ATOM      8  N   UNL     1       5.845   5.494  16.216  0.00  0.00    +0.000 N 
ATOM      9  C   UNL     1       7.010   5.523  15.351  0.00  0.00    +0.000 C 
ATOM     10  C   UNL     1       5.184   4.290  16.390  0.00  0.00    +0.000 A 
ATOM     11  O   UNL     1       5.530   3.241  15.851  0.00  0.00    +0.000 OA
ATOM     12  C   UNL     1       4.001   4.319  17.275  0.00  0.00    +0.000 A 
ATOM     13  C   UNL     1       3.267   3.149  17.499  0.00  0.00    +0.000 A 
ENDROOT
BRANCH   4  14
ATOM     14  C   UNL     1       2.003   6.860  19.312  0.00  0.00    +0.000 A 
ATOM     15  C   UNL     1       1.672   6.961  20.661  0.00  0.00    +0.000 A 
ATOM     16  C   UNL     1       1.244   8.178  21.178  0.00  0.00    +0.000 A 
ATOM     17  C   UNL     1       1.208   9.298  20.353  0.00  0.00    +0.000 A 
ATOM     18  C   UNL     1       0.854  10.559  20.859  0.00  0.00    +0.000 A 
ATOM     19  C   UNL     1       0.888  11.676  20.031  0.00  0.00    +0.000 A 
ATOM     20  C   UNL     1       1.237  11.529  18.694  0.00  0.00    +0.000 A 
ATOM     21  C   UNL     1       1.560  10.263  18.191  0.00  0.00    +0.000 A 
ATOM     22  C   UNL     1       1.573   9.135  19.001  0.00  0.00    +0.000 A 
ATOM     23  N   UNL     1       1.949   7.946  18.492  0.00  0.00    +0.000 NA
ENDBRANCH   4  14
TORSDOF 1
ENDMDL
MODEL 9
REMARK VINA RESULT:      -7.8      1.464      2.410
REMARK  Name = 
REMARK  3 active torsions:
REMARK  status: ('A' for Active; 'I' for Inactive)
REMARK    1  A    between atoms: C_1  and  C_2
REMARK    2  A    between atoms: C_4  and  C_5
REMARK    3  A    between atoms: N_18  and  C_19
REMARK                            x       y       z     vdW  Elec       q    Type
REMARK                         _______ _______ _______ _____ _____    ______ ____
ROOT
ATOM      1  C   UNL     1       1.625   2.949  21.368  0.00  0.00    +0.000 C 
ATOM      2  C   UNL     1       2.079   4.105  20.525  0.00  0.00    +0.000 A 
ATOM      3  C   UNL     1       1.678   5.418  20.812  0.00  0.00    +0.000 A 
ATOM      4  C   UNL     1       2.092   6.527  20.033  0.00  0.00    +0.000 A 
ATOM      5  C   UNL     1       2.961   6.281  18.941  0.00  0.00    +0.000 A 
ATOM      6  N   UNL     1       3.438   7.351  18.153  0.00  0.00    +0.000 NA
ATOM      7  C   UNL     1       4.195   7.097  17.145  0.00  0.00    +0.000 A 
ATOM      8  N   UNL     1       4.597   5.850  16.769  0.00  0.00    +0.000 N 
ATOM      9  C   UNL     1       5.453   5.674  15.611  0.00  0.00    +0.000 C 
ATOM     10  C   UNL     1       4.225   4.727  17.488  0.00  0.00    +0.000 A 
ATOM     11  O   UNL     1       4.581   3.587  17.201  0.00  0.00    +0.000 OA
ATOM     12  C   UNL     1       3.347   4.962  18.654  0.00  0.00    +0.000 A 
ATOM     13  C   UNL     1       2.915   3.883  19.432  0.00  0.00    +0.000 A 
ENDROOT
BRANCH   4  14
ATOM     14  C   UNL     1       1.590   7.883  20.379  0.00  0.00    +0.000 A 
ATOM     15  C   UNL     1       1.374   8.301  21.690  0.00  0.00    +0.000 A 
ATOM     16  C   UNL     1       0.924   9.592  21.940  0.00  0.00    +0.000 A 
ATOM     17  C   UNL     1       0.751  10.473  20.877  0.00  0.00    +0.000 A 
ATOM     18  C   UNL     1       0.371  11.807  21.097  0.00  0.00    +0.000 A 
ATOM     19  C   UNL     1       0.266  12.688  20.026  0.00  0.00    +0.000 A 
ATOM     20  C   UNL     1       0.504  12.230  18.735  0.00  0.00    +0.000 A 
ATOM     21  C   UNL     1       0.854  10.891  18.522  0.00  0.00    +0.000 A 
ATOM     22  C   UNL     1       1.004   9.997  19.575  0.00  0.00    +0.000 A 
ATOM     23  N   UNL     1       1.402   8.733  19.331  0.00  0.00    +0.000 NA
ENDBRANCH   4  14
TORSDOF 1
ENDMDL
