MODEL 1
REMARK VINA RESULT:      -6.4      0.000      0.000
REMARK  Name = 
REMARK  6 active torsions:
REMARK  status: ('A' for Active; 'I' for Inactive)
REMARK    1  A    between atoms: C_1  and  N_2
REMARK    2  A    between atoms: N_2  and  C_3
REMARK    3  A    between atoms: N_2  and  C_4
REMARK    4  A    between atoms: C_4  and  C_5
REMARK    5  A    between atoms: C_5  and  N_6
REMARK    6  A    between atoms: C_10  and  C_12
REMARK                            x       y       z     vdW  Elec       q    Type
REMARK                         _______ _______ _______ _____ _____    ______ ____
ROOT
ATOM      1  N   UNL     1       7.225   6.144  17.678  0.00  0.00    +0.000 N 
ATOM      2  C   UNL     1       7.991   6.305  18.786  0.00  0.00    +0.000 C 
ATOM      3  O   UNL     1       8.207   5.417  19.608  0.00  0.00    +0.000 OA
ATOM      4  N   UNL     1       8.509   7.560  18.996  0.00  0.00    +0.000 N 
ATOM      5  C   UNL     1       8.314   8.688  18.220  0.00  0.00    +0.000 C 
ATOM      6  O   UNL     1       7.704   8.694  17.157  0.00  0.00    +0.000 OA
ATOM      7  H   UNL     1       7.269   6.868  16.960  0.00  0.00    +0.000 HD
ATOM      8  H   UNL     1       8.987   7.629  19.881  0.00  0.00    +0.000 HD
ENDROOT
BRANCH   5   9
ATOM      9  C   UNL     1       8.885   9.966  18.718  0.00  0.00    +0.000 A 
ATOM     10  C   UNL     1       9.291  10.159  20.044  0.00  0.00    +0.000 A 
ATOM     11  C   UNL     1       9.882  11.373  20.419  0.00  0.00    +0.000 A 
ATOM     12  C   UNL     1      10.065  12.385  19.473  0.00  0.00    +0.000 A 
ATOM     13 CL   UNL     1      10.810  13.863  19.936  0.00  0.00    +0.000 Cl
ATOM     14  C   UNL     1       9.661  12.198  18.155  0.00  0.00    +0.000 A 
ATOM     15  C   UNL     1       9.074  10.991  17.778  0.00  0.00    +0.000 A 
ENDBRANCH   5   9
BRANCH   1  16
ATOM     16  C   UNL     1       6.626   4.874  17.329  0.00  0.00    +0.000 C 
BRANCH  16  17
ATOM     17  C   UNL     1       5.122   4.797  17.664  0.00  0.00    +0.000 C 
BRANCH  17  19
ATOM     18  C   UNL     1       3.746   5.533  19.538  0.00  0.00    +0.000 C 
ATOM     19  N   UNL     1       4.802   4.620  19.097  0.00  0.00    +0.000 NA
ATOM     20  C   UNL     1       4.384   3.235  19.348  0.00  0.00    +0.000 C 
ENDBRANCH  17  19
ENDBRANCH  16  17
ENDBRANCH   1  16
TORSDOF 4
ENDMDL
MODEL 2
REMARK VINA RESULT:      -6.3      0.755      1.471
REMARK  Name = 
REMARK  6 active torsions:
REMARK  status: ('A' for Active; 'I' for Inactive)
REMARK    1  A    between atoms: C_1  and  N_2
REMARK    2  A    between atoms: N_2  and  C_3
REMARK    3  A    between atoms: N_2  and  C_4
REMARK    4  A    between atoms: C_4  and  C_5
REMARK    5  A    between atoms: C_5  and  N_6
REMARK    6  A    between atoms: C_10  and  C_12
REMARK                            x       y       z     vdW  Elec       q    Type
REMARK                         _______ _______ _______ _____ _____    ______ ____
ROOT
ATOM      1  N   UNL     1       7.089   5.819  17.823  0.00  0.00    +0.000 N 
ATOM      2  C   UNL     1       7.908   6.115  18.863  0.00  0.00    +0.000 C 
ATOM      3  O   UNL     1       8.203   5.322  19.754  0.00  0.00    +0.000 OA
ATOM      4  N   UNL     1       8.390   7.401  18.917  0.00  0.00    +0.000 N 
ATOM      5  C   UNL     1       8.110   8.438  18.046  0.00  0.00    +0.000 C 
ATOM      6  O   UNL     1       7.443   8.318  17.025  0.00  0.00    +0.000 OA
ATOM      7  H   UNL     1       7.066   6.469  17.036  0.00  0.00    +0.000 HD
ATOM      8  H   UNL     1       8.914   7.573  19.761  0.00  0.00    +0.000 HD
ENDROOT
BRANCH   5   9
ATOM      9  C   UNL     1       8.660   9.778  18.382  0.00  0.00    +0.000 A 
ATOM     10  C   UNL     1       8.480  10.905  17.571  0.00  0.00    +0.000 A 
ATOM     11  C   UNL     1       8.974  12.146  17.991  0.00  0.00    +0.000 A 
ATOM     12  C   UNL     1       9.643  12.259  19.213  0.00  0.00    +0.000 A 
ATOM     13 CL   UNL     1      10.227  13.790  19.732  0.00  0.00    +0.000 Cl
ATOM     14  C   UNL     1       9.825  11.140  20.020  0.00  0.00    +0.000 A 
ATOM     15  C   UNL     1       9.334   9.903  19.607  0.00  0.00    +0.000 A 
ENDBRANCH   5   9
BRANCH   1  16
ATOM     16  C   UNL     1       6.520   4.503  17.636  0.00  0.00    +0.000 C 
BRANCH  16  17
ATOM     17  C   UNL     1       5.067   4.534  17.118  0.00  0.00    +0.000 C 
BRANCH  17  19
ATOM     18  C   UNL     1       3.252   2.963  17.542  0.00  0.00    +0.000 C 
ATOM     19  N   UNL     1       4.044   4.072  18.079  0.00  0.00    +0.000 NA
ATOM     20  C   UNL     1       4.686   3.649  19.329  0.00  0.00    +0.000 C 
ENDBRANCH  17  19
ENDBRANCH  16  17
ENDBRANCH   1  16
TORSDOF 4
ENDMDL
MODEL 3
REMARK VINA RESULT:      -6.2      0.456      1.439
REMARK  Name = 
REMARK  6 active torsions:
REMARK  status: ('A' for Active; 'I' for Inactive)
REMARK    1  A    between atoms: C_1  and  N_2
REMARK    2  A    between atoms: N_2  and  C_3
REMARK    3  A    between atoms: N_2  and  C_4
REMARK    4  A    between atoms: C_4  and  C_5
REMARK    5  A    between atoms: C_5  and  N_6
REMARK    6  A    between atoms: C_10  and  C_12
REMARK                            x       y       z     vdW  Elec       q    Type
REMARK                         _______ _______ _______ _____ _____    ______ ____
ROOT
ATOM      1  N   UNL     1       6.953   6.314  17.758  0.00  0.00    +0.000 N 
ATOM      2  C   UNL     1       7.863   6.364  18.763  0.00  0.00    +0.000 C 
ATOM      3  O   UNL     1       8.106   5.425  19.518  0.00  0.00    +0.000 OA
ATOM      4  N   UNL     1       8.506   7.564  18.948  0.00  0.00    +0.000 N 
ATOM      5  C   UNL     1       8.310   8.737  18.244  0.00  0.00    +0.000 C 
ATOM      6  O   UNL     1       7.574   8.841  17.270  0.00  0.00    +0.000 OA
ATOM      7  H   UNL     1       6.967   7.065  17.067  0.00  0.00    +0.000 HD
ATOM      8  H   UNL     1       9.096   7.554  19.766  0.00  0.00    +0.000 HD
ENDROOT
BRANCH   5   9
ATOM      9  C   UNL     1       9.044   9.943  18.710  0.00  0.00    +0.000 A 
ATOM     10  C   UNL     1       9.608  10.882  17.837  0.00  0.00    +0.000 A 
ATOM     11  C   UNL     1      10.227  12.026  18.356  0.00  0.00    +0.000 A 
ATOM     12  C   UNL     1      10.282  12.229  19.737  0.00  0.00    +0.000 A 
ATOM     13 CL   UNL     1      11.024  13.646  20.365  0.00  0.00    +0.000 Cl
ATOM     14  C   UNL     1       9.725  11.298  20.607  0.00  0.00    +0.000 A 
ATOM     15  C   UNL     1       9.107  10.158  20.095  0.00  0.00    +0.000 A 
ENDBRANCH   5   9
BRANCH   1  16
ATOM     16  C   UNL     1       6.211   5.113  17.445  0.00  0.00    +0.000 C 
BRANCH  16  17
ATOM     17  C   UNL     1       4.685   5.336  17.386  0.00  0.00    +0.000 C 
BRANCH  17  19
ATOM     18  C   UNL     1       4.628   3.529  19.021  0.00  0.00    +0.000 C 
ATOM     19  N   UNL     1       3.907   4.669  18.450  0.00  0.00    +0.000 NA
ATOM     20  C   UNL     1       3.593   5.628  19.516  0.00  0.00    +0.000 C 
ENDBRANCH  17  19
ENDBRANCH  16  17
ENDBRANCH   1  16
TORSDOF 4
ENDMDL
MODEL 4
REMARK VINA RESULT:      -6.2      6.840      7.570
REMARK  Name = 
REMARK  6 active torsions:
REMARK  status: ('A' for Active; 'I' for Inactive)
REMARK    1  A    between atoms: C_1  and  N_2
REMARK    2  A    between atoms: N_2  and  C_3
REMARK    3  A    between atoms: N_2  and  C_4
REMARK    4  A    between atoms: C_4  and  C_5
REMARK    5  A    between atoms: C_5  and  N_6
REMARK    6  A    between atoms: C_10  and  C_12
REMARK                            x       y       z     vdW  Elec       q    Type
REMARK                         _______ _______ _______ _____ _____    ______ ____
ROOT
ATOM      1  N   UNL     1       2.744   5.760  19.107  0.00  0.00    +0.000 N 
ATOM      2  C   UNL     1       2.283   5.665  20.380  0.00  0.00    +0.000 C 
ATOM      3  O   UNL     1       2.321   4.637  21.051  0.00  0.00    +0.000 OA
ATOM      4  N   UNL     1       1.708   6.796  20.909  0.00  0.00    +0.000 N 
ATOM      5  C   UNL     1       1.518   8.012  20.279  0.00  0.00    +0.000 C 
ATOM      6  O   UNL     1       1.934   8.279  19.157  0.00  0.00    +0.000 OA
ATOM      7  H   UNL     1       2.854   6.693  18.709  0.00  0.00    +0.000 HD
ATOM      8  H   UNL     1       1.307   6.626  21.818  0.00  0.00    +0.000 HD
ENDROOT
BRANCH   5   9
ATOM      9  C   UNL     1       0.761   9.054  21.022  0.00  0.00    +0.000 A 
ATOM     10  C   UNL     1       0.325   8.889  22.343  0.00  0.00    +0.000 A 
ATOM     11  C   UNL     1      -0.325   9.945  22.994  0.00  0.00    +0.000 A 
ATOM     12  C   UNL     1      -0.536  11.156  22.330  0.00  0.00    +0.000 A 
ATOM     13 CL   UNL     1      -1.315  12.454  23.144  0.00  0.00    +0.000 Cl
ATOM     14  C   UNL     1      -0.106  11.323  21.018  0.00  0.00    +0.000 A 
ATOM     15  C   UNL     1       0.542  10.275  20.366  0.00  0.00    +0.000 A 
ENDBRANCH   5   9
BRANCH   1  16
ATOM     16  C   UNL     1       3.382   4.652  18.431  0.00  0.00    +0.000 C 
BRANCH  16  17
ATOM     17  C   UNL     1       2.411   3.831  17.556  0.00  0.00    +0.000 C 
BRANCH  17  19
ATOM     18  C   UNL     1       3.313   1.936  18.797  0.00  0.00    +0.000 C 
ATOM     19  N   UNL     1       2.199   2.434  17.988  0.00  0.00    +0.000 NA
ATOM     20  C   UNL     1       0.954   2.332  18.761  0.00  0.00    +0.000 C 
ENDBRANCH  17  19
ENDBRANCH  16  17
ENDBRANCH   1  16
TORSDOF 4
ENDMDL
MODEL 5
REMARK VINA RESULT:      -6.2      1.666      2.376
REMARK  Name = 
REMARK  6 active torsions:
REMARK  status: ('A' for Active; 'I' for Inactive)
REMARK    1  A    between atoms: C_1  and  N_2
REMARK    2  A    between atoms: N_2  and  C_3
REMARK    3  A    between atoms: N_2  and  C_4
REMARK    4  A    between atoms: C_4  and  C_5
REMARK    5  A    between atoms: C_5  and  N_6
REMARK    6  A    between atoms: C_10  and  C_12
REMARK                            x       y       z     vdW  Elec       q    Type
REMARK                         _______ _______ _______ _____ _____    ______ ____
ROOT
ATOM      1  N   UNL     1       8.160   7.117  18.771  0.00  0.00    +0.000 N 
ATOM      2  C   UNL     1       7.810   7.780  17.641  0.00  0.00    +0.000 C 
ATOM      3  O   UNL     1       7.231   7.261  16.690  0.00  0.00    +0.000 OA
ATOM      4  N   UNL     1       8.175   9.103  17.569  0.00  0.00    +0.000 N 
ATOM      5  C   UNL     1       8.886   9.829  18.507  0.00  0.00    +0.000 C 
ATOM      6  O   UNL     1       9.219   9.396  19.604  0.00  0.00    +0.000 OA
ATOM      7  H   UNL     1       8.451   7.672  19.577  0.00  0.00    +0.000 HD
ATOM      8  H   UNL     1       7.965   9.505  16.668  0.00  0.00    +0.000 HD
ENDROOT
BRANCH   5   9
ATOM      9  C   UNL     1       9.265  11.221  18.148  0.00  0.00    +0.000 A 
ATOM     10  C   UNL     1       8.328  12.217  17.847  0.00  0.00    +0.000 A 
ATOM     11  C   UNL     1       8.763  13.521  17.584  0.00  0.00    +0.000 A 
ATOM     12  C   UNL     1      10.126  13.827  17.622  0.00  0.00    +0.000 A 
ATOM     13 CL   UNL     1      10.651  15.436  17.320  0.00  0.00    +0.000 Cl
ATOM     14  C   UNL     1      11.060  12.840  17.919  0.00  0.00    +0.000 A 
ATOM     15  C   UNL     1      10.631  11.541  18.183  0.00  0.00    +0.000 A 
ENDBRANCH   5   9
BRANCH   1  16
ATOM     16  C   UNL     1       7.830   5.725  18.985  0.00  0.00    +0.000 C 
BRANCH  16  17
ATOM     17  C   UNL     1       6.326   5.486  19.232  0.00  0.00    +0.000 C 
BRANCH  17  19
ATOM     18  C   UNL     1       4.633   3.749  19.480  0.00  0.00    +0.000 C 
ATOM     19  N   UNL     1       5.797   4.205  18.718  0.00  0.00    +0.000 NA
ATOM     20  C   UNL     1       5.427   4.348  17.304  0.00  0.00    +0.000 C 
ENDBRANCH  17  19
ENDBRANCH  16  17
ENDBRANCH   1  16
TORSDOF 4
ENDMDL
MODEL 6
REMARK VINA RESULT:      -6.1      1.520      1.989
REMARK  Name = 
REMARK  6 active torsions:
REMARK  status: ('A' for Active; 'I' for Inactive)
REMARK    1  A    between atoms: C_1  and  N_2
REMARK    2  A    between atoms: N_2  and  C_3
REMARK    3  A    between atoms: N_2  and  C_4
REMARK    4  A    between atoms: C_4  and  C_5
REMARK    5  A    between atoms: C_5  and  N_6
REMARK    6  A    between atoms: C_10  and  C_12
REMARK                            x       y       z     vdW  Elec       q    Type
REMARK                         _______ _______ _______ _____ _____    ______ ____
ROOT
ATOM      1  N   UNL     1       7.084   6.767  17.739  0.00  0.00    +0.000 N 
ATOM      2  C   UNL     1       7.988   6.779  18.751  0.00  0.00    +0.000 C 
ATOM      3  O   UNL     1       8.208   5.822  19.489  0.00  0.00    +0.000 OA
ATOM      4  N   UNL     1       8.654   7.962  18.963  0.00  0.00    +0.000 N 
ATOM      5  C   UNL     1       8.486   9.153  18.281  0.00  0.00    +0.000 C 
ATOM      6  O   UNL     1       7.758   9.289  17.303  0.00  0.00    +0.000 OA
ATOM      7  H   UNL     1       7.118   7.531  17.062  0.00  0.00    +0.000 HD
ATOM      8  H   UNL     1       9.238   7.925  19.784  0.00  0.00    +0.000 HD
ENDROOT
BRANCH   5   9
ATOM      9  C   UNL     1       9.241  10.334  18.774  0.00  0.00    +0.000 A 
ATOM     10  C   UNL     1       9.446  10.601  20.133  0.00  0.00    +0.000 A 
ATOM     11  C   UNL     1      10.225  11.700  20.514  0.00  0.00    +0.000 A 
ATOM     12  C   UNL     1      10.796  12.526  19.542  0.00  0.00    +0.000 A 
ATOM     13 CL   UNL     1      11.770  13.860  20.018  0.00  0.00    +0.000 Cl
ATOM     14  C   UNL     1      10.593  12.266  18.191  0.00  0.00    +0.000 A 
ATOM     15  C   UNL     1       9.819  11.173  17.807  0.00  0.00    +0.000 A 
ENDBRANCH   5   9
BRANCH   1  16
ATOM     16  C   UNL     1       6.321   5.587  17.398  0.00  0.00    +0.000 C 
BRANCH  16  17
ATOM     17  C   UNL     1       7.010   4.700  16.339  0.00  0.00    +0.000 C 
BRANCH  17  19
ATOM     18  C   UNL     1       4.754   3.796  16.155  0.00  0.00    +0.000 C 
ATOM     19  N   UNL     1       6.125   3.741  15.646  0.00  0.00    +0.000 NA
ATOM     20  C   UNL     1       6.120   4.017  14.204  0.00  0.00    +0.000 C 
ENDBRANCH  17  19
ENDBRANCH  16  17
ENDBRANCH   1  16
TORSDOF 4
ENDMDL
MODEL 7
REMARK VINA RESULT:      -6.1      1.409      2.321
REMARK  Name = 
REMARK  6 active torsions:
REMARK  status: ('A' for Active; 'I' for Inactive)
REMARK    1  A    between atoms: C_1  and  N_2
REMARK    2  A    between atoms: N_2  and  C_3
REMARK    3  A    between atoms: N_2  and  C_4
REMARK    4  A    between atoms: C_4  and  C_5
REMARK    5  A    between atoms: C_5  and  N_6
REMARK    6  A    between atoms: C_10  and  C_12
REMARK                            x       y       z     vdW  Elec       q    Type
REMARK                         _______ _______ _______ _____ _____    ______ ____
ROOT
ATOM      1  N   UNL     1       7.123   6.407  17.863  0.00  0.00    +0.000 N 
ATOM      2  C   UNL     1       8.000   6.511  18.893  0.00  0.00    +0.000 C 
ATOM      3  O   UNL     1       8.237   5.605  19.688  0.00  0.00    +0.000 OA
ATOM      4  N   UNL     1       8.616   7.729  19.054  0.00  0.00    +0.000 N 
ATOM      5  C   UNL     1       8.419   8.873  18.302  0.00  0.00    +0.000 C 
ATOM      6  O   UNL     1       7.712   8.927  17.302  0.00  0.00    +0.000 OA
ATOM      7  H   UNL     1       7.144   7.134  17.146  0.00  0.00    +0.000 HD
ATOM      8  H   UNL     1       9.180   7.760  19.889  0.00  0.00    +0.000 HD
ENDROOT
BRANCH   5   9
ATOM      9  C   UNL     1       9.117  10.108  18.745  0.00  0.00    +0.000 A 
ATOM     10  C   UNL     1       9.570  11.093  17.859  0.00  0.00    +0.000 A 
ATOM     11  C   UNL     1      10.159  12.260  18.362  0.00  0.00    +0.000 A 
ATOM     12  C   UNL     1      10.295  12.439  19.741  0.00  0.00    +0.000 A 
ATOM     13 CL   UNL     1      11.000  13.883  20.350  0.00  0.00    +0.000 Cl
ATOM     14  C   UNL     1       9.849  11.462  20.624  0.00  0.00    +0.000 A 
ATOM     15  C   UNL     1       9.260  10.300  20.128  0.00  0.00    +0.000 A 
ENDBRANCH   5   9
BRANCH   1  16
ATOM     16  C   UNL     1       6.413   5.182  17.571  0.00  0.00    +0.000 C 
BRANCH  16  17
ATOM     17  C   UNL     1       7.068   4.351  16.448  0.00  0.00    +0.000 C 
BRANCH  17  19
ATOM     18  C   UNL     1       4.751   4.205  15.702  0.00  0.00    +0.000 C 
ATOM     19  N   UNL     1       6.142   3.855  15.408  0.00  0.00    +0.000 NA
ATOM     20  C   UNL     1       6.516   4.408  14.100  0.00  0.00    +0.000 C 
ENDBRANCH  17  19
ENDBRANCH  16  17
ENDBRANCH   1  16
TORSDOF 4
ENDMDL
MODEL 8
REMARK VINA RESULT:      -6.1      6.053      8.164
REMARK  Name = 
REMARK  6 active torsions:
REMARK  status: ('A' for Active; 'I' for Inactive)
REMARK    1  A    between atoms: C_1  and  N_2
REMARK    2  A    between atoms: N_2  and  C_3
REMARK    3  A    between atoms: N_2  and  C_4
REMARK    4  A    between atoms: C_4  and  C_5
REMARK    5  A    between atoms: C_5  and  N_6
REMARK    6  A    between atoms: C_10  and  C_12
REMARK                            x       y       z     vdW  Elec       q    Type
REMARK                         _______ _______ _______ _____ _____    ______ ____
ROOT
ATOM      1  N   UNL     1       1.018   8.793  19.698  0.00  0.00    +0.000 N 
ATOM      2  C   UNL     1       1.599   9.140  18.522  0.00  0.00    +0.000 C 
ATOM      3  O   UNL     1       1.367  10.187  17.922  0.00  0.00    +0.000 OA
ATOM      4  N   UNL     1       2.466   8.225  17.974  0.00  0.00    +0.000 N 
ATOM      5  C   UNL     1       2.791   6.976  18.471  0.00  0.00    +0.000 C 
ATOM      6  O   UNL     1       2.403   6.542  19.549  0.00  0.00    +0.000 OA
ATOM      7  H   UNL     1       1.421   8.010  20.215  0.00  0.00    +0.000 HD
ATOM      8  H   UNL     1       2.786   8.508  17.061  0.00  0.00    +0.000 HD
ENDROOT
BRANCH   5   9
ATOM      9  C   UNL     1       3.667   6.116  17.633  0.00  0.00    +0.000 A 
ATOM     10  C   UNL     1       3.551   4.721  17.583  0.00  0.00    +0.000 A 
ATOM     11  C   UNL     1       4.372   3.988  16.717  0.00  0.00    +0.000 A 
ATOM     12  C   UNL     1       5.302   4.646  15.907  0.00  0.00    +0.000 A 
ATOM     13 CL   UNL     1       6.290   3.740  14.831  0.00  0.00    +0.000 Cl
ATOM     14  C   UNL     1       5.421   6.031  15.955  0.00  0.00    +0.000 A 
ATOM     15  C   UNL     1       4.605   6.764  16.814  0.00  0.00    +0.000 A 
ENDBRANCH   5   9
BRANCH   1  16
ATOM     16  C   UNL     1       0.095   9.664  20.392  0.00  0.00    +0.000 C 
BRANCH  16  17
ATOM     17  C   UNL     1       0.797  10.706  21.289  0.00  0.00    +0.000 C 
BRANCH  17  19
ATOM     18  C   UNL     1      -0.943  11.884  22.525  0.00  0.00    +0.000 C 
ATOM     19  N   UNL     1       0.166  10.932  22.606  0.00  0.00    +0.000 NA
ATOM     20  C   UNL     1      -0.324   9.660  23.151  0.00  0.00    +0.000 C 
ENDBRANCH  17  19
ENDBRANCH  16  17
ENDBRANCH   1  16
TORSDOF 4
ENDMDL
MODEL 9
REMARK VINA RESULT:      -6.0      5.796      7.278
REMARK  Name = 
REMARK  6 active torsions:
REMARK  status: ('A' for Active; 'I' for Inactive)
REMARK    1  A    between atoms: C_1  and  N_2
REMARK    2  A    between atoms: N_2  and  C_3
REMARK    3  A    between atoms: N_2  and  C_4
REMARK    4  A    between atoms: C_4  and  C_5
REMARK    5  A    between atoms: C_5  and  N_6
REMARK    6  A    between atoms: C_10  and  C_12
REMARK                            x       y       z     vdW  Elec       q    Type
REMARK                         _______ _______ _______ _____ _____    ______ ____
ROOT
ATOM      1  N   UNL     1       3.587   6.146  18.060  0.00  0.00    +0.000 N 
ATOM      2  C   UNL     1       3.299   5.861  19.355  0.00  0.00    +0.000 C 
ATOM      3  O   UNL     1       3.633   4.823  19.922  0.00  0.00    +0.000 OA
ATOM      4  N   UNL     1       2.553   6.792  20.037  0.00  0.00    +0.000 N 
ATOM      5  C   UNL     1       2.036   7.976  19.543  0.00  0.00    +0.000 C 
ATOM      6  O   UNL     1       2.258   8.408  18.418  0.00  0.00    +0.000 OA
ATOM      7  H   UNL     1       3.447   7.107  17.743  0.00  0.00    +0.000 HD
ATOM      8  H   UNL     1       2.301   6.473  20.959  0.00  0.00    +0.000 HD
ENDROOT
BRANCH   5   9
ATOM      9  C   UNL     1       1.156   8.765  20.445  0.00  0.00    +0.000 A 
ATOM     10  C   UNL     1       1.148   8.609  21.837  0.00  0.00    +0.000 A 
ATOM     11  C   UNL     1       0.337   9.438  22.622  0.00  0.00    +0.000 A 
ATOM     12  C   UNL     1      -0.459  10.415  22.020  0.00  0.00    +0.000 A 
ATOM     13 CL   UNL     1      -1.435  11.443  22.992  0.00  0.00    +0.000 Cl
ATOM     14  C   UNL     1      -0.456  10.571  20.637  0.00  0.00    +0.000 A 
ATOM     15  C   UNL     1       0.351   9.749  19.852  0.00  0.00    +0.000 A 
ENDBRANCH   5   9
BRANCH   1  16
ATOM     16  C   UNL     1       4.372   5.261  17.229  0.00  0.00    +0.000 C 
BRANCH  16  17
ATOM     17  C   UNL     1       5.152   5.999  16.120  0.00  0.00    +0.000 C 
BRANCH  17  19
ATOM     18  C   UNL     1       6.990   4.667  17.012  0.00  0.00    +0.000 C 
ATOM     19  N   UNL     1       6.557   5.574  15.947  0.00  0.00    +0.000 NA
ATOM     20  C   UNL     1       6.723   4.912  14.648  0.00  0.00    +0.000 C 
ENDBRANCH  17  19
ENDBRANCH  16  17
ENDBRANCH   1  16
TORSDOF 4
ENDMDL
