MODEL 1
REMARK VINA RESULT:      -8.2      0.000      0.000
REMARK  Name = 
REMARK  10 active torsions:
REMARK  status: ('A' for Active; 'I' for Inactive)
REMARK    1  A    between atoms: C_1  and  C_2
REMARK    2  A    between atoms: C_2  and  C_3
REMARK    3  A    between atoms: C_2  and  O_4
REMARK    4  A    between atoms: O_4  and  C_5
REMARK    5  A    between atoms: C_8  and  C_9
REMARK    6  A    between atoms: C_11  and  C_12
REMARK    7  A    between atoms: C_12  and  O_14
REMARK    8  A    between atoms: N_16  and  C_17
REMARK    9  A    between atoms: C_20  and  O_21
REMARK   10  A    between atoms: O_21  and  C_22
REMARK                            x       y       z     vdW  Elec       q    Type
REMARK                         _______ _______ _______ _____ _____    ______ ____
ROOT
ATOM      1  C   UNL     1       0.108  12.092  18.800  0.00  0.00    +0.000 A 
ATOM      2  C   UNL     1      -1.158  12.618  18.619  0.00  0.00    +0.000 A 
ATOM      3  C   UNL     1      -1.973  11.549  18.203  0.00  0.00    +0.000 A 
ATOM      4  N   UNL     1      -1.275  10.400  18.111  0.00  0.00    +0.000 NA
ATOM      5  N   UNL     1      -0.047  10.711  18.629  0.00  0.00    +0.000 N 
ENDROOT
BRANCH   1   9
ATOM      6  C   UNL     1       3.628  14.392  19.663  0.00  0.00    +0.000 A 
ATOM      7  C   UNL     1       3.311  14.023  18.358  0.00  0.00    +0.000 A 
ATOM      8  C   UNL     1       2.175  13.255  18.092  0.00  0.00    +0.000 A 
ATOM      9  C   UNL     1       1.345  12.813  19.128  0.00  0.00    +0.000 A 
ATOM     10  C   UNL     1       1.727  13.101  20.446  0.00  0.00    +0.000 A 
ATOM     11  C   UNL     1       2.834  13.917  20.707  0.00  0.00    +0.000 A 
BRANCH   6  12
ATOM     12  O   UNL     1       4.665  15.197  20.040  0.00  0.00    +0.000 OA
BRANCH  12  14
ATOM     13  C   UNL     1       5.725  17.212  19.323  0.00  0.00    +0.000 C 
ATOM     14  C   UNL     1       5.525  15.730  19.024  0.00  0.00    +0.000 C 
ATOM     15  C   UNL     1       6.863  14.997  19.048  0.00  0.00    +0.000 C 
ENDBRANCH  12  14
ENDBRANCH   6  12
ENDBRANCH   1   9
BRANCH   5  16
ATOM     16  C   UNL     1       0.895   9.677  18.915  0.00  0.00    +0.000 A 
ATOM     17  C   UNL     1       0.959   9.111  20.192  0.00  0.00    +0.000 A 
ATOM     18  C   UNL     1       1.716   7.946  20.390  0.00  0.00    +0.000 A 
ATOM     19  C   UNL     1       2.415   7.364  19.327  0.00  0.00    +0.000 A 
ATOM     20  C   UNL     1       2.475   8.024  18.102  0.00  0.00    +0.000 A 
ATOM     21  C   UNL     1       1.718   9.176  17.898  0.00  0.00    +0.000 A 
BRANCH  19  22
ATOM     22  O   UNL     1       3.055   6.170  19.578  0.00  0.00    +0.000 OA
BRANCH  22  23
ATOM     23  C   UNL     1       2.322   5.000  19.607  0.00  0.00    +0.000 A 
ATOM     24  C   UNL     1       2.035   4.424  18.367  0.00  0.00    +0.000 A 
ATOM     25  C   UNL     1       1.299   3.238  18.295  0.00  0.00    +0.000 A 
ATOM     26  C   UNL     1       0.848   2.623  19.462  0.00  0.00    +0.000 A 
ATOM     27  C   UNL     1       1.158   3.178  20.703  0.00  0.00    +0.000 A 
ATOM     28  C   UNL     1       1.915   4.350  20.778  0.00  0.00    +0.000 A 
ENDBRANCH  22  23
ENDBRANCH  19  22
ENDBRANCH   5  16
BRANCH   3  29
ATOM     29  C   UNL     1      -3.400  11.612  17.875  0.00  0.00    +0.000 C 
ATOM     30  O   UNL     1      -3.918  11.026  16.939  0.00  0.00    +0.000 OA
BRANCH  29  31
ATOM     31  O   UNL     1      -4.097  12.411  18.730  0.00  0.00    +0.000 OA
ATOM     32  H   UNL     1      -5.032  12.116  18.686  0.00  0.00    +0.000 HD
ENDBRANCH  29  31
ENDBRANCH   3  29
TORSDOF 8
ENDMDL
MODEL 2
REMARK VINA RESULT:      -8.1      0.466      1.054
REMARK  Name = 
REMARK  10 active torsions:
REMARK  status: ('A' for Active; 'I' for Inactive)
REMARK    1  A    between atoms: C_1  and  C_2
REMARK    2  A    between atoms: C_2  and  C_3
REMARK    3  A    between atoms: C_2  and  O_4
REMARK    4  A    between atoms: O_4  and  C_5
REMARK    5  A    between atoms: C_8  and  C_9
REMARK    6  A    between atoms: C_11  and  C_12
REMARK    7  A    between atoms: C_12  and  O_14
REMARK    8  A    between atoms: N_16  and  C_17
REMARK    9  A    between atoms: C_20  and  O_21
REMARK   10  A    between atoms: O_21  and  C_22
REMARK                            x       y       z     vdW  Elec       q    Type
REMARK                         _______ _______ _______ _____ _____    ______ ____
ROOT
ATOM      1  C   UNL     1      -0.162  12.115  18.757  0.00  0.00    +0.000 A 
ATOM      2  C   UNL     1      -1.444  12.589  18.546  0.00  0.00    +0.000 A 
ATOM      3  C   UNL     1      -2.200  11.491  18.096  0.00  0.00    +0.000 A 
ATOM      4  N   UNL     1      -1.451  10.374  18.012  0.00  0.00    +0.000 NA
ATOM      5  N   UNL     1      -0.252  10.732  18.567  0.00  0.00    +0.000 N 
ENDROOT
BRANCH   1   9
ATOM      6  C   UNL     1       3.410  14.172  19.955  0.00  0.00    +0.000 A 
ATOM      7  C   UNL     1       2.400  13.890  20.872  0.00  0.00    +0.000 A 
ATOM      8  C   UNL     1       1.232  13.240  20.466  0.00  0.00    +0.000 A 
ATOM      9  C   UNL     1       1.034  12.885  19.127  0.00  0.00    +0.000 A 
ATOM     10  C   UNL     1       2.009  13.264  18.194  0.00  0.00    +0.000 A 
ATOM     11  C   UNL     1       3.202  13.865  18.611  0.00  0.00    +0.000 A 
BRANCH   6  12
ATOM     12  O   UNL     1       4.621  14.735  20.243  0.00  0.00    +0.000 OA
BRANCH  12  14
ATOM     13  C   UNL     1       4.856  17.064  19.778  0.00  0.00    +0.000 C 
ATOM     14  C   UNL     1       5.191  15.654  19.302  0.00  0.00    +0.000 C 
ATOM     15  C   UNL     1       6.704  15.457  19.244  0.00  0.00    +0.000 C 
ENDBRANCH  12  14
ENDBRANCH   6  12
ENDBRANCH   1   9
BRANCH   5  16
ATOM     16  C   UNL     1       0.725   9.735  18.868  0.00  0.00    +0.000 A 
ATOM     17  C   UNL     1       0.867   9.255  20.174  0.00  0.00    +0.000 A 
ATOM     18  C   UNL     1       1.658   8.119  20.406  0.00  0.00    +0.000 A 
ATOM     19  C   UNL     1       2.314   7.482  19.347  0.00  0.00    +0.000 A 
ATOM     20  C   UNL     1       2.296   8.062  18.081  0.00  0.00    +0.000 A 
ATOM     21  C   UNL     1       1.506   9.185  17.843  0.00  0.00    +0.000 A 
BRANCH  19  22
ATOM     22  O   UNL     1       2.991   6.318  19.640  0.00  0.00    +0.000 OA
BRANCH  22  23
ATOM     23  C   UNL     1       2.322   5.112  19.585  0.00  0.00    +0.000 A 
ATOM     24  C   UNL     1       2.301   4.476  18.342  0.00  0.00    +0.000 A 
ATOM     25  C   UNL     1       1.649   3.250  18.188  0.00  0.00    +0.000 A 
ATOM     26  C   UNL     1       1.016   2.654  19.278  0.00  0.00    +0.000 A 
ATOM     27  C   UNL     1       1.061   3.269  20.529  0.00  0.00    +0.000 A 
ATOM     28  C   UNL     1       1.734   4.482  20.689  0.00  0.00    +0.000 A 
ENDBRANCH  22  23
ENDBRANCH  19  22
ENDBRANCH   5  16
BRANCH   3  29
ATOM     29  C   UNL     1      -3.619  11.497  17.728  0.00  0.00    +0.000 C 
ATOM     30  O   UNL     1      -4.520  11.104  18.451  0.00  0.00    +0.000 OA
BRANCH  29  31
ATOM     31  O   UNL     1      -3.831  11.986  16.475  0.00  0.00    +0.000 OA
ATOM     32  H   UNL     1      -3.202  12.732  16.358  0.00  0.00    +0.000 HD
ENDBRANCH  29  31
ENDBRANCH   3  29
TORSDOF 8
ENDMDL
MODEL 3
REMARK VINA RESULT:      -8.1      0.487      1.064
REMARK  Name = 
REMARK  10 active torsions:
REMARK  status: ('A' for Active; 'I' for Inactive)
REMARK    1  A    between atoms: C_1  and  C_2
REMARK    2  A    between atoms: C_2  and  C_3
REMARK    3  A    between atoms: C_2  and  O_4
REMARK    4  A    between atoms: O_4  and  C_5
REMARK    5  A    between atoms: C_8  and  C_9
REMARK    6  A    between atoms: C_11  and  C_12
REMARK    7  A    between atoms: C_12  and  O_14
REMARK    8  A    between atoms: N_16  and  C_17
REMARK    9  A    between atoms: C_20  and  O_21
REMARK   10  A    between atoms: O_21  and  C_22
REMARK                            x       y       z     vdW  Elec       q    Type
REMARK                         _______ _______ _______ _____ _____    ______ ____
ROOT
ATOM      1  C   UNL     1      -0.024  12.081  18.846  0.00  0.00    +0.000 A 
ATOM      2  C   UNL     1      -1.300  12.594  18.701  0.00  0.00    +0.000 A 
ATOM      3  C   UNL     1      -2.118  11.514  18.319  0.00  0.00    +0.000 A 
ATOM      4  N   UNL     1      -1.411  10.371  18.215  0.00  0.00    +0.000 NA
ATOM      5  N   UNL     1      -0.171  10.698  18.690  0.00  0.00    +0.000 N 
ENDROOT
BRANCH   1   9
ATOM      6  C   UNL     1       3.495  14.425  19.589  0.00  0.00    +0.000 A 
ATOM      7  C   UNL     1       3.112  14.092  18.292  0.00  0.00    +0.000 A 
ATOM      8  C   UNL     1       1.977  13.310  18.063  0.00  0.00    +0.000 A 
ATOM      9  C   UNL     1       1.216  12.816  19.128  0.00  0.00    +0.000 A 
ATOM     10  C   UNL     1       1.667  13.068  20.432  0.00  0.00    +0.000 A 
ATOM     11  C   UNL     1       2.771  13.898  20.659  0.00  0.00    +0.000 A 
BRANCH   6  12
ATOM     12  O   UNL     1       4.536  15.238  19.935  0.00  0.00    +0.000 OA
BRANCH  12  14
ATOM     13  C   UNL     1       3.893  17.485  20.420  0.00  0.00    +0.000 C 
ATOM     14  C   UNL     1       4.572  16.570  19.407  0.00  0.00    +0.000 C 
ATOM     15  C   UNL     1       6.021  16.998  19.190  0.00  0.00    +0.000 C 
ENDBRANCH  12  14
ENDBRANCH   6  12
ENDBRANCH   1   9
BRANCH   5  16
ATOM     16  C   UNL     1       0.789   9.675  18.955  0.00  0.00    +0.000 A 
ATOM     17  C   UNL     1       0.934   9.156  20.246  0.00  0.00    +0.000 A 
ATOM     18  C   UNL     1       1.704   7.999  20.439  0.00  0.00    +0.000 A 
ATOM     19  C   UNL     1       2.338   7.379  19.357  0.00  0.00    +0.000 A 
ATOM     20  C   UNL     1       2.320   7.994  18.107  0.00  0.00    +0.000 A 
ATOM     21  C   UNL     1       1.550   9.138  17.908  0.00  0.00    +0.000 A 
BRANCH  19  22
ATOM     22  O   UNL     1       2.996   6.195  19.610  0.00  0.00    +0.000 OA
BRANCH  22  23
ATOM     23  C   UNL     1       2.313   5.001  19.491  0.00  0.00    +0.000 A 
ATOM     24  C   UNL     1       1.841   4.441  20.681  0.00  0.00    +0.000 A 
ATOM     25  C   UNL     1       1.137   3.234  20.661  0.00  0.00    +0.000 A 
ATOM     26  C   UNL     1       0.900   2.583  19.451  0.00  0.00    +0.000 A 
ATOM     27  C   UNL     1       1.342   3.153  18.257  0.00  0.00    +0.000 A 
ATOM     28  C   UNL     1       2.024   4.372  18.274  0.00  0.00    +0.000 A 
ENDBRANCH  22  23
ENDBRANCH  19  22
ENDBRANCH   5  16
BRANCH   3  29
ATOM     29  C   UNL     1      -3.555  11.561  18.036  0.00  0.00    +0.000 C 
ATOM     30  O   UNL     1      -4.125  10.829  17.243  0.00  0.00    +0.000 OA
BRANCH  29  31
ATOM     31  O   UNL     1      -4.196  12.525  18.752  0.00  0.00    +0.000 OA
ATOM     32  H   UNL     1      -3.881  12.439  19.678  0.00  0.00    +0.000 HD
ENDBRANCH  29  31
ENDBRANCH   3  29
TORSDOF 8
ENDMDL
MODEL 4
REMARK VINA RESULT:      -8.0      4.499      7.532
REMARK  Name = 
REMARK  10 active torsions:
REMARK  status: ('A' for Active; 'I' for Inactive)
REMARK    1  A    between atoms: C_1  and  C_2
REMARK    2  A    between atoms: C_2  and  C_3
REMARK    3  A    between atoms: C_2  and  O_4
REMARK    4  A    between atoms: O_4  and  C_5
REMARK    5  A    between atoms: C_8  and  C_9
REMARK    6  A    between atoms: C_11  and  C_12
REMARK    7  A    between atoms: C_12  and  O_14
REMARK    8  A    between atoms: N_16  and  C_17
REMARK    9  A    between atoms: C_20  and  O_21
REMARK   10  A    between atoms: O_21  and  C_22
REMARK                            x       y       z     vdW  Elec       q    Type
REMARK                         _______ _______ _______ _____ _____    ______ ____
ROOT
ATOM      1  C   UNL     1       2.472   5.957  19.940  0.00  0.00    +0.000 A 
ATOM      2  C   UNL     1       1.924   5.202  20.960  0.00  0.00    +0.000 A 
ATOM      3  C   UNL     1       2.480   3.914  20.840  0.00  0.00    +0.000 A 
ATOM      4  N   UNL     1       3.331   3.838  19.797  0.00  0.00    +0.000 NA
ATOM      5  N   UNL     1       3.436   5.128  19.355  0.00  0.00    +0.000 N 
ENDROOT
BRANCH   1   9
ATOM      6  C   UNL     1       1.332   9.903  18.693  0.00  0.00    +0.000 A 
ATOM      7  C   UNL     1       2.011   9.044  17.832  0.00  0.00    +0.000 A 
ATOM      8  C   UNL     1       2.397   7.770  18.256  0.00  0.00    +0.000 A 
ATOM      9  C   UNL     1       2.139   7.337  19.561  0.00  0.00    +0.000 A 
ATOM     10  C   UNL     1       1.549   8.245  20.452  0.00  0.00    +0.000 A 
ATOM     11  C   UNL     1       1.113   9.500  20.010  0.00  0.00    +0.000 A 
BRANCH   6  12
ATOM     12  O   UNL     1       0.842  11.137  18.373  0.00  0.00    +0.000 OA
BRANCH  12  14
ATOM     13  C   UNL     1      -0.074  13.211  19.120  0.00  0.00    +0.000 C 
ATOM     14  C   UNL     1      -0.200  11.693  19.186  0.00  0.00    +0.000 C 
ATOM     15  C   UNL     1      -1.559  11.248  18.653  0.00  0.00    +0.000 C 
ENDBRANCH  12  14
ENDBRANCH   6  12
ENDBRANCH   1   9
BRANCH   5  16
ATOM     16  C   UNL     1       4.439   5.481  18.402  0.00  0.00    +0.000 A 
ATOM     17  C   UNL     1       5.795   5.401  18.737  0.00  0.00    +0.000 A 
ATOM     18  C   UNL     1       6.761   5.520  17.727  0.00  0.00    +0.000 A 
ATOM     19  C   UNL     1       6.377   5.736  16.399  0.00  0.00    +0.000 A 
ATOM     20  C   UNL     1       5.038   5.975  16.102  0.00  0.00    +0.000 A 
ATOM     21  C   UNL     1       4.073   5.849  17.100  0.00  0.00    +0.000 A 
BRANCH  19  22
ATOM     22  O   UNL     1       7.377   5.745  15.451  0.00  0.00    +0.000 OA
BRANCH  22  23
ATOM     23  C   UNL     1       7.188   5.076  14.258  0.00  0.00    +0.000 A 
ATOM     24  C   UNL     1       6.292   4.005  14.291  0.00  0.00    +0.000 A 
ATOM     25  C   UNL     1       6.034   3.268  13.132  0.00  0.00    +0.000 A 
ATOM     26  C   UNL     1       6.670   3.600  11.936  0.00  0.00    +0.000 A 
ATOM     27  C   UNL     1       7.541   4.688  11.891  0.00  0.00    +0.000 A 
ATOM     28  C   UNL     1       7.781   5.441  13.043  0.00  0.00    +0.000 A 
ENDBRANCH  22  23
ENDBRANCH  19  22
ENDBRANCH   5  16
BRANCH   3  29
ATOM     29  C   UNL     1       2.198   2.755  21.691  0.00  0.00    +0.000 C 
ATOM     30  O   UNL     1       1.105   2.503  22.171  0.00  0.00    +0.000 OA
BRANCH  29  31
ATOM     31  O   UNL     1       3.298   1.982  21.900  0.00  0.00    +0.000 OA
ATOM     32  H   UNL     1       3.971   2.271  21.246  0.00  0.00    +0.000 HD
ENDBRANCH  29  31
ENDBRANCH   3  29
TORSDOF 8
ENDMDL
MODEL 5
REMARK VINA RESULT:      -7.9      1.008      1.714
REMARK  Name = 
REMARK  10 active torsions:
REMARK  status: ('A' for Active; 'I' for Inactive)
REMARK    1  A    between atoms: C_1  and  C_2
REMARK    2  A    between atoms: C_2  and  C_3
REMARK    3  A    between atoms: C_2  and  O_4
REMARK    4  A    between atoms: O_4  and  C_5
REMARK    5  A    between atoms: C_8  and  C_9
REMARK    6  A    between atoms: C_11  and  C_12
REMARK    7  A    between atoms: C_12  and  O_14
REMARK    8  A    between atoms: N_16  and  C_17
REMARK    9  A    between atoms: C_20  and  O_21
REMARK   10  A    between atoms: O_21  and  C_22
REMARK                            x       y       z     vdW  Elec       q    Type
REMARK                         _______ _______ _______ _____ _____    ______ ____
ROOT
ATOM      1  C   UNL     1      -0.112  12.135  18.697  0.00  0.00    +0.000 A 
ATOM      2  C   UNL     1      -1.378  12.614  18.415  0.00  0.00    +0.000 A 
ATOM      3  C   UNL     1      -2.108  11.522  17.908  0.00  0.00    +0.000 A 
ATOM      4  N   UNL     1      -1.357  10.405  17.858  0.00  0.00    +0.000 NA
ATOM      5  N   UNL     1      -0.193  10.753  18.487  0.00  0.00    +0.000 N 
ENDROOT
BRANCH   1   9
ATOM      6  C   UNL     1       3.388  14.169  20.125  0.00  0.00    +0.000 A 
ATOM      7  C   UNL     1       2.338  13.854  20.984  0.00  0.00    +0.000 A 
ATOM      8  C   UNL     1       1.194  13.212  20.504  0.00  0.00    +0.000 A 
ATOM      9  C   UNL     1       1.061  12.897  19.147  0.00  0.00    +0.000 A 
ATOM     10  C   UNL     1       2.076  13.310  18.272  0.00  0.00    +0.000 A 
ATOM     11  C   UNL     1       3.245  13.903  18.763  0.00  0.00    +0.000 A 
BRANCH   6  12
ATOM     12  O   UNL     1       4.581  14.728  20.486  0.00  0.00    +0.000 OA
BRANCH  12  14
ATOM     13  C   UNL     1       5.796  13.962  22.392  0.00  0.00    +0.000 C 
ATOM     14  C   UNL     1       4.816  15.007  21.872  0.00  0.00    +0.000 C 
ATOM     15  C   UNL     1       5.403  16.409  22.021  0.00  0.00    +0.000 C 
ENDBRANCH  12  14
ENDBRANCH   6  12
ENDBRANCH   1   9
BRANCH   5  16
ATOM     16  C   UNL     1       0.762   9.752  18.836  0.00  0.00    +0.000 A 
ATOM     17  C   UNL     1       0.821   9.252  20.141  0.00  0.00    +0.000 A 
ATOM     18  C   UNL     1       1.595   8.113  20.407  0.00  0.00    +0.000 A 
ATOM     19  C   UNL     1       2.317   7.489  19.383  0.00  0.00    +0.000 A 
ATOM     20  C   UNL     1       2.381   8.088  18.127  0.00  0.00    +0.000 A 
ATOM     21  C   UNL     1       1.607   9.215  17.855  0.00  0.00    +0.000 A 
BRANCH  19  22
ATOM     22  O   UNL     1       2.974   6.321  19.702  0.00  0.00    +0.000 OA
BRANCH  22  23
ATOM     23  C   UNL     1       2.316   5.115  19.567  0.00  0.00    +0.000 A 
ATOM     24  C   UNL     1       1.845   4.537  20.748  0.00  0.00    +0.000 A 
ATOM     25  C   UNL     1       1.165   3.317  20.712  0.00  0.00    +0.000 A 
ATOM     26  C   UNL     1       0.953   2.670  19.496  0.00  0.00    +0.000 A 
ATOM     27  C   UNL     1       1.395   3.257  18.310  0.00  0.00    +0.000 A 
ATOM     28  C   UNL     1       2.053   4.489  18.342  0.00  0.00    +0.000 A 
ENDBRANCH  22  23
ENDBRANCH  19  22
ENDBRANCH   5  16
BRANCH   3  29
ATOM     29  C   UNL     1      -3.502  11.535  17.456  0.00  0.00    +0.000 C 
ATOM     30  O   UNL     1      -3.907  10.969  16.454  0.00  0.00    +0.000 OA
BRANCH  29  31
ATOM     31  O   UNL     1      -4.310  12.262  18.277  0.00  0.00    +0.000 OA
ATOM     32  H   UNL     1      -3.838  12.337  19.135  0.00  0.00    +0.000 HD
ENDBRANCH  29  31
ENDBRANCH   3  29
TORSDOF 8
ENDMDL
MODEL 6
REMARK VINA RESULT:      -7.9      4.565      7.450
REMARK  Name = 
REMARK  10 active torsions:
REMARK  status: ('A' for Active; 'I' for Inactive)
REMARK    1  A    between atoms: C_1  and  C_2
REMARK    2  A    between atoms: C_2  and  C_3
REMARK    3  A    between atoms: C_2  and  O_4
REMARK    4  A    between atoms: O_4  and  C_5
REMARK    5  A    between atoms: C_8  and  C_9
REMARK    6  A    between atoms: C_11  and  C_12
REMARK    7  A    between atoms: C_12  and  O_14
REMARK    8  A    between atoms: N_16  and  C_17
REMARK    9  A    between atoms: C_20  and  O_21
REMARK   10  A    between atoms: O_21  and  C_22
REMARK                            x       y       z     vdW  Elec       q    Type
REMARK                         _______ _______ _______ _____ _____    ______ ____
ROOT
ATOM      1  C   UNL     1       2.489   5.836  19.882  0.00  0.00    +0.000 A 
ATOM      2  C   UNL     1       1.944   5.099  20.917  0.00  0.00    +0.000 A 
ATOM      3  C   UNL     1       2.550   3.829  20.857  0.00  0.00    +0.000 A 
ATOM      4  N   UNL     1       3.428   3.747  19.839  0.00  0.00    +0.000 NA
ATOM      5  N   UNL     1       3.498   5.024  19.351  0.00  0.00    +0.000 N 
ENDROOT
BRANCH   1   9
ATOM      6  C   UNL     1       1.576   9.872  18.740  0.00  0.00    +0.000 A 
ATOM      7  C   UNL     1       1.290   9.404  20.020  0.00  0.00    +0.000 A 
ATOM      8  C   UNL     1       1.571   8.082  20.374  0.00  0.00    +0.000 A 
ATOM      9  C   UNL     1       2.116   7.189  19.445  0.00  0.00    +0.000 A 
ATOM     10  C   UNL     1       2.304   7.638  18.130  0.00  0.00    +0.000 A 
ATOM     11  C   UNL     1       2.074   8.977  17.793  0.00  0.00    +0.000 A 
BRANCH   6  12
ATOM     12  O   UNL     1       1.415  11.155  18.299  0.00  0.00    +0.000 OA
BRANCH  12  14
ATOM     13  C   UNL     1       2.536  13.236  18.627  0.00  0.00    +0.000 C 
ATOM     14  C   UNL     1       1.570  12.227  19.238  0.00  0.00    +0.000 C 
ATOM     15  C   UNL     1       0.216  12.879  19.502  0.00  0.00    +0.000 C 
ENDBRANCH  12  14
ENDBRANCH   6  12
ENDBRANCH   1   9
BRANCH   5  16
ATOM     16  C   UNL     1       4.510   5.379  18.409  0.00  0.00    +0.000 A 
ATOM     17  C   UNL     1       5.862   5.291  18.756  0.00  0.00    +0.000 A 
ATOM     18  C   UNL     1       6.838   5.413  17.755  0.00  0.00    +0.000 A 
ATOM     19  C   UNL     1       6.467   5.639  16.425  0.00  0.00    +0.000 A 
ATOM     20  C   UNL     1       5.131   5.886  16.118  0.00  0.00    +0.000 A 
ATOM     21  C   UNL     1       4.157   5.757  17.107  0.00  0.00    +0.000 A 
BRANCH  19  22
ATOM     22  O   UNL     1       7.475   5.651  15.486  0.00  0.00    +0.000 OA
BRANCH  22  23
ATOM     23  C   UNL     1       7.267   5.052  14.260  0.00  0.00    +0.000 A 
ATOM     24  C   UNL     1       6.323   4.024  14.231  0.00  0.00    +0.000 A 
ATOM     25  C   UNL     1       6.043   3.358  13.035  0.00  0.00    +0.000 A 
ATOM     26  C   UNL     1       6.705   3.719  11.862  0.00  0.00    +0.000 A 
ATOM     27  C   UNL     1       7.627   4.765  11.879  0.00  0.00    +0.000 A 
ATOM     28  C   UNL     1       7.889   5.448  13.070  0.00  0.00    +0.000 A 
ENDBRANCH  22  23
ENDBRANCH  19  22
ENDBRANCH   5  16
BRANCH   3  29
ATOM     29  C   UNL     1       2.289   2.692  21.744  0.00  0.00    +0.000 C 
ATOM     30  O   UNL     1       3.133   1.884  22.094  0.00  0.00    +0.000 OA
BRANCH  29  31
ATOM     31  O   UNL     1       0.987   2.625  22.137  0.00  0.00    +0.000 OA
ATOM     32  H   UNL     1       0.980   2.154  22.998  0.00  0.00    +0.000 HD
ENDBRANCH  29  31
ENDBRANCH   3  29
TORSDOF 8
ENDMDL
MODEL 7
REMARK VINA RESULT:      -7.9      0.736      1.176
REMARK  Name = 
REMARK  10 active torsions:
REMARK  status: ('A' for Active; 'I' for Inactive)
REMARK    1  A    between atoms: C_1  and  C_2
REMARK    2  A    between atoms: C_2  and  C_3
REMARK    3  A    between atoms: C_2  and  O_4
REMARK    4  A    between atoms: O_4  and  C_5
REMARK    5  A    between atoms: C_8  and  C_9
REMARK    6  A    between atoms: C_11  and  C_12
REMARK    7  A    between atoms: C_12  and  O_14
REMARK    8  A    between atoms: N_16  and  C_17
REMARK    9  A    between atoms: C_20  and  O_21
REMARK   10  A    between atoms: O_21  and  C_22
REMARK                            x       y       z     vdW  Elec       q    Type
REMARK                         _______ _______ _______ _____ _____    ______ ____
ROOT
ATOM      1  C   UNL     1      -0.064  12.110  18.753  0.00  0.00    +0.000 A 
ATOM      2  C   UNL     1      -1.328  12.596  18.475  0.00  0.00    +0.000 A 
ATOM      3  C   UNL     1      -2.056  11.517  17.941  0.00  0.00    +0.000 A 
ATOM      4  N   UNL     1      -1.306  10.400  17.869  0.00  0.00    +0.000 NA
ATOM      5  N   UNL     1      -0.145  10.733  18.512  0.00  0.00    +0.000 N 
ENDROOT
BRANCH   1   9
ATOM      6  C   UNL     1       3.285  14.489  20.000  0.00  0.00    +0.000 A 
ATOM      7  C   UNL     1       3.203  13.984  18.705  0.00  0.00    +0.000 A 
ATOM      8  C   UNL     1       2.119  13.192  18.316  0.00  0.00    +0.000 A 
ATOM      9  C   UNL     1       1.108  12.861  19.224  0.00  0.00    +0.000 A 
ATOM     10  C   UNL     1       1.250  13.286  20.553  0.00  0.00    +0.000 A 
ATOM     11  C   UNL     1       2.307  14.125  20.926  0.00  0.00    +0.000 A 
BRANCH   6  12
ATOM     12  O   UNL     1       4.252  15.329  20.475  0.00  0.00    +0.000 OA
BRANCH  12  14
ATOM     13  C   UNL     1       6.487  15.516  19.658  0.00  0.00    +0.000 C 
ATOM     14  C   UNL     1       5.577  14.814  20.660  0.00  0.00    +0.000 C 
ATOM     15  C   UNL     1       6.041  15.095  22.087  0.00  0.00    +0.000 C 
ENDBRANCH  12  14
ENDBRANCH   6  12
ENDBRANCH   1   9
BRANCH   5  16
ATOM     16  C   UNL     1       0.808   9.723  18.844  0.00  0.00    +0.000 A 
ATOM     17  C   UNL     1       0.859   9.195  20.137  0.00  0.00    +0.000 A 
ATOM     18  C   UNL     1       1.631   8.049  20.381  0.00  0.00    +0.000 A 
ATOM     19  C   UNL     1       2.358   7.448  19.348  0.00  0.00    +0.000 A 
ATOM     20  C   UNL     1       2.429   8.075  18.106  0.00  0.00    +0.000 A 
ATOM     21  C   UNL     1       1.658   9.208  17.855  0.00  0.00    +0.000 A 
BRANCH  19  22
ATOM     22  O   UNL     1       3.013   6.273  19.643  0.00  0.00    +0.000 OA
BRANCH  22  23
ATOM     23  C   UNL     1       2.348   5.071  19.500  0.00  0.00    +0.000 A 
ATOM     24  C   UNL     1       1.895   4.475  20.679  0.00  0.00    +0.000 A 
ATOM     25  C   UNL     1       1.210   3.258  20.634  0.00  0.00    +0.000 A 
ATOM     26  C   UNL     1       0.973   2.633  19.410  0.00  0.00    +0.000 A 
ATOM     27  C   UNL     1       1.396   3.240  18.228  0.00  0.00    +0.000 A 
ATOM     28  C   UNL     1       2.059   4.468  18.269  0.00  0.00    +0.000 A 
ENDBRANCH  22  23
ENDBRANCH  19  22
ENDBRANCH   5  16
BRANCH   3  29
ATOM     29  C   UNL     1      -3.448  11.541  17.483  0.00  0.00    +0.000 C 
ATOM     30  O   UNL     1      -3.866  10.924  16.517  0.00  0.00    +0.000 OA
BRANCH  29  31
ATOM     31  O   UNL     1      -4.237  12.341  18.252  0.00  0.00    +0.000 OA
ATOM     32  H   UNL     1      -4.892  11.752  18.686  0.00  0.00    +0.000 HD
ENDBRANCH  29  31
ENDBRANCH   3  29
TORSDOF 8
ENDMDL
MODEL 8
REMARK VINA RESULT:      -7.8      4.587      7.463
REMARK  Name = 
REMARK  10 active torsions:
REMARK  status: ('A' for Active; 'I' for Inactive)
REMARK    1  A    between atoms: C_1  and  C_2
REMARK    2  A    between atoms: C_2  and  C_3
REMARK    3  A    between atoms: C_2  and  O_4
REMARK    4  A    between atoms: O_4  and  C_5
REMARK    5  A    between atoms: C_8  and  C_9
REMARK    6  A    between atoms: C_11  and  C_12
REMARK    7  A    between atoms: C_12  and  O_14
REMARK    8  A    between atoms: N_16  and  C_17
REMARK    9  A    between atoms: C_20  and  O_21
REMARK   10  A    between atoms: O_21  and  C_22
REMARK                            x       y       z     vdW  Elec       q    Type
REMARK                         _______ _______ _______ _____ _____    ______ ____
ROOT
ATOM      1  C   UNL     1       2.385   5.848  19.887  0.00  0.00    +0.000 A 
ATOM      2  C   UNL     1       1.859   5.155  20.962  0.00  0.00    +0.000 A 
ATOM      3  C   UNL     1       2.418   3.865  20.910  0.00  0.00    +0.000 A 
ATOM      4  N   UNL     1       3.250   3.727  19.859  0.00  0.00    +0.000 NA
ATOM      5  N   UNL     1       3.342   4.988  19.336  0.00  0.00    +0.000 N 
ENDROOT
BRANCH   1   9
ATOM      6  C   UNL     1       1.544   9.887  18.703  0.00  0.00    +0.000 A 
ATOM      7  C   UNL     1       1.168   9.412  19.956  0.00  0.00    +0.000 A 
ATOM      8  C   UNL     1       1.427   8.089  20.323  0.00  0.00    +0.000 A 
ATOM      9  C   UNL     1       2.041   7.202  19.431  0.00  0.00    +0.000 A 
ATOM     10  C   UNL     1       2.322   7.659  18.136  0.00  0.00    +0.000 A 
ATOM     11  C   UNL     1       2.113   8.999  17.790  0.00  0.00    +0.000 A 
BRANCH   6  12
ATOM     12  O   UNL     1       1.411  11.172  18.259  0.00  0.00    +0.000 OA
BRANCH  12  14
ATOM     13  C   UNL     1       2.682  13.166  18.588  0.00  0.00    +0.000 C 
ATOM     14  C   UNL     1       1.625  12.244  19.186  0.00  0.00    +0.000 C 
ATOM     15  C   UNL     1       0.318  13.003  19.402  0.00  0.00    +0.000 C 
ENDBRANCH  12  14
ENDBRANCH   6  12
ENDBRANCH   1   9
BRANCH   5  16
ATOM     16  C   UNL     1       4.326   5.284  18.345  0.00  0.00    +0.000 A 
ATOM     17  C   UNL     1       5.625   5.642  18.720  0.00  0.00    +0.000 A 
ATOM     18  C   UNL     1       6.632   5.697  17.745  0.00  0.00    +0.000 A 
ATOM     19  C   UNL     1       6.340   5.415  16.406  0.00  0.00    +0.000 A 
ATOM     20  C   UNL     1       5.016   5.219  16.019  0.00  0.00    +0.000 A 
ATOM     21  C   UNL     1       4.013   5.155  16.985  0.00  0.00    +0.000 A 
BRANCH  19  22
ATOM     22  O   UNL     1       7.399   5.395  15.525  0.00  0.00    +0.000 OA
BRANCH  22  23
ATOM     23  C   UNL     1       7.206   4.919  14.243  0.00  0.00    +0.000 A 
ATOM     24  C   UNL     1       7.899   5.585  13.230  0.00  0.00    +0.000 A 
ATOM     25  C   UNL     1       7.768   5.175  11.900  0.00  0.00    +0.000 A 
ATOM     26  C   UNL     1       6.944   4.096  11.579  0.00  0.00    +0.000 A 
ATOM     27  C   UNL     1       6.275   3.409  12.591  0.00  0.00    +0.000 A 
ATOM     28  C   UNL     1       6.424   3.802  13.923  0.00  0.00    +0.000 A 
ENDBRANCH  22  23
ENDBRANCH  19  22
ENDBRANCH   5  16
BRANCH   3  29
ATOM     29  C   UNL     1       2.156   2.759  21.836  0.00  0.00    +0.000 C 
ATOM     30  O   UNL     1       1.075   2.541  22.359  0.00  0.00    +0.000 OA
BRANCH  29  31
ATOM     31  O   UNL     1       3.259   1.995  22.061  0.00  0.00    +0.000 OA
ATOM     32  H   UNL     1       3.362   1.934  23.036  0.00  0.00    +0.000 HD
ENDBRANCH  29  31
ENDBRANCH   3  29
TORSDOF 8
ENDMDL
MODEL 9
REMARK VINA RESULT:      -7.8      0.798      1.167
REMARK  Name = 
REMARK  10 active torsions:
REMARK  status: ('A' for Active; 'I' for Inactive)
REMARK    1  A    between atoms: C_1  and  C_2
REMARK    2  A    between atoms: C_2  and  C_3
REMARK    3  A    between atoms: C_2  and  O_4
REMARK    4  A    between atoms: O_4  and  C_5
REMARK    5  A    between atoms: C_8  and  C_9
REMARK    6  A    between atoms: C_11  and  C_12
REMARK    7  A    between atoms: C_12  and  O_14
REMARK    8  A    between atoms: N_16  and  C_17
REMARK    9  A    between atoms: C_20  and  O_21
REMARK   10  A    between atoms: O_21  and  C_22
REMARK                            x       y       z     vdW  Elec       q    Type
REMARK                         _______ _______ _______ _____ _____    ______ ____
ROOT
ATOM      1  C   UNL     1      -0.060  12.102  19.037  0.00  0.00    +0.000 A 
ATOM      2  C   UNL     1      -1.343  12.613  18.969  0.00  0.00    +0.000 A 
ATOM      3  C   UNL     1      -2.176  11.537  18.608  0.00  0.00    +0.000 A 
ATOM      4  N   UNL     1      -1.473  10.400  18.443  0.00  0.00    +0.000 NA
ATOM      5  N   UNL     1      -0.211  10.722  18.860  0.00  0.00    +0.000 N 
ENDROOT
BRANCH   1   9
ATOM      6  C   UNL     1       3.488  14.442  19.638  0.00  0.00    +0.000 A 
ATOM      7  C   UNL     1       3.059  14.101  18.358  0.00  0.00    +0.000 A 
ATOM      8  C   UNL     1       1.915  13.320  18.175  0.00  0.00    +0.000 A 
ATOM      9  C   UNL     1       1.191  12.836  19.270  0.00  0.00    +0.000 A 
ATOM     10  C   UNL     1       1.688  13.097  20.555  0.00  0.00    +0.000 A 
ATOM     11  C   UNL     1       2.801  13.925  20.737  0.00  0.00    +0.000 A 
BRANCH   6  12
ATOM     12  O   UNL     1       4.543  15.255  19.941  0.00  0.00    +0.000 OA
BRANCH  12  14
ATOM     13  C   UNL     1       6.447  14.696  21.267  0.00  0.00    +0.000 C 
ATOM     14  C   UNL     1       5.034  15.268  21.288  0.00  0.00    +0.000 C 
ATOM     15  C   UNL     1       5.048  16.701  21.815  0.00  0.00    +0.000 C 
ENDBRANCH  12  14
ENDBRANCH   6  12
ENDBRANCH   1   9
BRANCH   5  16
ATOM     16  C   UNL     1       0.765   9.697  19.053  0.00  0.00    +0.000 A 
ATOM     17  C   UNL     1       0.965   9.137  20.319  0.00  0.00    +0.000 A 
ATOM     18  C   UNL     1       1.748   7.981  20.443  0.00  0.00    +0.000 A 
ATOM     19  C   UNL     1       2.342   7.400  19.317  0.00  0.00    +0.000 A 
ATOM     20  C   UNL     1       2.270   8.055  18.090  0.00  0.00    +0.000 A 
ATOM     21  C   UNL     1       1.486   9.200  17.959  0.00  0.00    +0.000 A 
BRANCH  19  22
ATOM     22  O   UNL     1       3.015   6.213  19.505  0.00  0.00    +0.000 OA
BRANCH  22  23
ATOM     23  C   UNL     1       2.305   5.030  19.552  0.00  0.00    +0.000 A 
ATOM     24  C   UNL     1       2.025   4.432  18.321  0.00  0.00    +0.000 A 
ATOM     25  C   UNL     1       1.311   3.232  18.267  0.00  0.00    +0.000 A 
ATOM     26  C   UNL     1       0.877   2.624  19.444  0.00  0.00    +0.000 A 
ATOM     27  C   UNL     1       1.180   3.200  20.677  0.00  0.00    +0.000 A 
ATOM     28  C   UNL     1       1.914   4.387  20.733  0.00  0.00    +0.000 A 
ENDBRANCH  22  23
ENDBRANCH  19  22
ENDBRANCH   5  16
BRANCH   3  29
ATOM     29  C   UNL     1      -3.626  11.585  18.401  0.00  0.00    +0.000 C 
ATOM     30  O   UNL     1      -4.379  12.354  18.974  0.00  0.00    +0.000 OA
BRANCH  29  31
ATOM     31  O   UNL     1      -4.054  10.663  17.494  0.00  0.00    +0.000 OA
ATOM     32  H   UNL     1      -4.748  11.103  16.956  0.00  0.00    +0.000 HD
ENDBRANCH  29  31
ENDBRANCH   3  29
TORSDOF 8
ENDMDL
