MODEL 1
REMARK VINA RESULT:      -7.6      0.000      0.000
REMARK  Name = 
REMARK  4 active torsions:
REMARK  status: ('A' for Active; 'I' for Inactive)
REMARK    1  A    between atoms: O_1  and  C_2
REMARK    2  A    between atoms: C_9  and  C_10
REMARK    3  A    between atoms: N_11  and  C_12
REMARK    4  A    between atoms: C_15  and  N_16
REMARK                            x       y       z     vdW  Elec       q    Type
REMARK                         _______ _______ _______ _____ _____    ______ ____
ROOT
ATOM      1  C   UNL     1       8.893   9.668  18.921  0.00  0.00    +0.000 C 
ATOM      2  N   UNL     1       8.375   9.173  17.842  0.00  0.00    +0.000 NA
ENDROOT
BRANCH   1  10
ATOM      3  C   UNL     1       9.510  11.795  20.062  0.00  0.00    +0.000 A 
ATOM      4  C   UNL     1      10.141  13.042  20.053  0.00  0.00    +0.000 A 
ATOM      5 BR   UNL     1      10.052  14.180  21.566  0.00  0.00    +0.000 Br
ATOM      6  C   UNL     1      10.837  13.474  18.924  0.00  0.00    +0.000 A 
ATOM      7  C   UNL     1      10.908  12.647  17.804  0.00  0.00    +0.000 A 
ATOM      8 CL   UNL     1      11.762  13.184  16.409  0.00  0.00    +0.000 Cl
ATOM      9  C   UNL     1      10.293  11.397  17.800  0.00  0.00    +0.000 A 
ATOM     10  C   UNL     1       9.586  10.970  18.929  0.00  0.00    +0.000 A 
BRANCH   3  11
ATOM     11  O   UNL     1       8.826  11.361  21.164  0.00  0.00    +0.000 OA
ATOM     12  H   UNL     1       8.393  10.517  20.940  0.00  0.00    +0.000 HD
ENDBRANCH   3  11
ENDBRANCH   1  10
BRANCH   2  13
ATOM     13  C   UNL     1       7.692   7.945  17.915  0.00  0.00    +0.000 A 
ATOM     14  C   UNL     1       6.533   7.793  17.154  0.00  0.00    +0.000 A 
ATOM     15  C   UNL     1       5.800   6.596  17.178  0.00  0.00    +0.000 A 
ATOM     16  C   UNL     1       6.194   5.511  17.969  0.00  0.00    +0.000 A 
ATOM     17  C   UNL     1       7.372   5.670  18.711  0.00  0.00    +0.000 A 
ATOM     18  C   UNL     1       8.119   6.856  18.672  0.00  0.00    +0.000 A 
BRANCH  16  19
ATOM     19  N   UNL     1       5.495   4.322  18.010  0.00  0.00    +0.000 N 
ATOM     20  C   UNL     1       4.808   3.751  16.844  0.00  0.00    +0.000 C 
ATOM     21  C   UNL     1       3.291   3.719  17.077  0.00  0.00    +0.000 C 
ATOM     22  O   UNL     1       2.961   3.024  18.292  0.00  0.00    +0.000 OA
ATOM     23  C   UNL     1       3.571   3.678  19.417  0.00  0.00    +0.000 C 
ATOM     24  C   UNL     1       5.106   3.720  19.295  0.00  0.00    +0.000 C 
ENDBRANCH  16  19
ENDBRANCH   2  13
TORSDOF 4
ENDMDL
MODEL 2
REMARK VINA RESULT:      -7.4      6.760      8.180
REMARK  Name = 
REMARK  4 active torsions:
REMARK  status: ('A' for Active; 'I' for Inactive)
REMARK    1  A    between atoms: O_1  and  C_2
REMARK    2  A    between atoms: C_9  and  C_10
REMARK    3  A    between atoms: N_11  and  C_12
REMARK    4  A    between atoms: C_15  and  N_16
REMARK                            x       y       z     vdW  Elec       q    Type
REMARK                         _______ _______ _______ _____ _____    ______ ____
ROOT
ATOM      1  C   UNL     1       0.794   9.524  18.499  0.00  0.00    +0.000 C 
ATOM      2  N   UNL     1       1.299   8.684  19.347  0.00  0.00    +0.000 NA
ENDROOT
BRANCH   1  10
ATOM      3  C   UNL     1       0.038  11.370  19.991  0.00  0.00    +0.000 A 
ATOM      4  C   UNL     1      -0.932  12.296  20.385  0.00  0.00    +0.000 A 
ATOM      5 BR   UNL     1      -0.627  13.446  21.859  0.00  0.00    +0.000 Br
ATOM      6  C   UNL     1      -2.148  12.380  19.705  0.00  0.00    +0.000 A 
ATOM      7  C   UNL     1      -2.386  11.537  18.620  0.00  0.00    +0.000 A 
ATOM      8 CL   UNL     1      -3.889  11.636  17.786  0.00  0.00    +0.000 Cl
ATOM      9  C   UNL     1      -1.426  10.615  18.208  0.00  0.00    +0.000 A 
ATOM     10  C   UNL     1      -0.213  10.526  18.897  0.00  0.00    +0.000 A 
BRANCH   3  11
ATOM     11  O   UNL     1       1.233  11.281  20.649  0.00  0.00    +0.000 OA
ATOM     12  H   UNL     1       1.700  10.489  20.326  0.00  0.00    +0.000 HD
ENDBRANCH   3  11
ENDBRANCH   1  10
BRANCH   2  13
ATOM     13  C   UNL     1       2.285   7.782  18.906  0.00  0.00    +0.000 A 
ATOM     14  C   UNL     1       2.468   6.606  19.634  0.00  0.00    +0.000 A 
ATOM     15  C   UNL     1       3.434   5.661  19.254  0.00  0.00    +0.000 A 
ATOM     16  C   UNL     1       4.256   5.860  18.138  0.00  0.00    +0.000 A 
ATOM     17  C   UNL     1       4.045   7.035  17.405  0.00  0.00    +0.000 A 
ATOM     18  C   UNL     1       3.067   7.970  17.768  0.00  0.00    +0.000 A 
BRANCH  16  19
ATOM     19  N   UNL     1       5.211   4.947  17.740  0.00  0.00    +0.000 N 
ATOM     20  C   UNL     1       6.343   4.543  18.587  0.00  0.00    +0.000 C 
ATOM     21  C   UNL     1       7.669   4.992  17.958  0.00  0.00    +0.000 C 
ATOM     22  O   UNL     1       7.803   4.506  16.612  0.00  0.00    +0.000 OA
ATOM     23  C   UNL     1       6.731   5.009  15.796  0.00  0.00    +0.000 C 
ATOM     24  C   UNL     1       5.352   4.571  16.325  0.00  0.00    +0.000 C 
ENDBRANCH  16  19
ENDBRANCH   2  13
TORSDOF 4
ENDMDL
MODEL 3
REMARK VINA RESULT:      -7.4      6.696      8.085
REMARK  Name = 
REMARK  4 active torsions:
REMARK  status: ('A' for Active; 'I' for Inactive)
REMARK    1  A    between atoms: O_1  and  C_2
REMARK    2  A    between atoms: C_9  and  C_10
REMARK    3  A    between atoms: N_11  and  C_12
REMARK    4  A    between atoms: C_15  and  N_16
REMARK                            x       y       z     vdW  Elec       q    Type
REMARK                         _______ _______ _______ _____ _____    ______ ____
ROOT
ATOM      1  C   UNL     1       0.816   9.485  18.387  0.00  0.00    +0.000 C 
ATOM      2  N   UNL     1       1.308   8.698  19.291  0.00  0.00    +0.000 NA
ENDROOT
BRANCH   1  10
ATOM      3  C   UNL     1       0.191  11.536  19.655  0.00  0.00    +0.000 A 
ATOM      4  C   UNL     1      -0.742  12.521  19.991  0.00  0.00    +0.000 A 
ATOM      5 BR   UNL     1      -0.311  13.868  21.253  0.00  0.00    +0.000 Br
ATOM      6  C   UNL     1      -2.010  12.523  19.411  0.00  0.00    +0.000 A 
ATOM      7  C   UNL     1      -2.340  11.536  18.482  0.00  0.00    +0.000 A 
ATOM      8 CL   UNL     1      -3.908  11.534  17.771  0.00  0.00    +0.000 Cl
ATOM      9  C   UNL     1      -1.419  10.552  18.129  0.00  0.00    +0.000 A 
ATOM     10  C   UNL     1      -0.152  10.547  18.720  0.00  0.00    +0.000 A 
BRANCH   3  11
ATOM     11  O   UNL     1       1.437  11.527  20.217  0.00  0.00    +0.000 OA
ATOM     12  H   UNL     1       2.086  11.741  19.522  0.00  0.00    +0.000 HD
ENDBRANCH   3  11
ENDBRANCH   1  10
BRANCH   2  13
ATOM     13  C   UNL     1       2.259   7.733  18.909  0.00  0.00    +0.000 A 
ATOM     14  C   UNL     1       3.019   7.979  17.765  0.00  0.00    +0.000 A 
ATOM     15  C   UNL     1       3.985   7.061  17.325  0.00  0.00    +0.000 A 
ATOM     16  C   UNL     1       4.222   5.862  18.006  0.00  0.00    +0.000 A 
ATOM     17  C   UNL     1       3.467   5.639  19.165  0.00  0.00    +0.000 A 
ATOM     18  C   UNL     1       2.517   6.563  19.621  0.00  0.00    +0.000 A 
BRANCH  16  19
ATOM     19  N   UNL     1       5.167   4.943  17.597  0.00  0.00    +0.000 N 
ATOM     20  C   UNL     1       6.258   4.471  18.461  0.00  0.00    +0.000 C 
ATOM     21  C   UNL     1       7.616   4.912  17.899  0.00  0.00    +0.000 C 
ATOM     22  O   UNL     1       7.784   4.486  16.536  0.00  0.00    +0.000 OA
ATOM     23  C   UNL     1       6.755   5.054  15.710  0.00  0.00    +0.000 C 
ATOM     24  C   UNL     1       5.347   4.630  16.171  0.00  0.00    +0.000 C 
ENDBRANCH  16  19
ENDBRANCH   2  13
TORSDOF 4
ENDMDL
MODEL 4
REMARK VINA RESULT:      -7.3      7.623      9.824
REMARK  Name = 
REMARK  4 active torsions:
REMARK  status: ('A' for Active; 'I' for Inactive)
REMARK    1  A    between atoms: O_1  and  C_2
REMARK    2  A    between atoms: C_9  and  C_10
REMARK    3  A    between atoms: N_11  and  C_12
REMARK    4  A    between atoms: C_15  and  N_16
REMARK                            x       y       z     vdW  Elec       q    Type
REMARK                         _______ _______ _______ _____ _____    ______ ____
ROOT
ATOM      1  C   UNL     1       2.481   7.292  18.596  0.00  0.00    +0.000 C 
ATOM      2  N   UNL     1       2.189   7.363  19.857  0.00  0.00    +0.000 NA
ENDROOT
BRANCH   1  10
ATOM      3  C   UNL     1       2.788   4.837  18.309  0.00  0.00    +0.000 A 
ATOM      4  C   UNL     1       3.504   3.753  17.794  0.00  0.00    +0.000 A 
ATOM      5 BR   UNL     1       2.960   1.975  18.161  0.00  0.00    +0.000 Br
ATOM      6  C   UNL     1       4.639   3.962  17.010  0.00  0.00    +0.000 A 
ATOM      7  C   UNL     1       5.051   5.265  16.735  0.00  0.00    +0.000 A 
ATOM      8 CL   UNL     1       6.456   5.523  15.773  0.00  0.00    +0.000 Cl
ATOM      9  C   UNL     1       4.343   6.358  17.233  0.00  0.00    +0.000 A 
ATOM     10  C   UNL     1       3.212   6.145  18.027  0.00  0.00    +0.000 A 
BRANCH   3  11
ATOM     11  O   UNL     1       1.674   4.643  19.078  0.00  0.00    +0.000 OA
ATOM     12  H   UNL     1       0.901   4.594  18.487  0.00  0.00    +0.000 HD
ENDBRANCH   3  11
ENDBRANCH   1  10
BRANCH   2  13
ATOM     13  C   UNL     1       1.453   8.467  20.325  0.00  0.00    +0.000 A 
ATOM     14  C   UNL     1       1.113   9.464  19.409  0.00  0.00    +0.000 A 
ATOM     15  C   UNL     1       0.381  10.593  19.804  0.00  0.00    +0.000 A 
ATOM     16  C   UNL     1      -0.033  10.772  21.129  0.00  0.00    +0.000 A 
ATOM     17  C   UNL     1       0.296   9.753  22.033  0.00  0.00    +0.000 A 
ATOM     18  C   UNL     1       1.008   8.613  21.637  0.00  0.00    +0.000 A 
BRANCH  16  19
ATOM     19  N   UNL     1      -0.756  11.872  21.546  0.00  0.00    +0.000 N 
ATOM     20  C   UNL     1      -1.137  12.102  22.946  0.00  0.00    +0.000 C 
ATOM     21  C   UNL     1      -2.662  12.047  23.103  0.00  0.00    +0.000 C 
ATOM     22  O   UNL     1      -3.316  12.963  22.208  0.00  0.00    +0.000 OA
ATOM     23  C   UNL     1      -2.997  12.637  20.846  0.00  0.00    +0.000 C 
ATOM     24  C   UNL     1      -1.481  12.709  20.577  0.00  0.00    +0.000 C 
ENDBRANCH  16  19
ENDBRANCH   2  13
TORSDOF 4
ENDMDL
MODEL 5
REMARK VINA RESULT:      -7.3      7.593      9.810
REMARK  Name = 
REMARK  4 active torsions:
REMARK  status: ('A' for Active; 'I' for Inactive)
REMARK    1  A    between atoms: O_1  and  C_2
REMARK    2  A    between atoms: C_9  and  C_10
REMARK    3  A    between atoms: N_11  and  C_12
REMARK    4  A    between atoms: C_15  and  N_16
REMARK                            x       y       z     vdW  Elec       q    Type
REMARK                         _______ _______ _______ _____ _____    ______ ____
ROOT
ATOM      1  C   UNL     1       2.601   7.342  18.421  0.00  0.00    +0.000 C 
ATOM      2  N   UNL     1       2.184   7.402  19.646  0.00  0.00    +0.000 NA
ENDROOT
BRANCH   1  10
ATOM      3  C   UNL     1       2.859   4.879  18.155  0.00  0.00    +0.000 A 
ATOM      4  C   UNL     1       3.578   3.775  17.690  0.00  0.00    +0.000 A 
ATOM      5 BR   UNL     1       2.961   2.013  18.018  0.00  0.00    +0.000 Br
ATOM      6  C   UNL     1       4.769   3.951  16.985  0.00  0.00    +0.000 A 
ATOM      7  C   UNL     1       5.235   5.242  16.739  0.00  0.00    +0.000 A 
ATOM      8 CL   UNL     1       6.709   5.459  15.876  0.00  0.00    +0.000 Cl
ATOM      9  C   UNL     1       4.526   6.354  17.188  0.00  0.00    +0.000 A 
ATOM     10  C   UNL     1       3.338   6.174  17.902  0.00  0.00    +0.000 A 
BRANCH   3  11
ATOM     11  O   UNL     1       1.690   4.717  18.845  0.00  0.00    +0.000 OA
ATOM     12  H   UNL     1       1.309   5.599  19.009  0.00  0.00    +0.000 HD
ENDBRANCH   3  11
ENDBRANCH   1  10
BRANCH   2  13
ATOM     13  C   UNL     1       1.451   8.529  20.062  0.00  0.00    +0.000 A 
ATOM     14  C   UNL     1       1.077   8.608  21.404  0.00  0.00    +0.000 A 
ATOM     15  C   UNL     1       0.345   9.703  21.889  0.00  0.00    +0.000 A 
ATOM     16  C   UNL     1      -0.046  10.754  21.051  0.00  0.00    +0.000 A 
ATOM     17  C   UNL     1       0.357  10.671  19.712  0.00  0.00    +0.000 A 
ATOM     18  C   UNL     1       1.107   9.591  19.228  0.00  0.00    +0.000 A 
BRANCH  16  19
ATOM     19  N   UNL     1      -0.763  11.843  21.502  0.00  0.00    +0.000 N 
ATOM     20  C   UNL     1      -1.090  12.063  22.918  0.00  0.00    +0.000 C 
ATOM     21  C   UNL     1      -2.607  11.991  23.135  0.00  0.00    +0.000 C 
ATOM     22  O   UNL     1      -3.306  12.904  22.272  0.00  0.00    +0.000 OA
ATOM     23  C   UNL     1      -3.038  12.588  20.896  0.00  0.00    +0.000 C 
ATOM     24  C   UNL     1      -1.535  12.677  20.568  0.00  0.00    +0.000 C 
ENDBRANCH  16  19
ENDBRANCH   2  13
TORSDOF 4
ENDMDL
MODEL 6
REMARK VINA RESULT:      -7.2      6.878      8.472
REMARK  Name = 
REMARK  4 active torsions:
REMARK  status: ('A' for Active; 'I' for Inactive)
REMARK    1  A    between atoms: O_1  and  C_2
REMARK    2  A    between atoms: C_9  and  C_10
REMARK    3  A    between atoms: N_11  and  C_12
REMARK    4  A    between atoms: C_15  and  N_16
REMARK                            x       y       z     vdW  Elec       q    Type
REMARK                         _______ _______ _______ _____ _____    ______ ____
ROOT
ATOM      1  C   UNL     1       0.776   9.503  18.409  0.00  0.00    +0.000 C 
ATOM      2  N   UNL     1       1.350   8.724  19.270  0.00  0.00    +0.000 NA
ENDROOT
BRANCH   1  10
ATOM      3  C   UNL     1      -1.468  10.558  18.167  0.00  0.00    +0.000 A 
ATOM      4  C   UNL     1      -2.397  11.536  18.529  0.00  0.00    +0.000 A 
ATOM      5 BR   UNL     1      -4.086  11.627  17.675  0.00  0.00    +0.000 Br
ATOM      6  C   UNL     1      -2.092  12.471  19.519  0.00  0.00    +0.000 A 
ATOM      7  C   UNL     1      -0.852  12.416  20.155  0.00  0.00    +0.000 A 
ATOM      8 CL   UNL     1      -0.473  13.574  21.371  0.00  0.00    +0.000 Cl
ATOM      9  C   UNL     1       0.083  11.441  19.812  0.00  0.00    +0.000 A 
ATOM     10  C   UNL     1      -0.221  10.512  18.812  0.00  0.00    +0.000 A 
BRANCH   3  11
ATOM     11  O   UNL     1      -1.757   9.637  17.199  0.00  0.00    +0.000 OA
ATOM     12  H   UNL     1      -1.432   8.768  17.498  0.00  0.00    +0.000 HD
ENDBRANCH   3  11
ENDBRANCH   1  10
BRANCH   2  13
ATOM     13  C   UNL     1       2.323   7.812  18.821  0.00  0.00    +0.000 A 
ATOM     14  C   UNL     1       2.494   6.629  19.541  0.00  0.00    +0.000 A 
ATOM     15  C   UNL     1       3.446   5.674  19.151  0.00  0.00    +0.000 A 
ATOM     16  C   UNL     1       4.265   5.868  18.034  0.00  0.00    +0.000 A 
ATOM     17  C   UNL     1       4.066   7.050  17.307  0.00  0.00    +0.000 A 
ATOM     18  C   UNL     1       3.102   7.996  17.680  0.00  0.00    +0.000 A 
BRANCH  16  19
ATOM     19  N   UNL     1       5.207   4.945  17.626  0.00  0.00    +0.000 N 
ATOM     20  C   UNL     1       6.297   4.471  18.491  0.00  0.00    +0.000 C 
ATOM     21  C   UNL     1       7.656   4.907  17.927  0.00  0.00    +0.000 C 
ATOM     22  O   UNL     1       7.822   4.477  16.565  0.00  0.00    +0.000 OA
ATOM     23  C   UNL     1       6.794   5.048  15.738  0.00  0.00    +0.000 C 
ATOM     24  C   UNL     1       5.386   4.629  16.201  0.00  0.00    +0.000 C 
ENDBRANCH  16  19
ENDBRANCH   2  13
TORSDOF 4
ENDMDL
MODEL 7
REMARK VINA RESULT:      -7.2      8.400     10.422
REMARK  Name = 
REMARK  4 active torsions:
REMARK  status: ('A' for Active; 'I' for Inactive)
REMARK    1  A    between atoms: O_1  and  C_2
REMARK    2  A    between atoms: C_9  and  C_10
REMARK    3  A    between atoms: N_11  and  C_12
REMARK    4  A    between atoms: C_15  and  N_16
REMARK                            x       y       z     vdW  Elec       q    Type
REMARK                         _______ _______ _______ _____ _____    ______ ____
ROOT
ATOM      1  C   UNL     1       1.723   8.151  19.604  0.00  0.00    +0.000 C 
ATOM      2  N   UNL     1       1.586   8.260  20.887  0.00  0.00    +0.000 NA
ENDROOT
BRANCH   1  10
ATOM      3  C   UNL     1       2.419   5.760  19.537  0.00  0.00    +0.000 A 
ATOM      4  C   UNL     1       3.174   4.729  18.973  0.00  0.00    +0.000 A 
ATOM      5 BR   UNL     1       3.103   2.977  19.691  0.00  0.00    +0.000 Br
ATOM      6  C   UNL     1       4.002   4.975  17.878  0.00  0.00    +0.000 A 
ATOM      7  C   UNL     1       4.065   6.260  17.341  0.00  0.00    +0.000 A 
ATOM      8 CL   UNL     1       5.093   6.566  15.994  0.00  0.00    +0.000 Cl
ATOM      9  C   UNL     1       3.312   7.299  17.886  0.00  0.00    +0.000 A 
ATOM     10  C   UNL     1       2.491   7.052  18.990  0.00  0.00    +0.000 A 
BRANCH   3  11
ATOM     11  O   UNL     1       1.604   5.530  20.610  0.00  0.00    +0.000 OA
ATOM     12  H   UNL     1       2.079   4.955  21.236  0.00  0.00    +0.000 HD
ENDBRANCH   3  11
ENDBRANCH   1  10
BRANCH   2  13
ATOM     13  C   UNL     1       0.805   9.311  21.402  0.00  0.00    +0.000 A 
ATOM     14  C   UNL     1       0.091   9.081  22.579  0.00  0.00    +0.000 A 
ATOM     15  C   UNL     1      -0.709  10.084  23.149  0.00  0.00    +0.000 A 
ATOM     16  C   UNL     1      -0.830  11.349  22.562  0.00  0.00    +0.000 A 
ATOM     17  C   UNL     1      -0.090  11.572  21.394  0.00  0.00    +0.000 A 
ATOM     18  C   UNL     1       0.727  10.581  20.833  0.00  0.00    +0.000 A 
BRANCH  16  19
ATOM     19  N   UNL     1      -1.607  12.353  23.103  0.00  0.00    +0.000 N 
ATOM     20  C   UNL     1      -3.022  12.176  23.457  0.00  0.00    +0.000 C 
ATOM     21  C   UNL     1      -3.911  13.065  22.577  0.00  0.00    +0.000 C 
ATOM     22  O   UNL     1      -3.506  14.443  22.645  0.00  0.00    +0.000 OA
ATOM     23  C   UNL     1      -2.149  14.583  22.193  0.00  0.00    +0.000 C 
ATOM     24  C   UNL     1      -1.170  13.757  23.048  0.00  0.00    +0.000 C 
ENDBRANCH  16  19
ENDBRANCH   2  13
TORSDOF 4
ENDMDL
MODEL 8
REMARK VINA RESULT:      -7.2      7.684      9.856
REMARK  Name = 
REMARK  4 active torsions:
REMARK  status: ('A' for Active; 'I' for Inactive)
REMARK    1  A    between atoms: O_1  and  C_2
REMARK    2  A    between atoms: C_9  and  C_10
REMARK    3  A    between atoms: N_11  and  C_12
REMARK    4  A    between atoms: C_15  and  N_16
REMARK                            x       y       z     vdW  Elec       q    Type
REMARK                         _______ _______ _______ _____ _____    ______ ____
ROOT
ATOM      1  C   UNL     1       2.541   7.109  18.484  0.00  0.00    +0.000 C 
ATOM      2  N   UNL     1       2.185   7.236  19.723  0.00  0.00    +0.000 NA
ENDROOT
BRANCH   1  10
ATOM      3  C   UNL     1       4.488   6.014  17.381  0.00  0.00    +0.000 A 
ATOM      4  C   UNL     1       5.120   4.871  16.883  0.00  0.00    +0.000 A 
ATOM      5 BR   UNL     1       6.820   4.992  16.055  0.00  0.00    +0.000 Br
ATOM      6  C   UNL     1       4.503   3.624  16.977  0.00  0.00    +0.000 A 
ATOM      7  C   UNL     1       3.251   3.522  17.583  0.00  0.00    +0.000 A 
ATOM      8 CL   UNL     1       2.486   1.983  17.692  0.00  0.00    +0.000 Cl
ATOM      9  C   UNL     1       2.611   4.650  18.093  0.00  0.00    +0.000 A 
ATOM     10  C   UNL     1       3.227   5.901  17.988  0.00  0.00    +0.000 A 
BRANCH   3  11
ATOM     11  O   UNL     1       5.084   7.241  17.295  0.00  0.00    +0.000 OA
ATOM     12  H   UNL     1       5.763   7.202  16.597  0.00  0.00    +0.000 HD
ENDBRANCH   3  11
ENDBRANCH   1  10
BRANCH   2  13
ATOM     13  C   UNL     1       1.497   8.398  20.118  0.00  0.00    +0.000 A 
ATOM     14  C   UNL     1       1.186   8.547  21.470  0.00  0.00    +0.000 A 
ATOM     15  C   UNL     1       0.501   9.680  21.936  0.00  0.00    +0.000 A 
ATOM     16  C   UNL     1       0.097  10.701  21.069  0.00  0.00    +0.000 A 
ATOM     17  C   UNL     1       0.437  10.549  19.718  0.00  0.00    +0.000 A 
ATOM     18  C   UNL     1       1.140   9.429  19.252  0.00  0.00    +0.000 A 
BRANCH  16  19
ATOM     19  N   UNL     1      -0.575  11.827  21.500  0.00  0.00    +0.000 N 
ATOM     20  C   UNL     1      -1.017  12.019  22.888  0.00  0.00    +0.000 C 
ATOM     21  C   UNL     1      -2.550  12.061  22.961  0.00  0.00    +0.000 C 
ATOM     22  O   UNL     1      -3.091  13.059  22.079  0.00  0.00    +0.000 OA
ATOM     23  C   UNL     1      -2.717  12.774  20.721  0.00  0.00    +0.000 C 
ATOM     24  C   UNL     1      -1.188  12.755  20.537  0.00  0.00    +0.000 C 
ENDBRANCH  16  19
ENDBRANCH   2  13
TORSDOF 4
ENDMDL
MODEL 9
REMARK VINA RESULT:      -7.2      8.359     10.384
REMARK  Name = 
REMARK  4 active torsions:
REMARK  status: ('A' for Active; 'I' for Inactive)
REMARK    1  A    between atoms: O_1  and  C_2
REMARK    2  A    between atoms: C_9  and  C_10
REMARK    3  A    between atoms: N_11  and  C_12
REMARK    4  A    between atoms: C_15  and  N_16
REMARK                            x       y       z     vdW  Elec       q    Type
REMARK                         _______ _______ _______ _____ _____    ______ ____
ROOT
ATOM      1  C   UNL     1       1.701   8.070  19.715  0.00  0.00    +0.000 C 
ATOM      2  N   UNL     1       1.590   8.158  21.003  0.00  0.00    +0.000 NA
ENDROOT
BRANCH   1  10
ATOM      3  C   UNL     1       2.454   5.698  19.592  0.00  0.00    +0.000 A 
ATOM      4  C   UNL     1       3.226   4.697  18.997  0.00  0.00    +0.000 A 
ATOM      5 BR   UNL     1       3.206   2.929  19.680  0.00  0.00    +0.000 Br
ATOM      6  C   UNL     1       4.034   4.985  17.897  0.00  0.00    +0.000 A 
ATOM      7  C   UNL     1       4.059   6.282  17.386  0.00  0.00    +0.000 A 
ATOM      8 CL   UNL     1       5.062   6.639  16.033  0.00  0.00    +0.000 Cl
ATOM      9  C   UNL     1       3.288   7.291  17.961  0.00  0.00    +0.000 A 
ATOM     10  C   UNL     1       2.488   7.002  19.070  0.00  0.00    +0.000 A 
BRANCH   3  11
ATOM     11  O   UNL     1       1.658   5.427  20.669  0.00  0.00    +0.000 OA
ATOM     12  H   UNL     1       1.869   6.066  21.373  0.00  0.00    +0.000 HD
ENDBRANCH   3  11
ENDBRANCH   1  10
BRANCH   2  13
ATOM     13  C   UNL     1       0.790   9.179  21.549  0.00  0.00    +0.000 A 
ATOM     14  C   UNL     1       0.775  10.415  20.902  0.00  0.00    +0.000 A 
ATOM     15  C   UNL     1       0.001  11.480  21.391  0.00  0.00    +0.000 A 
ATOM     16  C   UNL     1      -0.780  11.350  22.545  0.00  0.00    +0.000 A 
ATOM     17  C   UNL     1      -0.772  10.096  23.171  0.00  0.00    +0.000 A 
ATOM     18  C   UNL     1      -0.018   9.024  22.674  0.00  0.00    +0.000 A 
BRANCH  16  19
ATOM     19  N   UNL     1      -1.552  12.378  23.046  0.00  0.00    +0.000 N 
ATOM     20  C   UNL     1      -2.977  12.230  23.372  0.00  0.00    +0.000 C 
ATOM     21  C   UNL     1      -3.832  13.113  22.454  0.00  0.00    +0.000 C 
ATOM     22  O   UNL     1      -3.408  14.486  22.500  0.00  0.00    +0.000 OA
ATOM     23  C   UNL     1      -2.039  14.595  22.076  0.00  0.00    +0.000 C 
ATOM     24  C   UNL     1      -1.092  13.774  22.970  0.00  0.00    +0.000 C 
ENDBRANCH  16  19
ENDBRANCH   2  13
TORSDOF 4
ENDMDL
