MODEL 1
REMARK VINA RESULT:      -9.0      0.000      0.000
REMARK  Name = 
REMARK  6 active torsions:
REMARK  status: ('A' for Active; 'I' for Inactive)
REMARK    1  A    between atoms: C_2  and  C_4
REMARK    2  A    between atoms: C_10  and  O_11
REMARK    3  A    between atoms: O_11  and  C_12
REMARK    4  A    between atoms: C_17  and  N_18
REMARK    5  A    between atoms: N_18  and  C_19
REMARK    6  A    between atoms: C_24  and  C_25
REMARK                            x       y       z     vdW  Elec       q    Type
REMARK                         _______ _______ _______ _____ _____    ______ ____
ROOT
ATOM      1  C   UNL     1       2.527   8.218  17.945  0.00  0.00    +0.000 C 
ATOM      2  O   UNL     1       3.256   8.436  16.989  0.00  0.00    +0.000 OA
ATOM      3  N   UNL     1       1.755   9.155  18.556  0.00  0.00    +0.000 N 
ATOM      4  C   UNL     1       1.051   9.013  19.810  0.00  0.00    +0.000 C 
ATOM      5  C   UNL     1      -0.093   9.990  19.641  0.00  0.00    +0.000 C 
ATOM      6  C   UNL     1       0.559  11.173  18.900  0.00  0.00    +0.000 C 
ATOM      7  C   UNL     1       1.709  10.525  18.098  0.00  0.00    +0.000 C 
ENDROOT
BRANCH   6   8
ATOM      8  N   UNL     1      -0.442  11.826  18.052  0.00  0.00    +0.000 N 
ATOM      9  H   UNL     1      -0.071  12.662  17.601  0.00  0.00    +0.000 HD
BRANCH   8  10
ATOM     10  C   UNL     1      -1.672  12.091  18.662  0.00  0.00    +0.000 A 
ATOM     11  N   UNL     1      -1.667  12.834  19.793  0.00  0.00    +0.000 NA
ATOM     12  C   UNL     1      -2.833  13.086  20.423  0.00  0.00    +0.000 A 
ATOM     13  C   UNL     1      -4.046  12.602  19.991  0.00  0.00    +0.000 A 
ATOM     14  C   UNL     1      -4.053  11.825  18.840  0.00  0.00    +0.000 A 
ATOM     15  C   UNL     1      -2.855  11.562  18.149  0.00  0.00    +0.000 A 
BRANCH  15  16
ATOM     16  C   UNL     1      -2.913  10.728  16.906  0.00  0.00    +0.000 C 
ATOM     17  F   UNL     1      -2.430  11.313  15.774  0.00  0.00    +0.000 F 
ATOM     18  F   UNL     1      -2.241   9.549  17.038  0.00  0.00    +0.000 F 
ATOM     19  F   UNL     1      -4.197  10.378  16.596  0.00  0.00    +0.000 F 
ENDBRANCH  15  16
ENDBRANCH   8  10
ENDBRANCH   6   8
BRANCH   1  20
ATOM     20  O   UNL     1       2.417   7.008  18.564  0.00  0.00    +0.000 OA
BRANCH  20  27
ATOM     21  C   UNL     1       2.619   3.752  19.905  0.00  0.00    +0.000 C 
ATOM     22  C   UNL     1       3.672   2.731  19.407  0.00  0.00    +0.000 C 
ATOM     23  C   UNL     1       4.522   3.340  18.277  0.00  0.00    +0.000 C 
ATOM     24  C   UNL     1       5.256   4.580  18.809  0.00  0.00    +0.000 C 
ATOM     25  C   UNL     1       4.235   5.617  19.283  0.00  0.00    +0.000 C 
ATOM     26  C   UNL     1       3.372   5.010  20.408  0.00  0.00    +0.000 C 
ATOM     27  C   UNL     1       3.337   6.020  18.094  0.00  0.00    +0.000 C 
ATOM     28  C   UNL     1       2.568   4.782  17.590  0.00  0.00    +0.000 C 
ATOM     29  C   UNL     1       3.597   3.741  17.112  0.00  0.00    +0.000 C 
ATOM     30  C   UNL     1       1.720   4.167  18.719  0.00  0.00    +0.000 C 
BRANCH  21  32
ATOM     31  N   UNL     1       0.495   2.802  20.718  0.00  0.00    +0.000 N 
ATOM     32  C   UNL     1       1.770   3.162  21.037  0.00  0.00    +0.000 C 
ATOM     33  O   UNL     1       2.165   3.030  22.191  0.00  0.00    +0.000 OA
ATOM     34  H   UNL     1      -0.063   2.383  21.452  0.00  0.00    +0.000 HD
ATOM     35  H   UNL     1       0.137   2.783  19.774  0.00  0.00    +0.000 HD
ENDBRANCH  21  32
ENDBRANCH  20  27
ENDBRANCH   1  20
TORSDOF 6
ENDMDL
MODEL 2
REMARK VINA RESULT:      -9.0      0.864      1.109
REMARK  Name = 
REMARK  6 active torsions:
REMARK  status: ('A' for Active; 'I' for Inactive)
REMARK    1  A    between atoms: C_2  and  C_4
REMARK    2  A    between atoms: C_10  and  O_11
REMARK    3  A    between atoms: O_11  and  C_12
REMARK    4  A    between atoms: C_17  and  N_18
REMARK    5  A    between atoms: N_18  and  C_19
REMARK    6  A    between atoms: C_24  and  C_25
REMARK                            x       y       z     vdW  Elec       q    Type
REMARK                         _______ _______ _______ _____ _____    ______ ____
ROOT
ATOM      1  C   UNL     1       2.486   8.317  18.110  0.00  0.00    +0.000 C 
ATOM      2  O   UNL     1       3.215   8.550  17.157  0.00  0.00    +0.000 OA
ATOM      3  N   UNL     1       1.657   9.227  18.687  0.00  0.00    +0.000 N 
ATOM      4  C   UNL     1       0.944   9.079  19.936  0.00  0.00    +0.000 C 
ATOM      5  C   UNL     1      -0.247   9.990  19.728  0.00  0.00    +0.000 C 
ATOM      6  C   UNL     1       0.353  11.187  18.965  0.00  0.00    +0.000 C 
ATOM      7  C   UNL     1       1.545  10.581  18.194  0.00  0.00    +0.000 C 
ENDROOT
BRANCH   6   8
ATOM      8  N   UNL     1      -0.670  11.765  18.089  0.00  0.00    +0.000 N 
ATOM      9  H   UNL     1      -0.315  12.566  17.566  0.00  0.00    +0.000 HD
BRANCH   8  10
ATOM     10  C   UNL     1      -1.890  12.070  18.701  0.00  0.00    +0.000 A 
ATOM     11  N   UNL     1      -1.859  12.808  19.834  0.00  0.00    +0.000 NA
ATOM     12  C   UNL     1      -3.015  13.098  20.465  0.00  0.00    +0.000 A 
ATOM     13  C   UNL     1      -4.244  12.657  20.032  0.00  0.00    +0.000 A 
ATOM     14  C   UNL     1      -4.278  11.886  18.878  0.00  0.00    +0.000 A 
ATOM     15  C   UNL     1      -3.091  11.584  18.186  0.00  0.00    +0.000 A 
BRANCH  15  16
ATOM     16  C   UNL     1      -3.178  10.757  16.940  0.00  0.00    +0.000 C 
ATOM     17  F   UNL     1      -2.678   9.492  17.029  0.00  0.00    +0.000 F 
ATOM     18  F   UNL     1      -4.458  10.626  16.490  0.00  0.00    +0.000 F 
ATOM     19  F   UNL     1      -2.491  11.330  15.907  0.00  0.00    +0.000 F 
ENDBRANCH  15  16
ENDBRANCH   8  10
ENDBRANCH   6   8
BRANCH   1  20
ATOM     20  O   UNL     1       2.431   7.119  18.759  0.00  0.00    +0.000 OA
BRANCH  20  27
ATOM     21  C   UNL     1       2.180   3.619  19.116  0.00  0.00    +0.000 C 
ATOM     22  C   UNL     1       3.369   2.682  18.792  0.00  0.00    +0.000 C 
ATOM     23  C   UNL     1       4.575   3.494  18.287  0.00  0.00    +0.000 C 
ATOM     24  C   UNL     1       5.013   4.481  19.379  0.00  0.00    +0.000 C 
ATOM     25  C   UNL     1       3.862   5.438  19.697  0.00  0.00    +0.000 C 
ATOM     26  C   UNL     1       2.645   4.629  20.194  0.00  0.00    +0.000 C 
ATOM     27  C   UNL     1       3.486   6.216  18.419  0.00  0.00    +0.000 C 
ATOM     28  C   UNL     1       3.005   5.227  17.339  0.00  0.00    +0.000 C 
ATOM     29  C   UNL     1       4.165   4.266  17.019  0.00  0.00    +0.000 C 
ATOM     30  C   UNL     1       1.801   4.409  17.842  0.00  0.00    +0.000 C 
BRANCH  21  32
ATOM     31  N   UNL     1       0.762   2.839  20.975  0.00  0.00    +0.000 N 
ATOM     32  C   UNL     1       0.973   2.824  19.628  0.00  0.00    +0.000 C 
ATOM     33  O   UNL     1       0.228   2.169  18.906  0.00  0.00    +0.000 OA
ATOM     34  H   UNL     1      -0.050   2.342  21.319  0.00  0.00    +0.000 HD
ATOM     35  H   UNL     1       1.266   3.435  21.615  0.00  0.00    +0.000 HD
ENDBRANCH  21  32
ENDBRANCH  20  27
ENDBRANCH   1  20
TORSDOF 6
ENDMDL
MODEL 3
REMARK VINA RESULT:      -8.7      1.504      2.138
REMARK  Name = 
REMARK  6 active torsions:
REMARK  status: ('A' for Active; 'I' for Inactive)
REMARK    1  A    between atoms: C_2  and  C_4
REMARK    2  A    between atoms: C_10  and  O_11
REMARK    3  A    between atoms: O_11  and  C_12
REMARK    4  A    between atoms: C_17  and  N_18
REMARK    5  A    between atoms: N_18  and  C_19
REMARK    6  A    between atoms: C_24  and  C_25
REMARK                            x       y       z     vdW  Elec       q    Type
REMARK                         _______ _______ _______ _____ _____    ______ ____
ROOT
ATOM      1  C   UNL     1       2.455   7.895  18.622  0.00  0.00    +0.000 C 
ATOM      2  O   UNL     1       3.110   7.924  17.591  0.00  0.00    +0.000 OA
ATOM      3  N   UNL     1       1.630   8.892  19.039  0.00  0.00    +0.000 N 
ATOM      4  C   UNL     1       1.007   9.013  20.338  0.00  0.00    +0.000 C 
ATOM      5  C   UNL     1      -0.231   9.824  20.018  0.00  0.00    +0.000 C 
ATOM      6  C   UNL     1       0.269  10.832  18.965  0.00  0.00    +0.000 C 
ATOM      7  C   UNL     1       1.432  10.096  18.265  0.00  0.00    +0.000 C 
ENDROOT
BRANCH   6   8
ATOM      8  N   UNL     1      -0.831  11.171  18.058  0.00  0.00    +0.000 N 
ATOM      9  H   UNL     1      -0.523  11.775  17.296  0.00  0.00    +0.000 HD
BRANCH   8  10
ATOM     10  C   UNL     1      -1.982  11.683  18.667  0.00  0.00    +0.000 A 
ATOM     11  N   UNL     1      -1.833  12.346  19.837  0.00  0.00    +0.000 NA
ATOM     12  C   UNL     1      -2.925  12.829  20.465  0.00  0.00    +0.000 A 
ATOM     13  C   UNL     1      -4.206  12.661  19.991  0.00  0.00    +0.000 A 
ATOM     14  C   UNL     1      -4.363  11.967  18.799  0.00  0.00    +0.000 A 
ATOM     15  C   UNL     1      -3.241  11.469  18.110  0.00  0.00    +0.000 A 
BRANCH  15  16
ATOM     16  C   UNL     1      -3.459  10.736  16.822  0.00  0.00    +0.000 C 
ATOM     17  F   UNL     1      -2.711  11.156  15.764  0.00  0.00    +0.000 F 
ATOM     18  F   UNL     1      -3.227   9.397  16.940  0.00  0.00    +0.000 F 
ATOM     19  F   UNL     1      -4.753  10.841  16.397  0.00  0.00    +0.000 F 
ENDBRANCH  15  16
ENDBRANCH   8  10
ENDBRANCH   6   8
BRANCH   1  20
ATOM     20  O   UNL     1       2.491   6.874  19.524  0.00  0.00    +0.000 OA
BRANCH  20  27
ATOM     21  C   UNL     1       3.469   3.487  19.406  0.00  0.00    +0.000 C 
ATOM     22  C   UNL     1       2.469   2.365  19.033  0.00  0.00    +0.000 C 
ATOM     23  C   UNL     1       1.068   2.951  18.782  0.00  0.00    +0.000 C 
ATOM     24  C   UNL     1       1.138   3.950  17.618  0.00  0.00    +0.000 C 
ATOM     25  C   UNL     1       2.101   5.086  17.974  0.00  0.00    +0.000 C 
ATOM     26  C   UNL     1       3.506   4.504  18.237  0.00  0.00    +0.000 C 
ATOM     27  C   UNL     1       1.587   5.804  19.239  0.00  0.00    +0.000 C 
ATOM     28  C   UNL     1       1.558   4.810  20.417  0.00  0.00    +0.000 C 
ATOM     29  C   UNL     1       0.588   3.669  20.058  0.00  0.00    +0.000 C 
ATOM     30  C   UNL     1       2.958   4.217  20.668  0.00  0.00    +0.000 C 
BRANCH  21  32
ATOM     31  N   UNL     1       5.899   3.526  18.990  0.00  0.00    +0.000 N 
ATOM     32  C   UNL     1       4.872   2.919  19.650  0.00  0.00    +0.000 C 
ATOM     33  O   UNL     1       5.103   1.952  20.368  0.00  0.00    +0.000 OA
ATOM     34  H   UNL     1       6.831   3.176  19.169  0.00  0.00    +0.000 HD
ATOM     35  H   UNL     1       5.800   4.385  18.469  0.00  0.00    +0.000 HD
ENDBRANCH  21  32
ENDBRANCH  20  27
ENDBRANCH   1  20
TORSDOF 6
ENDMDL
MODEL 4
REMARK VINA RESULT:      -8.5      1.634      2.155
REMARK  Name = 
REMARK  6 active torsions:
REMARK  status: ('A' for Active; 'I' for Inactive)
REMARK    1  A    between atoms: C_2  and  C_4
REMARK    2  A    between atoms: C_10  and  O_11
REMARK    3  A    between atoms: O_11  and  C_12
REMARK    4  A    between atoms: C_17  and  N_18
REMARK    5  A    between atoms: N_18  and  C_19
REMARK    6  A    between atoms: C_24  and  C_25
REMARK                            x       y       z     vdW  Elec       q    Type
REMARK                         _______ _______ _______ _____ _____    ______ ____
ROOT
ATOM      1  C   UNL     1       2.496   7.925  17.979  0.00  0.00    +0.000 C 
ATOM      2  O   UNL     1       3.238   8.154  17.035  0.00  0.00    +0.000 OA
ATOM      3  N   UNL     1       1.827   8.877  18.682  0.00  0.00    +0.000 N 
ATOM      4  C   UNL     1       1.119   8.695  19.929  0.00  0.00    +0.000 C 
ATOM      5  C   UNL     1       0.081   9.795  19.863  0.00  0.00    +0.000 C 
ATOM      6  C   UNL     1       0.847  10.967  19.221  0.00  0.00    +0.000 C 
ATOM      7  C   UNL     1       1.920  10.281  18.349  0.00  0.00    +0.000 C 
ENDROOT
BRANCH   6   8
ATOM      8  N   UNL     1      -0.086  11.793  18.450  0.00  0.00    +0.000 N 
ATOM      9  H   UNL     1      -0.202  12.720  18.860  0.00  0.00    +0.000 HD
BRANCH   8  10
ATOM     10  C   UNL     1      -1.328  11.210  18.177  0.00  0.00    +0.000 A 
ATOM     11  N   UNL     1      -1.387  10.291  17.185  0.00  0.00    +0.000 NA
ATOM     12  C   UNL     1      -2.574   9.728  16.877  0.00  0.00    +0.000 A 
ATOM     13  C   UNL     1      -3.753  10.059  17.504  0.00  0.00    +0.000 A 
ATOM     14  C   UNL     1      -3.698  11.013  18.511  0.00  0.00    +0.000 A 
ATOM     15  C   UNL     1      -2.471  11.603  18.869  0.00  0.00    +0.000 A 
BRANCH  15  16
ATOM     16  C   UNL     1      -2.460  12.620  19.968  0.00  0.00    +0.000 C 
ATOM     17  F   UNL     1      -1.779  13.772  19.707  0.00  0.00    +0.000 F 
ATOM     18  F   UNL     1      -3.715  13.001  20.340  0.00  0.00    +0.000 F 
ATOM     19  F   UNL     1      -1.883  12.126  21.104  0.00  0.00    +0.000 F 
ENDBRANCH  15  16
ENDBRANCH   8  10
ENDBRANCH   6   8
BRANCH   1  20
ATOM     20  O   UNL     1       2.265   6.682  18.489  0.00  0.00    +0.000 OA
BRANCH  20  27
ATOM     21  C   UNL     1       2.621   3.436  19.822  0.00  0.00    +0.000 C 
ATOM     22  C   UNL     1       3.444   2.344  19.094  0.00  0.00    +0.000 C 
ATOM     23  C   UNL     1       4.002   2.884  17.765  0.00  0.00    +0.000 C 
ATOM     24  C   UNL     1       4.921   4.081  18.052  0.00  0.00    +0.000 C 
ATOM     25  C   UNL     1       4.123   5.186  18.747  0.00  0.00    +0.000 C 
ATOM     26  C   UNL     1       3.551   4.648  20.075  0.00  0.00    +0.000 C 
ATOM     27  C   UNL     1       2.969   5.632  17.823  0.00  0.00    +0.000 C 
ATOM     28  C   UNL     1       2.024   4.440  17.573  0.00  0.00    +0.000 C 
ATOM     29  C   UNL     1       2.829   3.330  16.872  0.00  0.00    +0.000 C 
ATOM     30  C   UNL     1       1.467   3.893  18.901  0.00  0.00    +0.000 C 
BRANCH  21  32
ATOM     31  N   UNL     1       0.709   2.876  21.274  0.00  0.00    +0.000 N 
ATOM     32  C   UNL     1       2.066   2.914  21.152  0.00  0.00    +0.000 C 
ATOM     33  O   UNL     1       2.767   2.568  22.098  0.00  0.00    +0.000 OA
ATOM     34  H   UNL     1       0.334   2.505  22.137  0.00  0.00    +0.000 HD
ATOM     35  H   UNL     1       0.073   3.045  20.508  0.00  0.00    +0.000 HD
ENDBRANCH  21  32
ENDBRANCH  20  27
ENDBRANCH   1  20
TORSDOF 6
ENDMDL
MODEL 5
REMARK VINA RESULT:      -8.5      1.500      2.313
REMARK  Name = 
REMARK  6 active torsions:
REMARK  status: ('A' for Active; 'I' for Inactive)
REMARK    1  A    between atoms: C_2  and  C_4
REMARK    2  A    between atoms: C_10  and  O_11
REMARK    3  A    between atoms: O_11  and  C_12
REMARK    4  A    between atoms: C_17  and  N_18
REMARK    5  A    between atoms: N_18  and  C_19
REMARK    6  A    between atoms: C_24  and  C_25
REMARK                            x       y       z     vdW  Elec       q    Type
REMARK                         _______ _______ _______ _____ _____    ______ ____
ROOT
ATOM      1  C   UNL     1       3.053   7.330  18.388  0.00  0.00    +0.000 C 
ATOM      2  O   UNL     1       3.708   7.428  17.361  0.00  0.00    +0.000 OA
ATOM      3  N   UNL     1       2.250   8.306  18.887  0.00  0.00    +0.000 N 
ATOM      4  C   UNL     1       1.631   8.336  20.193  0.00  0.00    +0.000 C 
ATOM      5  C   UNL     1       0.410   9.195  19.942  0.00  0.00    +0.000 C 
ATOM      6  C   UNL     1       0.930  10.274  18.972  0.00  0.00    +0.000 C 
ATOM      7  C   UNL     1       2.077   9.573  18.213  0.00  0.00    +0.000 C 
ENDROOT
BRANCH   6   8
ATOM      8  N   UNL     1      -0.164  10.708  18.099  0.00  0.00    +0.000 N 
ATOM      9  H   UNL     1       0.178  11.236  17.296  0.00  0.00    +0.000 HD
BRANCH   8  10
ATOM     10  C   UNL     1      -1.212  11.384  18.731  0.00  0.00    +0.000 A 
ATOM     11  N   UNL     1      -0.932  12.050  19.876  0.00  0.00    +0.000 NA
ATOM     12  C   UNL     1      -1.926  12.690  20.526  0.00  0.00    +0.000 A 
ATOM     13  C   UNL     1      -3.235  12.684  20.102  0.00  0.00    +0.000 A 
ATOM     14  C   UNL     1      -3.528  11.988  18.937  0.00  0.00    +0.000 A 
ATOM     15  C   UNL     1      -2.509  11.328  18.225  0.00  0.00    +0.000 A 
BRANCH  15  16
ATOM     16  C   UNL     1      -2.871  10.599  16.968  0.00  0.00    +0.000 C 
ATOM     17  F   UNL     1      -4.202  10.526  16.684  0.00  0.00    +0.000 F 
ATOM     18  F   UNL     1      -2.279  11.137  15.864  0.00  0.00    +0.000 F 
ATOM     19  F   UNL     1      -2.452   9.299  17.002  0.00  0.00    +0.000 F 
ENDBRANCH  15  16
ENDBRANCH   8  10
ENDBRANCH   6   8
BRANCH   1  20
ATOM     20  O   UNL     1       3.068   6.239  19.206  0.00  0.00    +0.000 OA
BRANCH  20  27
ATOM     21  C   UNL     1       3.127   2.717  19.400  0.00  0.00    +0.000 C 
ATOM     22  C   UNL     1       1.837   1.874  19.249  0.00  0.00    +0.000 C 
ATOM     23  C   UNL     1       0.613   2.787  19.053  0.00  0.00    +0.000 C 
ATOM     24  C   UNL     1       0.804   3.621  17.778  0.00  0.00    +0.000 C 
ATOM     25  C   UNL     1       2.060   4.486  17.914  0.00  0.00    +0.000 C 
ATOM     26  C   UNL     1       3.289   3.578  18.122  0.00  0.00    +0.000 C 
ATOM     27  C   UNL     1       1.894   5.427  19.126  0.00  0.00    +0.000 C 
ATOM     28  C   UNL     1       1.746   4.587  20.411  0.00  0.00    +0.000 C 
ATOM     29  C   UNL     1       0.482   3.719  20.272  0.00  0.00    +0.000 C 
ATOM     30  C   UNL     1       2.967   3.668  20.608  0.00  0.00    +0.000 C 
BRANCH  21  32
ATOM     31  N   UNL     1       4.456   0.744  18.757  0.00  0.00    +0.000 N 
ATOM     32  C   UNL     1       4.355   1.820  19.587  0.00  0.00    +0.000 C 
ATOM     33  O   UNL     1       5.213   2.004  20.446  0.00  0.00    +0.000 OA
ATOM     34  H   UNL     1       5.279   0.163  18.854  0.00  0.00    +0.000 HD
ATOM     35  H   UNL     1       3.850   0.589  17.965  0.00  0.00    +0.000 HD
ENDBRANCH  21  32
ENDBRANCH  20  27
ENDBRANCH   1  20
TORSDOF 6
ENDMDL
MODEL 6
REMARK VINA RESULT:      -8.4      4.082      8.956
REMARK  Name = 
REMARK  6 active torsions:
REMARK  status: ('A' for Active; 'I' for Inactive)
REMARK    1  A    between atoms: C_2  and  C_4
REMARK    2  A    between atoms: C_10  and  O_11
REMARK    3  A    between atoms: O_11  and  C_12
REMARK    4  A    between atoms: C_17  and  N_18
REMARK    5  A    between atoms: N_18  and  C_19
REMARK    6  A    between atoms: C_24  and  C_25
REMARK                            x       y       z     vdW  Elec       q    Type
REMARK                         _______ _______ _______ _____ _____    ______ ____
ROOT
ATOM      1  C   UNL     1       2.233   8.577  18.119  0.00  0.00    +0.000 C 
ATOM      2  O   UNL     1       2.440   9.030  17.003  0.00  0.00    +0.000 OA
ATOM      3  N   UNL     1       2.591   7.330  18.523  0.00  0.00    +0.000 N 
ATOM      4  C   UNL     1       2.185   6.664  19.740  0.00  0.00    +0.000 C 
ATOM      5  C   UNL     1       3.338   5.713  19.978  0.00  0.00    +0.000 C 
ATOM      6  C   UNL     1       3.702   5.236  18.559  0.00  0.00    +0.000 C 
ATOM      7  C   UNL     1       3.289   6.413  17.650  0.00  0.00    +0.000 C 
ENDROOT
BRANCH   6   8
ATOM      8  N   UNL     1       5.134   4.932  18.502  0.00  0.00    +0.000 N 
ATOM      9  H   UNL     1       5.685   5.595  19.049  0.00  0.00    +0.000 HD
BRANCH   8  10
ATOM     10  C   UNL     1       5.670   4.776  17.220  0.00  0.00    +0.000 A 
ATOM     11  N   UNL     1       5.226   3.738  16.474  0.00  0.00    +0.000 NA
ATOM     12  C   UNL     1       5.742   3.541  15.243  0.00  0.00    +0.000 A 
ATOM     13  C   UNL     1       6.728   4.332  14.701  0.00  0.00    +0.000 A 
ATOM     14  C   UNL     1       7.198   5.389  15.470  0.00  0.00    +0.000 A 
ATOM     15  C   UNL     1       6.665   5.632  16.750  0.00  0.00    +0.000 A 
BRANCH  15  16
ATOM     16  C   UNL     1       7.195   6.790  17.539  0.00  0.00    +0.000 C 
ATOM     17  F   UNL     1       8.124   7.563  16.909  0.00  0.00    +0.000 F 
ATOM     18  F   UNL     1       6.209   7.639  17.944  0.00  0.00    +0.000 F 
ATOM     19  F   UNL     1       7.808   6.376  18.687  0.00  0.00    +0.000 F 
ENDBRANCH  15  16
ENDBRANCH   8  10
ENDBRANCH   6   8
BRANCH   1  20
ATOM     20  O   UNL     1       1.573   9.245  19.108  0.00  0.00    +0.000 OA
BRANCH  20  27
ATOM     21  C   UNL     1      -0.533  11.142  21.207  0.00  0.00    +0.000 C 
ATOM     22  C   UNL     1      -1.371  12.325  20.662  0.00  0.00    +0.000 C 
ATOM     23  C   UNL     1      -1.105  12.530  19.160  0.00  0.00    +0.000 C 
ATOM     24  C   UNL     1      -1.503  11.257  18.398  0.00  0.00    +0.000 C 
ATOM     25  C   UNL     1      -0.667  10.077  18.900  0.00  0.00    +0.000 C 
ATOM     26  C   UNL     1      -0.921   9.872  20.407  0.00  0.00    +0.000 C 
ATOM     27  C   UNL     1       0.827  10.378  18.657  0.00  0.00    +0.000 C 
ATOM     28  C   UNL     1       1.234  11.631  19.457  0.00  0.00    +0.000 C 
ATOM     29  C   UNL     1       0.394  12.817  18.950  0.00  0.00    +0.000 C 
ATOM     30  C   UNL     1       0.964  11.431  20.961  0.00  0.00    +0.000 C 
BRANCH  21  32
ATOM     31  N   UNL     1      -1.886  11.546  23.228  0.00  0.00    +0.000 N 
ATOM     32  C   UNL     1      -0.795  10.920  22.701  0.00  0.00    +0.000 C 
ATOM     33  O   UNL     1      -0.072  10.249  23.430  0.00  0.00    +0.000 OA
ATOM     34  H   UNL     1      -2.083  11.381  24.206  0.00  0.00    +0.000 HD
ATOM     35  H   UNL     1      -2.580  12.024  22.672  0.00  0.00    +0.000 HD
ENDBRANCH  21  32
ENDBRANCH  20  27
ENDBRANCH   1  20
TORSDOF 6
ENDMDL
MODEL 7
REMARK VINA RESULT:      -8.4      2.700      3.275
REMARK  Name = 
REMARK  6 active torsions:
REMARK  status: ('A' for Active; 'I' for Inactive)
REMARK    1  A    between atoms: C_2  and  C_4
REMARK    2  A    between atoms: C_10  and  O_11
REMARK    3  A    between atoms: O_11  and  C_12
REMARK    4  A    between atoms: C_17  and  N_18
REMARK    5  A    between atoms: N_18  and  C_19
REMARK    6  A    between atoms: C_24  and  C_25
REMARK                            x       y       z     vdW  Elec       q    Type
REMARK                         _______ _______ _______ _____ _____    ______ ____
ROOT
ATOM      1  C   UNL     1       1.849   8.256  18.389  0.00  0.00    +0.000 C 
ATOM      2  O   UNL     1       2.264   8.818  17.386  0.00  0.00    +0.000 OA
ATOM      3  N   UNL     1       1.439   8.895  19.517  0.00  0.00    +0.000 N 
ATOM      4  C   UNL     1       1.151   8.291  20.798  0.00  0.00    +0.000 C 
ATOM      5  C   UNL     1       0.153   9.265  21.387  0.00  0.00    +0.000 C 
ATOM      6  C   UNL     1       0.693  10.638  20.940  0.00  0.00    +0.000 C 
ATOM      7  C   UNL     1       1.436  10.337  19.621  0.00  0.00    +0.000 C 
ENDROOT
BRANCH   6   8
ATOM      8  N   UNL     1      -0.428  11.568  20.776  0.00  0.00    +0.000 N 
ATOM      9  H   UNL     1      -0.656  11.718  19.793  0.00  0.00    +0.000 HD
BRANCH   8  10
ATOM     10  C   UNL     1      -0.308  12.787  21.452  0.00  0.00    +0.000 A 
ATOM     11  N   UNL     1       0.680  13.627  21.065  0.00  0.00    +0.000 NA
ATOM     12  C   UNL     1       0.841  14.798  21.714  0.00  0.00    +0.000 A 
ATOM     13  C   UNL     1       0.064  15.185  22.781  0.00  0.00    +0.000 A 
ATOM     14  C   UNL     1      -0.940  14.318  23.191  0.00  0.00    +0.000 A 
ATOM     15  C   UNL     1      -1.146  13.097  22.521  0.00  0.00    +0.000 A 
BRANCH  15  16
ATOM     16  C   UNL     1      -2.248  12.198  22.992  0.00  0.00    +0.000 C 
ATOM     17  F   UNL     1      -1.870  10.949  23.384  0.00  0.00    +0.000 F 
ATOM     18  F   UNL     1      -2.940  12.729  24.040  0.00  0.00    +0.000 F 
ATOM     19  F   UNL     1      -3.179  11.990  22.014  0.00  0.00    +0.000 F 
ENDBRANCH  15  16
ENDBRANCH   8  10
ENDBRANCH   6   8
BRANCH   1  20
ATOM     20  O   UNL     1       1.778   6.902  18.536  0.00  0.00    +0.000 OA
BRANCH  20  27
ATOM     21  C   UNL     1       2.805   3.821  19.912  0.00  0.00    +0.000 C 
ATOM     22  C   UNL     1       4.113   3.125  19.460  0.00  0.00    +0.000 C 
ATOM     23  C   UNL     1       4.807   3.943  18.357  0.00  0.00    +0.000 C 
ATOM     24  C   UNL     1       5.157   5.335  18.904  0.00  0.00    +0.000 C 
ATOM     25  C   UNL     1       3.876   6.055  19.332  0.00  0.00    +0.000 C 
ATOM     26  C   UNL     1       3.169   5.235  20.431  0.00  0.00    +0.000 C 
ATOM     27  C   UNL     1       2.948   6.201  18.108  0.00  0.00    +0.000 C 
ATOM     28  C   UNL     1       2.562   4.802  17.587  0.00  0.00    +0.000 C 
ATOM     29  C   UNL     1       3.852   4.080  17.156  0.00  0.00    +0.000 C 
ATOM     30  C   UNL     1       1.871   3.978  18.690  0.00  0.00    +0.000 C 
BRANCH  21  32
ATOM     31  N   UNL     1       0.756   2.872  20.902  0.00  0.00    +0.000 N 
ATOM     32  C   UNL     1       2.106   3.021  21.017  0.00  0.00    +0.000 C 
ATOM     33  O   UNL     1       2.686   2.547  21.989  0.00  0.00    +0.000 OA
ATOM     34  H   UNL     1       0.291   2.320  21.611  0.00  0.00    +0.000 HD
ATOM     35  H   UNL     1       0.231   3.142  20.083  0.00  0.00    +0.000 HD
ENDBRANCH  21  32
ENDBRANCH  20  27
ENDBRANCH   1  20
TORSDOF 6
ENDMDL
MODEL 8
REMARK VINA RESULT:      -8.4      1.906      2.387
REMARK  Name = 
REMARK  6 active torsions:
REMARK  status: ('A' for Active; 'I' for Inactive)
REMARK    1  A    between atoms: C_2  and  C_4
REMARK    2  A    between atoms: C_10  and  O_11
REMARK    3  A    between atoms: O_11  and  C_12
REMARK    4  A    between atoms: C_17  and  N_18
REMARK    5  A    between atoms: N_18  and  C_19
REMARK    6  A    between atoms: C_24  and  C_25
REMARK                            x       y       z     vdW  Elec       q    Type
REMARK                         _______ _______ _______ _____ _____    ______ ____
ROOT
ATOM      1  C   UNL     1       2.076   8.111  18.494  0.00  0.00    +0.000 C 
ATOM      2  O   UNL     1       2.459   8.435  17.380  0.00  0.00    +0.000 OA
ATOM      3  N   UNL     1       1.443   8.942  19.363  0.00  0.00    +0.000 N 
ATOM      4  C   UNL     1       1.167   8.688  20.760  0.00  0.00    +0.000 C 
ATOM      5  C   UNL     1      -0.059   9.543  20.998  0.00  0.00    +0.000 C 
ATOM      6  C   UNL     1       0.228  10.811  20.170  0.00  0.00    +0.000 C 
ATOM      7  C   UNL     1       1.135  10.313  19.025  0.00  0.00    +0.000 C 
ENDROOT
BRANCH   6   8
ATOM      8  N   UNL     1      -1.039  11.380  19.701  0.00  0.00    +0.000 N 
ATOM      9  H   UNL     1      -1.034  11.539  18.694  0.00  0.00    +0.000 HD
BRANCH   8  10
ATOM     10  C   UNL     1      -1.482  12.517  20.384  0.00  0.00    +0.000 A 
ATOM     11  N   UNL     1      -2.255  12.332  21.479  0.00  0.00    +0.000 NA
ATOM     12  C   UNL     1      -2.723  13.408  22.146  0.00  0.00    +0.000 A 
ATOM     13  C   UNL     1      -2.478  14.704  21.756  0.00  0.00    +0.000 A 
ATOM     14  C   UNL     1      -1.699  14.897  20.623  0.00  0.00    +0.000 A 
ATOM     15  C   UNL     1      -1.180  13.795  19.918  0.00  0.00    +0.000 A 
BRANCH  15  16
ATOM     16  C   UNL     1      -0.336  14.053  18.708  0.00  0.00    +0.000 C 
ATOM     17  F   UNL     1      -0.651  13.327  17.598  0.00  0.00    +0.000 F 
ATOM     18  F   UNL     1      -0.362  15.360  18.323  0.00  0.00    +0.000 F 
ATOM     19  F   UNL     1       0.980  13.773  18.944  0.00  0.00    +0.000 F 
ENDBRANCH  15  16
ENDBRANCH   8  10
ENDBRANCH   6   8
BRANCH   1  20
ATOM     20  O   UNL     1       2.270   6.878  19.043  0.00  0.00    +0.000 OA
BRANCH  20  27
ATOM     21  C   UNL     1       2.720   3.477  19.864  0.00  0.00    +0.000 C 
ATOM     22  C   UNL     1       3.443   2.499  18.906  0.00  0.00    +0.000 C 
ATOM     23  C   UNL     1       3.861   3.220  17.611  0.00  0.00    +0.000 C 
ATOM     24  C   UNL     1       4.824   4.365  17.959  0.00  0.00    +0.000 C 
ATOM     25  C   UNL     1       4.122   5.362  18.885  0.00  0.00    +0.000 C 
ATOM     26  C   UNL     1       3.691   4.643  20.180  0.00  0.00    +0.000 C 
ATOM     27  C   UNL     1       2.882   5.931  18.164  0.00  0.00    +0.000 C 
ATOM     28  C   UNL     1       1.897   4.786  17.855  0.00  0.00    +0.000 C 
ATOM     29  C   UNL     1       2.605   3.785  16.923  0.00  0.00    +0.000 C 
ATOM     30  C   UNL     1       1.480   4.059  19.148  0.00  0.00    +0.000 C 
BRANCH  21  32
ATOM     31  N   UNL     1       0.972   2.749  21.442  0.00  0.00    +0.000 N 
ATOM     32  C   UNL     1       2.305   2.775  21.162  0.00  0.00    +0.000 C 
ATOM     33  O   UNL     1       3.099   2.274  21.953  0.00  0.00    +0.000 OA
ATOM     34  H   UNL     1       0.687   2.261  22.281  0.00  0.00    +0.000 HD
ATOM     35  H   UNL     1       0.257   3.045  20.793  0.00  0.00    +0.000 HD
ENDBRANCH  21  32
ENDBRANCH  20  27
ENDBRANCH   1  20
TORSDOF 6
ENDMDL
MODEL 9
REMARK VINA RESULT:      -8.4      4.184      9.018
REMARK  Name = 
REMARK  6 active torsions:
REMARK  status: ('A' for Active; 'I' for Inactive)
REMARK    1  A    between atoms: C_2  and  C_4
REMARK    2  A    between atoms: C_10  and  O_11
REMARK    3  A    between atoms: O_11  and  C_12
REMARK    4  A    between atoms: C_17  and  N_18
REMARK    5  A    between atoms: N_18  and  C_19
REMARK    6  A    between atoms: C_24  and  C_25
REMARK                            x       y       z     vdW  Elec       q    Type
REMARK                         _______ _______ _______ _____ _____    ______ ____
ROOT
ATOM      1  C   UNL     1       2.350   8.317  18.245  0.00  0.00    +0.000 C 
ATOM      2  O   UNL     1       2.661   8.718  17.134  0.00  0.00    +0.000 OA
ATOM      3  N   UNL     1       2.533   7.043  18.684  0.00  0.00    +0.000 N 
ATOM      4  C   UNL     1       1.994   6.457  19.891  0.00  0.00    +0.000 C 
ATOM      5  C   UNL     1       3.010   5.377  20.196  0.00  0.00    +0.000 C 
ATOM      6  C   UNL     1       3.375   4.830  18.803  0.00  0.00    +0.000 C 
ATOM      7  C   UNL     1       3.152   6.031  17.858  0.00  0.00    +0.000 C 
ENDROOT
BRANCH   6   8
ATOM      8  N   UNL     1       4.760   4.353  18.817  0.00  0.00    +0.000 N 
ATOM      9  H   UNL     1       5.303   4.783  19.566  0.00  0.00    +0.000 HD
BRANCH   8  10
ATOM     10  C   UNL     1       5.441   4.431  17.598  0.00  0.00    +0.000 A 
ATOM     11  N   UNL     1       4.865   3.855  16.517  0.00  0.00    +0.000 NA
ATOM     12  C   UNL     1       5.508   3.888  15.331  0.00  0.00    +0.000 A 
ATOM     13  C   UNL     1       6.747   4.460  15.158  0.00  0.00    +0.000 A 
ATOM     14  C   UNL     1       7.347   5.038  16.269  0.00  0.00    +0.000 A 
ATOM     15  C   UNL     1       6.693   5.037  17.515  0.00  0.00    +0.000 A 
BRANCH  15  16
ATOM     16  C   UNL     1       7.376   5.681  18.682  0.00  0.00    +0.000 C 
ATOM     17  F   UNL     1       6.625   5.813  19.812  0.00  0.00    +0.000 F 
ATOM     18  F   UNL     1       8.506   5.017  19.057  0.00  0.00    +0.000 F 
ATOM     19  F   UNL     1       7.786   6.951  18.387  0.00  0.00    +0.000 F 
ENDBRANCH  15  16
ENDBRANCH   8  10
ENDBRANCH   6   8
BRANCH   1  20
ATOM     20  O   UNL     1       1.734   9.080  19.192  0.00  0.00    +0.000 OA
BRANCH  20  27
ATOM     21  C   UNL     1      -0.459  11.022  21.157  0.00  0.00    +0.000 C 
ATOM     22  C   UNL     1      -1.346  12.128  20.533  0.00  0.00    +0.000 C 
ATOM     23  C   UNL     1      -1.084  12.241  19.020  0.00  0.00    +0.000 C 
ATOM     24  C   UNL     1      -1.424  10.903  18.347  0.00  0.00    +0.000 C 
ATOM     25  C   UNL     1      -0.540   9.797  18.928  0.00  0.00    +0.000 C 
ATOM     26  C   UNL     1      -0.789   9.686  20.446  0.00  0.00    +0.000 C 
ATOM     27  C   UNL     1       0.940  10.146  18.665  0.00  0.00    +0.000 C 
ATOM     28  C   UNL     1       1.291  11.467  19.378  0.00  0.00    +0.000 C 
ATOM     29  C   UNL     1       0.401  12.578  18.791  0.00  0.00    +0.000 C 
ATOM     30  C   UNL     1       1.025  11.359  20.892  0.00  0.00    +0.000 C 
BRANCH  21  32
ATOM     31  N   UNL     1      -1.771  11.594  23.164  0.00  0.00    +0.000 N 
ATOM     32  C   UNL     1      -0.716  10.892  22.662  0.00  0.00    +0.000 C 
ATOM     33  O   UNL     1      -0.016  10.228  23.421  0.00  0.00    +0.000 OA
ATOM     34  H   UNL     1      -1.966  11.490  24.151  0.00  0.00    +0.000 HD
ATOM     35  H   UNL     1      -2.448  12.074  22.589  0.00  0.00    +0.000 HD
ENDBRANCH  21  32
ENDBRANCH  20  27
ENDBRANCH   1  20
TORSDOF 6
ENDMDL
