MODEL 1
REMARK VINA RESULT:      -7.0      0.000      0.000
REMARK  Name = 
REMARK  2 active torsions:
REMARK  status: ('A' for Active; 'I' for Inactive)
REMARK    1  A    between atoms: C_5  and  O_6
REMARK    2  A    between atoms: C_5  and  C_7
REMARK                            x       y       z     vdW  Elec       q    Type
REMARK                         _______ _______ _______ _____ _____    ______ ____
ROOT
ATOM      1  O   UNL     1       1.505   2.650  22.230  0.00  0.00    +0.000 OA
ATOM      2  C   UNL     1       1.870   2.936  21.098  0.00  0.00    +0.000 C 
ATOM      3  C   UNL     1       3.178   2.479  20.577  0.00  0.00    +0.000 C 
ATOM      4  C   UNL     1       3.540   2.738  19.312  0.00  0.00    +0.000 C 
ATOM      5  C   UNL     1       2.687   3.500  18.320  0.00  0.00    +0.000 C 
ATOM      6  C   UNL     1       1.419   4.020  18.943  0.00  0.00    +0.000 C 
ATOM      7  C   UNL     1       1.032   3.767  20.204  0.00  0.00    +0.000 C 
ENDROOT
BRANCH   5   8
ATOM      8  C   UNL     1       3.488   4.607  17.633  0.00  0.00    +0.000 A 
ATOM      9  C   UNL     1       4.457   4.319  16.654  0.00  0.00    +0.000 A 
ATOM     10  C   UNL     1       5.222   5.334  16.073  0.00  0.00    +0.000 A 
ATOM     11  C   UNL     1       5.022   6.658  16.448  0.00  0.00    +0.000 A 
ATOM     12  C   UNL     1       4.050   6.972  17.394  0.00  0.00    +0.000 A 
ATOM     13  C   UNL     1       3.287   5.958  17.979  0.00  0.00    +0.000 A 
ENDBRANCH   5   8
BRANCH   5  14
ATOM     14  O   UNL     1       2.245   2.544  17.355  0.00  0.00    +0.000 OA
ATOM     15  H   UNL     1       1.808   1.827  17.842  0.00  0.00    +0.000 HD
ENDBRANCH   5  14
TORSDOF 2
ENDMDL
MODEL 2
REMARK VINA RESULT:      -6.9      0.931      1.575
REMARK  Name = 
REMARK  2 active torsions:
REMARK  status: ('A' for Active; 'I' for Inactive)
REMARK    1  A    between atoms: C_5  and  O_6
REMARK    2  A    between atoms: C_5  and  C_7
REMARK                            x       y       z     vdW  Elec       q    Type
REMARK                         _______ _______ _______ _____ _____    ______ ____
ROOT
ATOM      1  O   UNL     1       1.475   2.500  22.025  0.00  0.00    +0.000 OA
ATOM      2  C   UNL     1       1.725   2.990  20.932  0.00  0.00    +0.000 C 
ATOM      3  C   UNL     1       2.235   2.158  19.819  0.00  0.00    +0.000 C 
ATOM      4  C   UNL     1       2.440   2.689  18.605  0.00  0.00    +0.000 C 
ATOM      5  C   UNL     1       2.186   4.139  18.254  0.00  0.00    +0.000 C 
ATOM      6  C   UNL     1       1.766   4.947  19.453  0.00  0.00    +0.000 C 
ATOM      7  C   UNL     1       1.547   4.438  20.676  0.00  0.00    +0.000 C 
ENDROOT
BRANCH   5   8
ATOM      8  C   UNL     1       3.387   4.756  17.536  0.00  0.00    +0.000 A 
ATOM      9  C   UNL     1       3.674   6.131  17.624  0.00  0.00    +0.000 A 
ATOM     10  C   UNL     1       4.740   6.694  16.919  0.00  0.00    +0.000 A 
ATOM     11  C   UNL     1       5.552   5.891  16.124  0.00  0.00    +0.000 A 
ATOM     12  C   UNL     1       5.307   4.523  16.043  0.00  0.00    +0.000 A 
ATOM     13  C   UNL     1       4.237   3.959  16.745  0.00  0.00    +0.000 A 
ENDBRANCH   5   8
BRANCH   5  14
ATOM     14  O   UNL     1       1.044   4.150  17.397  0.00  0.00    +0.000 OA
ATOM     15  H   UNL     1       0.789   5.078  17.273  0.00  0.00    +0.000 HD
ENDBRANCH   5  14
TORSDOF 2
ENDMDL
MODEL 3
REMARK VINA RESULT:      -6.9      2.471      5.024
REMARK  Name = 
REMARK  2 active torsions:
REMARK  status: ('A' for Active; 'I' for Inactive)
REMARK    1  A    between atoms: C_5  and  O_6
REMARK    2  A    between atoms: C_5  and  C_7
REMARK                            x       y       z     vdW  Elec       q    Type
REMARK                         _______ _______ _______ _____ _____    ______ ____
ROOT
ATOM      1  O   UNL     1       8.013   4.369  16.905  0.00  0.00    +0.000 OA
ATOM      2  C   UNL     1       6.864   4.614  17.248  0.00  0.00    +0.000 C 
ATOM      3  C   UNL     1       6.561   5.108  18.611  0.00  0.00    +0.000 C 
ATOM      4  C   UNL     1       5.309   5.440  18.957  0.00  0.00    +0.000 C 
ATOM      5  C   UNL     1       4.115   5.346  18.031  0.00  0.00    +0.000 C 
ATOM      6  C   UNL     1       4.476   4.744  16.699  0.00  0.00    +0.000 C 
ATOM      7  C   UNL     1       5.723   4.411  16.327  0.00  0.00    +0.000 C 
ENDROOT
BRANCH   5   8
ATOM      8  C   UNL     1       2.951   4.612  18.698  0.00  0.00    +0.000 A 
ATOM      9  C   UNL     1       2.562   4.893  20.022  0.00  0.00    +0.000 A 
ATOM     10  C   UNL     1       1.533   4.178  20.640  0.00  0.00    +0.000 A 
ATOM     11  C   UNL     1       0.862   3.179  19.943  0.00  0.00    +0.000 A 
ATOM     12  C   UNL     1       1.209   2.901  18.623  0.00  0.00    +0.000 A 
ATOM     13  C   UNL     1       2.241   3.612  18.004  0.00  0.00    +0.000 A 
ENDBRANCH   5   8
BRANCH   5  14
ATOM     14  O   UNL     1       3.738   6.689  17.726  0.00  0.00    +0.000 OA
ATOM     15  H   UNL     1       2.825   6.662  17.398  0.00  0.00    +0.000 HD
ENDBRANCH   5  14
TORSDOF 2
ENDMDL
MODEL 4
REMARK VINA RESULT:      -6.9      2.447      4.891
REMARK  Name = 
REMARK  2 active torsions:
REMARK  status: ('A' for Active; 'I' for Inactive)
REMARK    1  A    between atoms: C_5  and  O_6
REMARK    2  A    between atoms: C_5  and  C_7
REMARK                            x       y       z     vdW  Elec       q    Type
REMARK                         _______ _______ _______ _____ _____    ______ ____
ROOT
ATOM      1  O   UNL     1       7.915   4.398  16.819  0.00  0.00    +0.000 OA
ATOM      2  C   UNL     1       6.773   4.615  17.202  0.00  0.00    +0.000 C 
ATOM      3  C   UNL     1       6.501   5.051  18.591  0.00  0.00    +0.000 C 
ATOM      4  C   UNL     1       5.254   5.353  18.982  0.00  0.00    +0.000 C 
ATOM      5  C   UNL     1       4.038   5.281  18.084  0.00  0.00    +0.000 C 
ATOM      6  C   UNL     1       4.370   4.737  16.720  0.00  0.00    +0.000 C 
ATOM      7  C   UNL     1       5.610   4.435  16.303  0.00  0.00    +0.000 C 
ENDROOT
BRANCH   5   8
ATOM      8  C   UNL     1       2.899   4.508  18.751  0.00  0.00    +0.000 A 
ATOM      9  C   UNL     1       2.311   3.385  18.139  0.00  0.00    +0.000 A 
ATOM     10  C   UNL     1       1.235   2.720  18.731  0.00  0.00    +0.000 A 
ATOM     11  C   UNL     1       0.735   3.153  19.954  0.00  0.00    +0.000 A 
ATOM     12  C   UNL     1       1.318   4.243  20.594  0.00  0.00    +0.000 A 
ATOM     13  C   UNL     1       2.393   4.913  20.002  0.00  0.00    +0.000 A 
ENDBRANCH   5   8
BRANCH   5  14
ATOM     14  O   UNL     1       3.637   6.631  17.843  0.00  0.00    +0.000 OA
ATOM     15  H   UNL     1       3.610   7.079  18.703  0.00  0.00    +0.000 HD
ENDBRANCH   5  14
TORSDOF 2
ENDMDL
MODEL 5
REMARK VINA RESULT:      -6.8      2.172      5.002
REMARK  Name = 
REMARK  2 active torsions:
REMARK  status: ('A' for Active; 'I' for Inactive)
REMARK    1  A    between atoms: C_5  and  O_6
REMARK    2  A    between atoms: C_5  and  C_7
REMARK                            x       y       z     vdW  Elec       q    Type
REMARK                         _______ _______ _______ _____ _____    ______ ____
ROOT
ATOM      1  O   UNL     1       5.960   6.680  15.681  0.00  0.00    +0.000 OA
ATOM      2  C   UNL     1       5.493   5.904  16.503  0.00  0.00    +0.000 C 
ATOM      3  C   UNL     1       4.972   4.579  16.095  0.00  0.00    +0.000 C 
ATOM      4  C   UNL     1       4.527   3.706  17.011  0.00  0.00    +0.000 C 
ATOM      5  C   UNL     1       4.505   3.971  18.501  0.00  0.00    +0.000 C 
ATOM      6  C   UNL     1       4.953   5.369  18.836  0.00  0.00    +0.000 C 
ATOM      7  C   UNL     1       5.410   6.257  17.939  0.00  0.00    +0.000 C 
ENDROOT
BRANCH   5   8
ATOM      8  C   UNL     1       3.137   3.644  19.104  0.00  0.00    +0.000 A 
ATOM      9  C   UNL     1       2.219   2.809  18.441  0.00  0.00    +0.000 A 
ATOM     10  C   UNL     1       0.951   2.562  18.975  0.00  0.00    +0.000 A 
ATOM     11  C   UNL     1       0.582   3.133  20.188  0.00  0.00    +0.000 A 
ATOM     12  C   UNL     1       1.483   3.940  20.877  0.00  0.00    +0.000 A 
ATOM     13  C   UNL     1       2.751   4.192  20.343  0.00  0.00    +0.000 A 
ENDBRANCH   5   8
BRANCH   5  14
ATOM     14  O   UNL     1       5.506   3.127  19.073  0.00  0.00    +0.000 OA
ATOM     15  H   UNL     1       5.147   2.226  19.087  0.00  0.00    +0.000 HD
ENDBRANCH   5  14
TORSDOF 2
ENDMDL
MODEL 6
REMARK VINA RESULT:      -6.7      2.095      5.162
REMARK  Name = 
REMARK  2 active torsions:
REMARK  status: ('A' for Active; 'I' for Inactive)
REMARK    1  A    between atoms: C_5  and  O_6
REMARK    2  A    between atoms: C_5  and  C_7
REMARK                            x       y       z     vdW  Elec       q    Type
REMARK                         _______ _______ _______ _____ _____    ______ ____
ROOT
ATOM      1  O   UNL     1       5.657   6.471  15.067  0.00  0.00    +0.000 OA
ATOM      2  C   UNL     1       5.293   5.820  16.037  0.00  0.00    +0.000 C 
ATOM      3  C   UNL     1       4.991   4.375  15.920  0.00  0.00    +0.000 C 
ATOM      4  C   UNL     1       4.659   3.655  17.001  0.00  0.00    +0.000 C 
ATOM      5  C   UNL     1       4.557   4.218  18.402  0.00  0.00    +0.000 C 
ATOM      6  C   UNL     1       4.777   5.707  18.433  0.00  0.00    +0.000 C 
ATOM      7  C   UNL     1       5.118   6.448  17.367  0.00  0.00    +0.000 C 
ENDROOT
BRANCH   5   8
ATOM      8  C   UNL     1       3.240   3.816  19.068  0.00  0.00    +0.000 A 
ATOM      9  C   UNL     1       3.037   3.966  20.453  0.00  0.00    +0.000 A 
ATOM     10  C   UNL     1       1.851   3.545  21.060  0.00  0.00    +0.000 A 
ATOM     11  C   UNL     1       0.838   2.980  20.292  0.00  0.00    +0.000 A 
ATOM     12  C   UNL     1       1.003   2.846  18.916  0.00  0.00    +0.000 A 
ATOM     13  C   UNL     1       2.191   3.264  18.308  0.00  0.00    +0.000 A 
ENDBRANCH   5   8
BRANCH   5  14
ATOM     14  O   UNL     1       5.660   3.678  19.133  0.00  0.00    +0.000 OA
ATOM     15  H   UNL     1       5.396   3.645  20.066  0.00  0.00    +0.000 HD
ENDBRANCH   5  14
TORSDOF 2
ENDMDL
MODEL 7
REMARK VINA RESULT:      -6.7      1.927      2.466
REMARK  Name = 
REMARK  2 active torsions:
REMARK  status: ('A' for Active; 'I' for Inactive)
REMARK    1  A    between atoms: C_5  and  O_6
REMARK    2  A    between atoms: C_5  and  C_7
REMARK                            x       y       z     vdW  Elec       q    Type
REMARK                         _______ _______ _______ _____ _____    ______ ____
ROOT
ATOM      1  O   UNL     1       0.274   2.245  18.746  0.00  0.00    +0.000 OA
ATOM      2  C   UNL     1       1.422   2.665  18.750  0.00  0.00    +0.000 C 
ATOM      3  C   UNL     1       1.871   3.657  19.754  0.00  0.00    +0.000 C 
ATOM      4  C   UNL     1       3.150   4.060  19.795  0.00  0.00    +0.000 C 
ATOM      5  C   UNL     1       4.229   3.569  18.854  0.00  0.00    +0.000 C 
ATOM      6  C   UNL     1       3.684   2.643  17.799  0.00  0.00    +0.000 C 
ATOM      7  C   UNL     1       2.412   2.219  17.742  0.00  0.00    +0.000 C 
ENDROOT
BRANCH   5   8
ATOM      8  C   UNL     1       5.012   4.735  18.248  0.00  0.00    +0.000 A 
ATOM      9  C   UNL     1       6.329   5.028  18.648  0.00  0.00    +0.000 A 
ATOM     10  C   UNL     1       7.015   6.128  18.129  0.00  0.00    +0.000 A 
ATOM     11  C   UNL     1       6.403   6.951  17.189  0.00  0.00    +0.000 A 
ATOM     12  C   UNL     1       5.111   6.667  16.756  0.00  0.00    +0.000 A 
ATOM     13  C   UNL     1       4.421   5.568  17.277  0.00  0.00    +0.000 A 
ENDBRANCH   5   8
BRANCH   5  14
ATOM     14  O   UNL     1       5.099   2.749  19.636  0.00  0.00    +0.000 OA
ATOM     15  H   UNL     1       5.452   3.305  20.348  0.00  0.00    +0.000 HD
ENDBRANCH   5  14
TORSDOF 2
ENDMDL
MODEL 8
REMARK VINA RESULT:      -6.7      1.955      2.633
REMARK  Name = 
REMARK  2 active torsions:
REMARK  status: ('A' for Active; 'I' for Inactive)
REMARK    1  A    between atoms: C_5  and  O_6
REMARK    2  A    between atoms: C_5  and  C_7
REMARK                            x       y       z     vdW  Elec       q    Type
REMARK                         _______ _______ _______ _____ _____    ______ ____
ROOT
ATOM      1  O   UNL     1       0.278   2.311  18.516  0.00  0.00    +0.000 OA
ATOM      2  C   UNL     1       1.424   2.731  18.594  0.00  0.00    +0.000 C 
ATOM      3  C   UNL     1       1.814   3.706  19.638  0.00  0.00    +0.000 C 
ATOM      4  C   UNL     1       3.088   4.107  19.760  0.00  0.00    +0.000 C 
ATOM      5  C   UNL     1       4.220   3.631  18.876  0.00  0.00    +0.000 C 
ATOM      6  C   UNL     1       3.738   2.722  17.777  0.00  0.00    +0.000 C 
ATOM      7  C   UNL     1       2.471   2.300  17.639  0.00  0.00    +0.000 C 
ENDROOT
BRANCH   5   8
ATOM      8  C   UNL     1       5.036   4.806  18.336  0.00  0.00    +0.000 A 
ATOM      9  C   UNL     1       4.498   5.712  17.402  0.00  0.00    +0.000 A 
ATOM     10  C   UNL     1       5.270   6.749  16.873  0.00  0.00    +0.000 A 
ATOM     11  C   UNL     1       6.591   6.911  17.277  0.00  0.00    +0.000 A 
ATOM     12  C   UNL     1       7.138   6.045  18.220  0.00  0.00    +0.000 A 
ATOM     13  C   UNL     1       6.368   5.004  18.748  0.00  0.00    +0.000 A 
ENDBRANCH   5   8
BRANCH   5  14
ATOM     14  O   UNL     1       5.043   2.798  19.694  0.00  0.00    +0.000 OA
ATOM     15  H   UNL     1       4.751   1.883  19.555  0.00  0.00    +0.000 HD
ENDBRANCH   5  14
TORSDOF 2
ENDMDL
MODEL 9
REMARK VINA RESULT:      -6.7      2.575      5.112
REMARK  Name = 
REMARK  2 active torsions:
REMARK  status: ('A' for Active; 'I' for Inactive)
REMARK    1  A    between atoms: C_5  and  O_6
REMARK    2  A    between atoms: C_5  and  C_7
REMARK                            x       y       z     vdW  Elec       q    Type
REMARK                         _______ _______ _______ _____ _____    ______ ____
ROOT
ATOM      1  O   UNL     1       7.541   5.275  15.210  0.00  0.00    +0.000 OA
ATOM      2  C   UNL     1       6.798   5.020  16.148  0.00  0.00    +0.000 C 
ATOM      3  C   UNL     1       5.528   4.287  15.942  0.00  0.00    +0.000 C 
ATOM      4  C   UNL     1       4.754   3.951  16.985  0.00  0.00    +0.000 C 
ATOM      5  C   UNL     1       5.079   4.275  18.427  0.00  0.00    +0.000 C 
ATOM      6  C   UNL     1       6.328   5.105  18.555  0.00  0.00    +0.000 C 
ATOM      7  C   UNL     1       7.123   5.447  17.528  0.00  0.00    +0.000 C 
ENDROOT
BRANCH   5   8
ATOM      8  C   UNL     1       3.885   4.918  19.135  0.00  0.00    +0.000 A 
ATOM      9  C   UNL     1       3.476   6.233  18.847  0.00  0.00    +0.000 A 
ATOM     10  C   UNL     1       2.420   6.830  19.539  0.00  0.00    +0.000 A 
ATOM     11  C   UNL     1       1.741   6.119  20.523  0.00  0.00    +0.000 A 
ATOM     12  C   UNL     1       2.108   4.806  20.807  0.00  0.00    +0.000 A 
ATOM     13  C   UNL     1       3.167   4.209  20.118  0.00  0.00    +0.000 A 
ENDBRANCH   5   8
BRANCH   5  14
ATOM     14  O   UNL     1       5.409   3.033  19.052  0.00  0.00    +0.000 OA
ATOM     15  H   UNL     1       6.026   3.232  19.773  0.00  0.00    +0.000 HD
ENDBRANCH   5  14
TORSDOF 2
ENDMDL
