MODEL 1
REMARK VINA RESULT:      -7.8      0.000      0.000
REMARK  Name = 
REMARK  7 active torsions:
REMARK  status: ('A' for Active; 'I' for Inactive)
REMARK    1  A    between atoms: C_1  and  O_2
REMARK    2  A    between atoms: O_2  and  C_3
REMARK    3  A    between atoms: C_6  and  C_7
REMARK    4  A    between atoms: C_9  and  N_10
REMARK    5  A    between atoms: N_13  and  C_14
REMARK    6  A    between atoms: C_18  and  C_19
REMARK    7  A    between atoms: C_19  and  O_21
REMARK                            x       y       z     vdW  Elec       q    Type
REMARK                         _______ _______ _______ _____ _____    ______ ____
ROOT
ATOM      1  N   UNL     1       5.211   4.398  18.405  0.00  0.00    +0.000 N 
ATOM      2  C   UNL     1       5.209   4.552  17.024  0.00  0.00    +0.000 C 
ATOM      3  O   UNL     1       4.280   5.025  16.371  0.00  0.00    +0.000 OA
ATOM      4  N   UNL     1       6.370   4.067  16.430  0.00  0.00    +0.000 N 
ATOM      5  H   UNL     1       6.098   4.519  18.885  0.00  0.00    +0.000 HD
ATOM      6  H   UNL     1       6.753   3.252  16.886  0.00  0.00    +0.000 HD
ENDROOT
BRANCH   1  13
ATOM      7  C   UNL     1       3.469   3.416  19.846  0.00  0.00    +0.000 A 
ATOM      8  C   UNL     1       2.347   3.595  20.674  0.00  0.00    +0.000 A 
ATOM      9  C   UNL     1       1.787   4.856  20.866  0.00  0.00    +0.000 A 
ATOM     10  C   UNL     1       2.334   5.970  20.230  0.00  0.00    +0.000 A 
ATOM     11  C   UNL     1       1.757   7.337  20.423  0.00  0.00    +0.000 C 
ATOM     12  C   UNL     1       3.459   5.801  19.407  0.00  0.00    +0.000 A 
ATOM     13  C   UNL     1       4.055   4.541  19.228  0.00  0.00    +0.000 A 
BRANCH   7  15
ATOM     14  C   UNL     1       3.526   1.448  18.516  0.00  0.00    +0.000 C 
ATOM     15  O   UNL     1       4.053   2.189  19.621  0.00  0.00    +0.000 OA
ENDBRANCH   7  15
ENDBRANCH   1  13
BRANCH   4  16
ATOM     16  C   UNL     1       6.576   4.176  15.028  0.00  0.00    +0.000 A 
ATOM     17  C   UNL     1       7.486   5.119  14.539  0.00  0.00    +0.000 A 
ATOM     18  C   UNL     1       7.726   5.219  13.161  0.00  0.00    +0.000 A 
ATOM     19  C   UNL     1       7.027   4.408  12.266  0.00  0.00    +0.000 A 
ATOM     20  C   UNL     1       6.100   3.479  12.747  0.00  0.00    +0.000 A 
ATOM     21  C   UNL     1       5.874   3.366  14.127  0.00  0.00    +0.000 A 
BRANCH  20  22
ATOM     22  C   UNL     1       5.339   2.682  11.755  0.00  0.00    +0.000 C 
ATOM     23  O   UNL     1       4.308   3.082  11.242  0.00  0.00    +0.000 OA
BRANCH  22  24
ATOM     24  O   UNL     1       5.904   1.495  11.444  0.00  0.00    +0.000 OA
ATOM     25  H   UNL     1       5.413   0.708  11.758  0.00  0.00    +0.000 HD
ENDBRANCH  22  24
ENDBRANCH  20  22
ENDBRANCH   4  16
TORSDOF 5
ENDMDL
MODEL 2
REMARK VINA RESULT:      -7.3      1.258      2.376
REMARK  Name = 
REMARK  7 active torsions:
REMARK  status: ('A' for Active; 'I' for Inactive)
REMARK    1  A    between atoms: C_1  and  O_2
REMARK    2  A    between atoms: O_2  and  C_3
REMARK    3  A    between atoms: C_6  and  C_7
REMARK    4  A    between atoms: C_9  and  N_10
REMARK    5  A    between atoms: N_13  and  C_14
REMARK    6  A    between atoms: C_18  and  C_19
REMARK    7  A    between atoms: C_19  and  O_21
REMARK                            x       y       z     vdW  Elec       q    Type
REMARK                         _______ _______ _______ _____ _____    ______ ____
ROOT
ATOM      1  N   UNL     1       5.344   5.057  18.084  0.00  0.00    +0.000 N 
ATOM      2  C   UNL     1       5.307   4.927  16.701  0.00  0.00    +0.000 C 
ATOM      3  O   UNL     1       4.288   5.000  16.016  0.00  0.00    +0.000 OA
ATOM      4  N   UNL     1       6.558   4.657  16.156  0.00  0.00    +0.000 N 
ATOM      5  H   UNL     1       6.164   5.500  18.488  0.00  0.00    +0.000 HD
ATOM      6  H   UNL     1       7.143   4.078  16.741  0.00  0.00    +0.000 HD
ENDROOT
BRANCH   1  13
ATOM      7  C   UNL     1       3.354   6.186  19.001  0.00  0.00    +0.000 A 
ATOM      8  C   UNL     1       2.206   6.137  19.813  0.00  0.00    +0.000 A 
ATOM      9  C   UNL     1       1.900   5.002  20.560  0.00  0.00    +0.000 A 
ATOM     10  C   UNL     1       2.737   3.889  20.519  0.00  0.00    +0.000 A 
ATOM     11  C   UNL     1       2.430   2.654  21.306  0.00  0.00    +0.000 C 
ATOM     12  C   UNL     1       3.882   3.926  19.705  0.00  0.00    +0.000 A 
ATOM     13  C   UNL     1       4.188   5.051  18.920  0.00  0.00    +0.000 A 
BRANCH   7  15
ATOM     14  C   UNL     1       2.620   8.148  17.881  0.00  0.00    +0.000 C 
ATOM     15  O   UNL     1       3.701   7.287  18.249  0.00  0.00    +0.000 OA
ENDBRANCH   7  15
ENDBRANCH   1  13
BRANCH   4  16
ATOM     16  C   UNL     1       6.734   4.536  14.751  0.00  0.00    +0.000 A 
ATOM     17  C   UNL     1       7.660   5.357  14.101  0.00  0.00    +0.000 A 
ATOM     18  C   UNL     1       7.870   5.230  12.721  0.00  0.00    +0.000 A 
ATOM     19  C   UNL     1       7.125   4.312  11.979  0.00  0.00    +0.000 A 
ATOM     20  C   UNL     1       6.181   3.503  12.619  0.00  0.00    +0.000 A 
ATOM     21  C   UNL     1       5.985   3.617  14.004  0.00  0.00    +0.000 A 
BRANCH  20  22
ATOM     22  C   UNL     1       5.373   2.586  11.781  0.00  0.00    +0.000 C 
ATOM     23  O   UNL     1       4.289   2.900  11.320  0.00  0.00    +0.000 OA
BRANCH  22  24
ATOM     24  O   UNL     1       5.956   1.391  11.543  0.00  0.00    +0.000 OA
ATOM     25  H   UNL     1       6.843   1.276  11.941  0.00  0.00    +0.000 HD
ENDBRANCH  22  24
ENDBRANCH  20  22
ENDBRANCH   4  16
TORSDOF 5
ENDMDL
MODEL 3
REMARK VINA RESULT:      -7.1      3.467      8.468
REMARK  Name = 
REMARK  7 active torsions:
REMARK  status: ('A' for Active; 'I' for Inactive)
REMARK    1  A    between atoms: C_1  and  O_2
REMARK    2  A    between atoms: O_2  and  C_3
REMARK    3  A    between atoms: C_6  and  C_7
REMARK    4  A    between atoms: C_9  and  N_10
REMARK    5  A    between atoms: N_13  and  C_14
REMARK    6  A    between atoms: C_18  and  C_19
REMARK    7  A    between atoms: C_19  and  O_21
REMARK                            x       y       z     vdW  Elec       q    Type
REMARK                         _______ _______ _______ _____ _____    ______ ____
ROOT
ATOM      1  N   UNL     1       3.881   5.179  17.945  0.00  0.00    +0.000 N 
ATOM      2  C   UNL     1       3.408   6.455  18.226  0.00  0.00    +0.000 C 
ATOM      3  O   UNL     1       3.769   7.480  17.650  0.00  0.00    +0.000 OA
ATOM      4  N   UNL     1       2.496   6.469  19.276  0.00  0.00    +0.000 N 
ATOM      5  H   UNL     1       3.225   4.409  18.038  0.00  0.00    +0.000 HD
ATOM      6  H   UNL     1       2.694   5.790  19.998  0.00  0.00    +0.000 HD
ENDROOT
BRANCH   1  13
ATOM      7  C   UNL     1       6.321   4.993  17.654  0.00  0.00    +0.000 A 
ATOM      8  C   UNL     1       7.418   4.692  16.826  0.00  0.00    +0.000 A 
ATOM      9  C   UNL     1       7.237   4.347  15.489  0.00  0.00    +0.000 A 
ATOM     10  C   UNL     1       5.955   4.298  14.944  0.00  0.00    +0.000 A 
ATOM     11  C   UNL     1       5.731   3.923  13.513  0.00  0.00    +0.000 C 
ATOM     12  C   UNL     1       4.853   4.590  15.766  0.00  0.00    +0.000 A 
ATOM     13  C   UNL     1       5.016   4.909  17.125  0.00  0.00    +0.000 A 
BRANCH   7  15
ATOM     14  C   UNL     1       7.763   5.741  19.387  0.00  0.00    +0.000 C 
ATOM     15  O   UNL     1       6.450   5.345  18.979  0.00  0.00    +0.000 OA
ENDBRANCH   7  15
ENDBRANCH   1  13
BRANCH   4  16
ATOM     16  C   UNL     1       1.865   7.674  19.683  0.00  0.00    +0.000 A 
ATOM     17  C   UNL     1       1.699   8.710  18.758  0.00  0.00    +0.000 A 
ATOM     18  C   UNL     1       1.050   9.894  19.132  0.00  0.00    +0.000 A 
ATOM     19  C   UNL     1       0.602  10.065  20.443  0.00  0.00    +0.000 A 
ATOM     20  C   UNL     1       0.784   9.043  21.380  0.00  0.00    +0.000 A 
ATOM     21  C   UNL     1       1.417   7.850  20.999  0.00  0.00    +0.000 A 
BRANCH  20  22
ATOM     22  C   UNL     1       0.346   9.294  22.773  0.00  0.00    +0.000 C 
ATOM     23  O   UNL     1       1.112   9.663  23.647  0.00  0.00    +0.000 OA
BRANCH  22  24
ATOM     24  O   UNL     1      -0.976   9.113  22.981  0.00  0.00    +0.000 OA
ATOM     25  H   UNL     1      -1.469   8.746  22.219  0.00  0.00    +0.000 HD
ENDBRANCH  22  24
ENDBRANCH  20  22
ENDBRANCH   4  16
TORSDOF 5
ENDMDL
MODEL 4
REMARK VINA RESULT:      -7.1      6.315      8.263
REMARK  Name = 
REMARK  7 active torsions:
REMARK  status: ('A' for Active; 'I' for Inactive)
REMARK    1  A    between atoms: C_1  and  O_2
REMARK    2  A    between atoms: O_2  and  C_3
REMARK    3  A    between atoms: C_6  and  C_7
REMARK    4  A    between atoms: C_9  and  N_10
REMARK    5  A    between atoms: N_13  and  C_14
REMARK    6  A    between atoms: C_18  and  C_19
REMARK    7  A    between atoms: C_19  and  O_21
REMARK                            x       y       z     vdW  Elec       q    Type
REMARK                         _______ _______ _______ _____ _____    ______ ____
ROOT
ATOM      1  N   UNL     1       6.935   7.788  16.913  0.00  0.00    +0.000 N 
ATOM      2  C   UNL     1       7.882   8.329  17.774  0.00  0.00    +0.000 C 
ATOM      3  O   UNL     1       8.478   7.700  18.646  0.00  0.00    +0.000 OA
ATOM      4  N   UNL     1       8.064   9.695  17.579  0.00  0.00    +0.000 N 
ATOM      5  H   UNL     1       6.899   8.161  15.969  0.00  0.00    +0.000 HD
ATOM      6  H   UNL     1       7.221  10.186  17.319  0.00  0.00    +0.000 HD
ENDROOT
BRANCH   1  13
ATOM      7  C   UNL     1       6.719   5.429  16.232  0.00  0.00    +0.000 A 
ATOM      8  C   UNL     1       6.144   4.162  16.437  0.00  0.00    +0.000 A 
ATOM      9  C   UNL     1       5.194   3.956  17.435  0.00  0.00    +0.000 A 
ATOM     10  C   UNL     1       4.792   5.012  18.250  0.00  0.00    +0.000 A 
ATOM     11  C   UNL     1       3.779   4.818  19.334  0.00  0.00    +0.000 C 
ATOM     12  C   UNL     1       5.367   6.280  18.057  0.00  0.00    +0.000 A 
ATOM     13  C   UNL     1       6.350   6.498  17.076  0.00  0.00    +0.000 A 
BRANCH   7  15
ATOM     14  C   UNL     1       7.351   5.166  13.957  0.00  0.00    +0.000 C 
ATOM     15  O   UNL     1       7.657   5.684  15.255  0.00  0.00    +0.000 OA
ENDBRANCH   7  15
ENDBRANCH   1  13
BRANCH   4  16
ATOM     16  C   UNL     1       9.025  10.420  18.333  0.00  0.00    +0.000 A 
ATOM     17  C   UNL     1       9.121  10.207  19.712  0.00  0.00    +0.000 A 
ATOM     18  C   UNL     1      10.085  10.891  20.466  0.00  0.00    +0.000 A 
ATOM     19  C   UNL     1      10.926  11.820  19.853  0.00  0.00    +0.000 A 
ATOM     20  C   UNL     1      10.822  12.055  18.479  0.00  0.00    +0.000 A 
ATOM     21  C   UNL     1       9.869  11.356  17.721  0.00  0.00    +0.000 A 
BRANCH  20  22
ATOM     22  C   UNL     1      11.696  13.093  17.884  0.00  0.00    +0.000 C 
ATOM     23  O   UNL     1      12.325  12.912  16.855  0.00  0.00    +0.000 OA
BRANCH  22  24
ATOM     24  O   UNL     1      11.708  14.263  18.559  0.00  0.00    +0.000 OA
ATOM     25  H   UNL     1      12.119  14.225  19.446  0.00  0.00    +0.000 HD
ENDBRANCH  22  24
ENDBRANCH  20  22
ENDBRANCH   4  16
TORSDOF 5
ENDMDL
MODEL 5
REMARK VINA RESULT:      -7.0      2.176      7.773
REMARK  Name = 
REMARK  7 active torsions:
REMARK  status: ('A' for Active; 'I' for Inactive)
REMARK    1  A    between atoms: C_1  and  O_2
REMARK    2  A    between atoms: O_2  and  C_3
REMARK    3  A    between atoms: C_6  and  C_7
REMARK    4  A    between atoms: C_9  and  N_10
REMARK    5  A    between atoms: N_13  and  C_14
REMARK    6  A    between atoms: C_18  and  C_19
REMARK    7  A    between atoms: C_19  and  O_21
REMARK                            x       y       z     vdW  Elec       q    Type
REMARK                         _______ _______ _______ _____ _____    ______ ____
ROOT
ATOM      1  N   UNL     1       5.620   3.482  16.527  0.00  0.00    +0.000 N 
ATOM      2  C   UNL     1       4.569   4.116  17.178  0.00  0.00    +0.000 C 
ATOM      3  O   UNL     1       3.806   4.927  16.655  0.00  0.00    +0.000 OA
ATOM      4  N   UNL     1       4.488   3.772  18.524  0.00  0.00    +0.000 N 
ATOM      5  H   UNL     1       5.831   2.528  16.806  0.00  0.00    +0.000 HD
ATOM      6  H   UNL     1       5.384   3.617  18.961  0.00  0.00    +0.000 HD
ENDROOT
BRANCH   1  13
ATOM      7  C   UNL     1       7.179   4.765  15.114  0.00  0.00    +0.000 A 
ATOM      8  C   UNL     1       7.654   5.092  13.831  0.00  0.00    +0.000 A 
ATOM      9  C   UNL     1       7.064   4.559  12.687  0.00  0.00    +0.000 A 
ATOM     10  C   UNL     1       5.980   3.691  12.797  0.00  0.00    +0.000 A 
ATOM     11  C   UNL     1       5.330   3.100  11.586  0.00  0.00    +0.000 C 
ATOM     12  C   UNL     1       5.502   3.353  14.075  0.00  0.00    +0.000 A 
ATOM     13  C   UNL     1       6.107   3.856  15.240  0.00  0.00    +0.000 A 
BRANCH   7  15
ATOM     14  C   UNL     1       7.192   6.522  16.712  0.00  0.00    +0.000 C 
ATOM     15  O   UNL     1       7.726   5.270  16.273  0.00  0.00    +0.000 OA
ENDBRANCH   7  15
ENDBRANCH   1  13
BRANCH   4  16
ATOM     16  C   UNL     1       3.450   4.283  19.349  0.00  0.00    +0.000 A 
ATOM     17  C   UNL     1       2.645   3.395  20.069  0.00  0.00    +0.000 A 
ATOM     18  C   UNL     1       1.637   3.882  20.913  0.00  0.00    +0.000 A 
ATOM     19  C   UNL     1       1.402   5.255  21.007  0.00  0.00    +0.000 A 
ATOM     20  C   UNL     1       2.189   6.147  20.273  0.00  0.00    +0.000 A 
ATOM     21  C   UNL     1       3.211   5.660  19.443  0.00  0.00    +0.000 A 
BRANCH  20  22
ATOM     22  C   UNL     1       1.864   7.591  20.360  0.00  0.00    +0.000 C 
ATOM     23  O   UNL     1       1.817   8.314  19.379  0.00  0.00    +0.000 OA
BRANCH  22  24
ATOM     24  O   UNL     1       1.592   8.025  21.609  0.00  0.00    +0.000 OA
ATOM     25  H   UNL     1       1.634   8.996  21.728  0.00  0.00    +0.000 HD
ENDBRANCH  22  24
ENDBRANCH  20  22
ENDBRANCH   4  16
TORSDOF 5
ENDMDL
MODEL 6
REMARK VINA RESULT:      -7.0      4.394      7.009
REMARK  Name = 
REMARK  7 active torsions:
REMARK  status: ('A' for Active; 'I' for Inactive)
REMARK    1  A    between atoms: C_1  and  O_2
REMARK    2  A    between atoms: O_2  and  C_3
REMARK    3  A    between atoms: C_6  and  C_7
REMARK    4  A    between atoms: C_9  and  N_10
REMARK    5  A    between atoms: N_13  and  C_14
REMARK    6  A    between atoms: C_18  and  C_19
REMARK    7  A    between atoms: C_19  and  O_21
REMARK                            x       y       z     vdW  Elec       q    Type
REMARK                         _______ _______ _______ _____ _____    ______ ____
ROOT
ATOM      1  N   UNL     1       1.322   9.260  19.243  0.00  0.00    +0.000 N 
ATOM      2  C   UNL     1       2.008   8.438  18.358  0.00  0.00    +0.000 C 
ATOM      3  O   UNL     1       2.074   8.615  17.143  0.00  0.00    +0.000 OA
ATOM      4  N   UNL     1       2.591   7.343  18.987  0.00  0.00    +0.000 N 
ATOM      5  H   UNL     1       1.719   9.378  20.170  0.00  0.00    +0.000 HD
ATOM      6  H   UNL     1       2.052   6.980  19.759  0.00  0.00    +0.000 HD
ENDROOT
BRANCH   1  13
ATOM      7  C   UNL     1       0.710  11.640  19.053  0.00  0.00    +0.000 A 
ATOM      8  C   UNL     1      -0.202  12.620  18.622  0.00  0.00    +0.000 A 
ATOM      9  C   UNL     1      -1.410  12.268  18.026  0.00  0.00    +0.000 A 
ATOM     10  C   UNL     1      -1.739  10.925  17.849  0.00  0.00    +0.000 A 
ATOM     11  C   UNL     1      -3.026  10.518  17.205  0.00  0.00    +0.000 C 
ATOM     12  C   UNL     1      -0.831   9.939  18.270  0.00  0.00    +0.000 A 
ATOM     13  C   UNL     1       0.406  10.278  18.844  0.00  0.00    +0.000 A 
BRANCH   7  15
ATOM     14  C   UNL     1       1.979  13.214  20.300  0.00  0.00    +0.000 C 
ATOM     15  O   UNL     1       1.913  11.940  19.654  0.00  0.00    +0.000 OA
ENDBRANCH   7  15
ENDBRANCH   1  13
BRANCH   4  16
ATOM     16  C   UNL     1       3.375   6.410  18.256  0.00  0.00    +0.000 A 
ATOM     17  C   UNL     1       2.822   5.176  17.901  0.00  0.00    +0.000 A 
ATOM     18  C   UNL     1       3.570   4.256  17.153  0.00  0.00    +0.000 A 
ATOM     19  C   UNL     1       4.887   4.549  16.794  0.00  0.00    +0.000 A 
ATOM     20  C   UNL     1       5.454   5.772  17.165  0.00  0.00    +0.000 A 
ATOM     21  C   UNL     1       4.698   6.700  17.897  0.00  0.00    +0.000 A 
BRANCH  20  22
ATOM     22  C   UNL     1       6.873   6.012  16.813  0.00  0.00    +0.000 C 
ATOM     23  O   UNL     1       7.351   7.132  16.735  0.00  0.00    +0.000 OA
BRANCH  22  24
ATOM     24  O   UNL     1       7.597   4.888  16.621  0.00  0.00    +0.000 OA
ATOM     25  H   UNL     1       8.485   4.892  17.033  0.00  0.00    +0.000 HD
ENDBRANCH  22  24
ENDBRANCH  20  22
ENDBRANCH   4  16
TORSDOF 5
ENDMDL
MODEL 7
REMARK VINA RESULT:      -7.0      4.756      8.399
REMARK  Name = 
REMARK  7 active torsions:
REMARK  status: ('A' for Active; 'I' for Inactive)
REMARK    1  A    between atoms: C_1  and  O_2
REMARK    2  A    between atoms: O_2  and  C_3
REMARK    3  A    between atoms: C_6  and  C_7
REMARK    4  A    between atoms: C_9  and  N_10
REMARK    5  A    between atoms: N_13  and  C_14
REMARK    6  A    between atoms: C_18  and  C_19
REMARK    7  A    between atoms: C_19  and  O_21
REMARK                            x       y       z     vdW  Elec       q    Type
REMARK                         _______ _______ _______ _____ _____    ______ ____
ROOT
ATOM      1  N   UNL     1       2.541   7.093  18.894  0.00  0.00    +0.000 N 
ATOM      2  C   UNL     1       2.017   8.285  18.410  0.00  0.00    +0.000 C 
ATOM      3  O   UNL     1       2.148   8.692  17.257  0.00  0.00    +0.000 OA
ATOM      4  N   UNL     1       1.351   9.013  19.390  0.00  0.00    +0.000 N 
ATOM      5  H   UNL     1       1.997   6.596  19.593  0.00  0.00    +0.000 HD
ATOM      6  H   UNL     1       1.761   8.933  20.309  0.00  0.00    +0.000 HD
ENDROOT
BRANCH   1  13
ATOM      7  C   UNL     1       3.156   5.017  17.715  0.00  0.00    +0.000 A 
ATOM      8  C   UNL     1       4.115   4.271  17.007  0.00  0.00    +0.000 A 
ATOM      9  C   UNL     1       5.403   4.760  16.806  0.00  0.00    +0.000 A 
ATOM     10  C   UNL     1       5.767   6.007  17.312  0.00  0.00    +0.000 A 
ATOM     11  C   UNL     1       7.141   6.560  17.106  0.00  0.00    +0.000 C 
ATOM     12  C   UNL     1       4.813   6.763  18.014  0.00  0.00    +0.000 A 
ATOM     13  C   UNL     1       3.499   6.297  18.198  0.00  0.00    +0.000 A 
BRANCH   7  15
ATOM     14  C   UNL     1       1.737   3.166  18.166  0.00  0.00    +0.000 C 
ATOM     15  O   UNL     1       1.872   4.573  17.944  0.00  0.00    +0.000 OA
ENDBRANCH   7  15
ENDBRANCH   1  13
BRANCH   4  16
ATOM     16  C   UNL     1       0.706  10.240  19.078  0.00  0.00    +0.000 A 
ATOM     17  C   UNL     1       1.297  11.446  19.468  0.00  0.00    +0.000 A 
ATOM     18  C   UNL     1       0.692  12.667  19.142  0.00  0.00    +0.000 A 
ATOM     19  C   UNL     1      -0.528  12.687  18.463  0.00  0.00    +0.000 A 
ATOM     20  C   UNL     1      -1.136  11.485  18.090  0.00  0.00    +0.000 A 
ATOM     21  C   UNL     1      -0.519  10.263  18.400  0.00  0.00    +0.000 A 
BRANCH  20  22
ATOM     22  C   UNL     1      -2.458  11.555  17.424  0.00  0.00    +0.000 C 
ATOM     23  O   UNL     1      -3.506  11.608  18.046  0.00  0.00    +0.000 OA
BRANCH  22  24
ATOM     24  O   UNL     1      -2.400  11.591  16.075  0.00  0.00    +0.000 OA
ATOM     25  H   UNL     1      -1.711  11.023  15.675  0.00  0.00    +0.000 HD
ENDBRANCH  22  24
ENDBRANCH  20  22
ENDBRANCH   4  16
TORSDOF 5
ENDMDL
MODEL 8
REMARK VINA RESULT:      -6.9      3.800      6.290
REMARK  Name = 
REMARK  7 active torsions:
REMARK  status: ('A' for Active; 'I' for Inactive)
REMARK    1  A    between atoms: C_1  and  O_2
REMARK    2  A    between atoms: O_2  and  C_3
REMARK    3  A    between atoms: C_6  and  C_7
REMARK    4  A    between atoms: C_9  and  N_10
REMARK    5  A    between atoms: N_13  and  C_14
REMARK    6  A    between atoms: C_18  and  C_19
REMARK    7  A    between atoms: C_19  and  O_21
REMARK                            x       y       z     vdW  Elec       q    Type
REMARK                         _______ _______ _______ _____ _____    ______ ____
ROOT
ATOM      1  N   UNL     1       1.647   8.406  20.022  0.00  0.00    +0.000 N 
ATOM      2  C   UNL     1       2.218   7.706  18.967  0.00  0.00    +0.000 C 
ATOM      3  O   UNL     1       2.097   8.002  17.780  0.00  0.00    +0.000 OA
ATOM      4  N   UNL     1       2.922   6.582  19.389  0.00  0.00    +0.000 N 
ATOM      5  H   UNL     1       2.174   8.452  20.889  0.00  0.00    +0.000 HD
ATOM      6  H   UNL     1       2.516   6.122  20.191  0.00  0.00    +0.000 HD
ENDROOT
BRANCH   1  13
ATOM      7  C   UNL     1       0.338  10.286  20.932  0.00  0.00    +0.000 A 
ATOM      8  C   UNL     1      -0.629  11.288  20.737  0.00  0.00    +0.000 A 
ATOM      9  C   UNL     1      -1.301  11.414  19.524  0.00  0.00    +0.000 A 
ATOM     10  C   UNL     1      -1.028  10.537  18.477  0.00  0.00    +0.000 A 
ATOM     11  C   UNL     1      -1.731  10.652  17.161  0.00  0.00    +0.000 C 
ATOM     12  C   UNL     1      -0.059   9.536  18.660  0.00  0.00    +0.000 A 
ATOM     13  C   UNL     1       0.652   9.416  19.867  0.00  0.00    +0.000 A 
BRANCH   7  15
ATOM     14  C   UNL     1       0.286   9.503  23.175  0.00  0.00    +0.000 C 
ATOM     15  O   UNL     1       1.024  10.118  22.115  0.00  0.00    +0.000 OA
ENDBRANCH   7  15
ENDBRANCH   1  13
BRANCH   4  16
ATOM     16  C   UNL     1       3.616   5.761  18.460  0.00  0.00    +0.000 A 
ATOM     17  C   UNL     1       2.964   4.662  17.892  0.00  0.00    +0.000 A 
ATOM     18  C   UNL     1       3.623   3.860  16.951  0.00  0.00    +0.000 A 
ATOM     19  C   UNL     1       4.949   4.127  16.606  0.00  0.00    +0.000 A 
ATOM     20  C   UNL     1       5.615   5.211  17.186  0.00  0.00    +0.000 A 
ATOM     21  C   UNL     1       4.948   6.025  18.114  0.00  0.00    +0.000 A 
BRANCH  20  22
ATOM     22  C   UNL     1       7.039   5.419  16.833  0.00  0.00    +0.000 C 
ATOM     23  O   UNL     1       7.429   6.403  16.228  0.00  0.00    +0.000 OA
BRANCH  22  24
ATOM     24  O   UNL     1       7.867   4.446  17.268  0.00  0.00    +0.000 OA
ATOM     25  H   UNL     1       8.105   4.498  18.216  0.00  0.00    +0.000 HD
ENDBRANCH  22  24
ENDBRANCH  20  22
ENDBRANCH   4  16
TORSDOF 5
ENDMDL
MODEL 9
REMARK VINA RESULT:      -6.9      3.906      8.480
REMARK  Name = 
REMARK  7 active torsions:
REMARK  status: ('A' for Active; 'I' for Inactive)
REMARK    1  A    between atoms: C_1  and  O_2
REMARK    2  A    between atoms: O_2  and  C_3
REMARK    3  A    between atoms: C_6  and  C_7
REMARK    4  A    between atoms: C_9  and  N_10
REMARK    5  A    between atoms: N_13  and  C_14
REMARK    6  A    between atoms: C_18  and  C_19
REMARK    7  A    between atoms: C_19  and  O_21
REMARK                            x       y       z     vdW  Elec       q    Type
REMARK                         _______ _______ _______ _____ _____    ______ ____
ROOT
ATOM      1  N   UNL     1       2.863   5.865  20.036  0.00  0.00    +0.000 N 
ATOM      2  C   UNL     1       2.223   7.094  19.940  0.00  0.00    +0.000 C 
ATOM      3  O   UNL     1       2.210   7.803  18.935  0.00  0.00    +0.000 OA
ATOM      4  N   UNL     1       1.619   7.478  21.133  0.00  0.00    +0.000 N 
ATOM      5  H   UNL     1       2.423   5.156  20.616  0.00  0.00    +0.000 HD
ATOM      6  H   UNL     1       2.126   7.191  21.958  0.00  0.00    +0.000 HD
ENDROOT
BRANCH   1  13
ATOM      7  C   UNL     1       3.340   4.612  17.967  0.00  0.00    +0.000 A 
ATOM      8  C   UNL     1       4.275   4.159  17.020  0.00  0.00    +0.000 A 
ATOM      9  C   UNL     1       5.636   4.416  17.172  0.00  0.00    +0.000 A 
ATOM     10  C   UNL     1       6.096   5.128  18.278  0.00  0.00    +0.000 A 
ATOM     11  C   UNL     1       7.551   5.424  18.464  0.00  0.00    +0.000 C 
ATOM     12  C   UNL     1       5.168   5.590  19.227  0.00  0.00    +0.000 A 
ATOM     13  C   UNL     1       3.788   5.367  19.071  0.00  0.00    +0.000 A 
BRANCH   7  15
ATOM     14  C   UNL     1       1.554   3.073  18.261  0.00  0.00    +0.000 C 
ATOM     15  O   UNL     1       1.986   4.377  17.864  0.00  0.00    +0.000 OA
ENDBRANCH   7  15
ENDBRANCH   1  13
BRANCH   4  16
ATOM     16  C   UNL     1       0.875   8.685  21.223  0.00  0.00    +0.000 A 
ATOM     17  C   UNL     1       0.548   9.199  22.482  0.00  0.00    +0.000 A 
ATOM     18  C   UNL     1      -0.158  10.404  22.591  0.00  0.00    +0.000 A 
ATOM     19  C   UNL     1      -0.576  11.079  21.443  0.00  0.00    +0.000 A 
ATOM     20  C   UNL     1      -0.271  10.560  20.180  0.00  0.00    +0.000 A 
ATOM     21  C   UNL     1       0.453   9.363  20.073  0.00  0.00    +0.000 A 
BRANCH  20  22
ATOM     22  C   UNL     1      -0.787  11.280  18.992  0.00  0.00    +0.000 C 
ATOM     23  O   UNL     1      -1.476  12.282  19.079  0.00  0.00    +0.000 OA
BRANCH  22  24
ATOM     24  O   UNL     1      -0.399  10.753  17.811  0.00  0.00    +0.000 OA
ATOM     25  H   UNL     1      -1.108  10.670  17.142  0.00  0.00    +0.000 HD
ENDBRANCH  22  24
ENDBRANCH  20  22
ENDBRANCH   4  16
TORSDOF 5
ENDMDL
