MODEL 1
REMARK VINA RESULT:      -9.4      0.000      0.000
REMARK  Name = 
REMARK  7 active torsions:
REMARK  status: ('A' for Active; 'I' for Inactive)
REMARK    1  A    between atoms: C_1  and  C_2
REMARK    2  A    between atoms: C_2  and  C_3
REMARK    3  A    between atoms: C_6  and  C_7
REMARK    4  A    between atoms: C_10  and  C_11
REMARK    5  A    between atoms: N_24  and  C_25
REMARK    6  A    between atoms: C_25  and  C_26
REMARK    7  A    between atoms: C_26  and  O_28
REMARK                            x       y       z     vdW  Elec       q    Type
REMARK                         _______ _______ _______ _____ _____    ______ ____
ROOT
ATOM      1  C   UNL     1       1.294   7.827  20.798  0.00  0.00    +0.000 C 
ATOM      2  O   UNL     1       1.028   6.893  21.595  0.00  0.00    +0.000 OA
ATOM      3  N   UNL     1       2.145   7.575  19.639  0.00  0.00    +0.000 N 
ATOM      4  C   UNL     1       2.256   6.165  19.850  0.00  0.00    +0.000 C 
ATOM      5  C   UNL     1       2.532   5.720  18.545  0.00  0.00    +0.000 C 
ATOM      6  C   UNL     1       3.561   5.760  17.607  0.00  0.00    +0.000 A 
ATOM      7  C   UNL     1       4.054   6.963  17.073  0.00  0.00    +0.000 A 
ATOM      8  C   UNL     1       4.994   5.949  16.247  0.00  0.00    +0.000 A 
ATOM      9  C   UNL     1       6.055   6.138  15.273  0.00  0.00    +0.000 A 
ATOM     10  C   UNL     1       6.692   5.043  14.590  0.00  0.00    +0.000 A 
ATOM     11  C   UNL     1       6.305   3.725  14.795  0.00  0.00    +0.000 A 
ATOM     12  C   UNL     1       5.374   3.456  15.779  0.00  0.00    +0.000 A 
ATOM     13  C   UNL     1       4.832   4.539  16.496  0.00  0.00    +0.000 A 
ATOM     14  N   UNL     1       4.079   4.529  17.591  0.00  0.00    +0.000 N 
ATOM     15  C   UNL     1       2.921   8.088  18.062  0.00  0.00    +0.000 C 
ENDROOT
BRANCH   1  19
ATOM     16  C   UNL     1      -0.703  11.240  22.410  0.00  0.00    +0.000 A 
ATOM     17  C   UNL     1       0.010  11.312  21.203  0.00  0.00    +0.000 A 
ATOM     18  C   UNL     1       0.659  10.203  20.669  0.00  0.00    +0.000 A 
ATOM     19  C   UNL     1       0.599   8.993  21.318  0.00  0.00    +0.000 A 
ATOM     20  C   UNL     1      -0.003   8.917  22.608  0.00  0.00    +0.000 A 
ATOM     21  C   UNL     1      -0.666  10.029  23.124  0.00  0.00    +0.000 A 
BRANCH  16  25
ATOM     22  C   UNL     1      -2.967  14.511  24.014  0.00  0.00    +0.000 A 
ATOM     23  C   UNL     1      -3.572  13.266  23.838  0.00  0.00    +0.000 A 
ATOM     24  C   UNL     1      -2.847  12.214  23.280  0.00  0.00    +0.000 A 
ATOM     25  C   UNL     1      -1.509  12.381  22.875  0.00  0.00    +0.000 A 
ATOM     26  C   UNL     1      -0.947  13.659  22.991  0.00  0.00    +0.000 A 
ATOM     27  C   UNL     1      -1.661  14.710  23.558  0.00  0.00    +0.000 A 
BRANCH  22  29
ATOM     28  C   UNL     1      -4.813  16.156  24.004  0.00  0.00    +0.000 C 
ATOM     29  C   UNL     1      -3.652  15.588  24.810  0.00  0.00    +0.000 C 
ENDBRANCH  22  29
ENDBRANCH  16  25
ENDBRANCH   1  19
BRANCH  14  30
ATOM     30  C   UNL     1       3.954   3.618  18.775  0.00  0.00    +0.000 C 
BRANCH  30  31
ATOM     31  C   UNL     1       3.343   2.232  18.726  0.00  0.00    +0.000 C 
ATOM     32  O   UNL     1       2.200   2.017  19.123  0.00  0.00    +0.000 OA
BRANCH  31  33
ATOM     33  O   UNL     1       4.119   1.243  18.258  0.00  0.00    +0.000 OA
ATOM     34  H   UNL     1       3.644   0.594  17.708  0.00  0.00    +0.000 HD
ENDBRANCH  31  33
ENDBRANCH  30  31
ENDBRANCH  14  30
TORSDOF 6
ENDMDL
MODEL 2
REMARK VINA RESULT:      -9.3      0.833      1.165
REMARK  Name = 
REMARK  7 active torsions:
REMARK  status: ('A' for Active; 'I' for Inactive)
REMARK    1  A    between atoms: C_1  and  C_2
REMARK    2  A    between atoms: C_2  and  C_3
REMARK    3  A    between atoms: C_6  and  C_7
REMARK    4  A    between atoms: C_10  and  C_11
REMARK    5  A    between atoms: N_24  and  C_25
REMARK    6  A    between atoms: C_25  and  C_26
REMARK    7  A    between atoms: C_26  and  O_28
REMARK                            x       y       z     vdW  Elec       q    Type
REMARK                         _______ _______ _______ _____ _____    ______ ____
ROOT
ATOM      1  C   UNL     1       1.165   8.071  20.863  0.00  0.00    +0.000 C 
ATOM      2  O   UNL     1       1.045   7.220  21.780  0.00  0.00    +0.000 OA
ATOM      3  N   UNL     1       1.987   7.770  19.694  0.00  0.00    +0.000 N 
ATOM      4  C   UNL     1       2.269   6.418  20.065  0.00  0.00    +0.000 C 
ATOM      5  C   UNL     1       2.535   5.848  18.808  0.00  0.00    +0.000 C 
ATOM      6  C   UNL     1       3.509   5.881  17.813  0.00  0.00    +0.000 A 
ATOM      7  C   UNL     1       3.836   7.055  17.112  0.00  0.00    +0.000 A 
ATOM      8  C   UNL     1       4.848   6.054  16.358  0.00  0.00    +0.000 A 
ATOM      9  C   UNL     1       5.835   6.235  15.308  0.00  0.00    +0.000 A 
ATOM     10  C   UNL     1       6.564   5.139  14.724  0.00  0.00    +0.000 A 
ATOM     11  C   UNL     1       6.340   3.823  15.106  0.00  0.00    +0.000 A 
ATOM     12  C   UNL     1       5.492   3.579  16.168  0.00  0.00    +0.000 A 
ATOM     13  C   UNL     1       4.861   4.677  16.782  0.00  0.00    +0.000 A 
ATOM     14  N   UNL     1       4.164   4.722  17.913  0.00  0.00    +0.000 N 
ATOM     15  C   UNL     1       2.626   8.165  18.025  0.00  0.00    +0.000 C 
ENDROOT
BRANCH   1  19
ATOM     16  C   UNL     1      -1.129  11.428  22.167  0.00  0.00    +0.000 A 
ATOM     17  C   UNL     1      -0.607  11.361  20.866  0.00  0.00    +0.000 A 
ATOM     18  C   UNL     1       0.138  10.267  20.433  0.00  0.00    +0.000 A 
ATOM     19  C   UNL     1       0.365   9.210  21.282  0.00  0.00    +0.000 A 
ATOM     20  C   UNL     1      -0.038   9.305  22.646  0.00  0.00    +0.000 A 
ATOM     21  C   UNL     1      -0.799  10.395  23.063  0.00  0.00    +0.000 A 
BRANCH  16  25
ATOM     22  C   UNL     1      -3.961  14.511  23.104  0.00  0.00    +0.000 A 
ATOM     23  C   UNL     1      -2.929  14.765  22.199  0.00  0.00    +0.000 A 
ATOM     24  C   UNL     1      -1.986  13.775  21.924  0.00  0.00    +0.000 A 
ATOM     25  C   UNL     1      -2.042  12.517  22.553  0.00  0.00    +0.000 A 
ATOM     26  C   UNL     1      -3.041  12.311  23.514  0.00  0.00    +0.000 A 
ATOM     27  C   UNL     1      -3.992  13.290  23.783  0.00  0.00    +0.000 A 
BRANCH  22  29
ATOM     28  C   UNL     1      -6.353  14.720  23.691  0.00  0.00    +0.000 C 
ATOM     29  C   UNL     1      -5.106  15.475  23.248  0.00  0.00    +0.000 C 
ENDBRANCH  22  29
ENDBRANCH  16  25
ENDBRANCH   1  19
BRANCH  14  30
ATOM     30  C   UNL     1       4.199   3.957  19.202  0.00  0.00    +0.000 C 
BRANCH  30  31
ATOM     31  C   UNL     1       4.060   2.452  19.306  0.00  0.00    +0.000 C 
ATOM     32  O   UNL     1       3.097   1.858  18.828  0.00  0.00    +0.000 OA
BRANCH  31  33
ATOM     33  O   UNL     1       5.024   1.799  19.974  0.00  0.00    +0.000 OA
ATOM     34  H   UNL     1       5.779   1.532  19.419  0.00  0.00    +0.000 HD
ENDBRANCH  31  33
ENDBRANCH  30  31
ENDBRANCH  14  30
TORSDOF 6
ENDMDL
MODEL 3
REMARK VINA RESULT:      -9.1      0.910      1.249
REMARK  Name = 
REMARK  7 active torsions:
REMARK  status: ('A' for Active; 'I' for Inactive)
REMARK    1  A    between atoms: C_1  and  C_2
REMARK    2  A    between atoms: C_2  and  C_3
REMARK    3  A    between atoms: C_6  and  C_7
REMARK    4  A    between atoms: C_10  and  C_11
REMARK    5  A    between atoms: N_24  and  C_25
REMARK    6  A    between atoms: C_25  and  C_26
REMARK    7  A    between atoms: C_26  and  O_28
REMARK                            x       y       z     vdW  Elec       q    Type
REMARK                         _______ _______ _______ _____ _____    ______ ____
ROOT
ATOM      1  C   UNL     1       1.190   8.248  20.801  0.00  0.00    +0.000 C 
ATOM      2  O   UNL     1       1.083   7.437  21.754  0.00  0.00    +0.000 OA
ATOM      3  N   UNL     1       1.993   7.898  19.633  0.00  0.00    +0.000 N 
ATOM      4  C   UNL     1       2.281   6.562  20.057  0.00  0.00    +0.000 C 
ATOM      5  C   UNL     1       2.528   5.938  18.821  0.00  0.00    +0.000 C 
ATOM      6  C   UNL     1       3.486   5.929  17.811  0.00  0.00    +0.000 A 
ATOM      7  C   UNL     1       3.802   7.072  17.056  0.00  0.00    +0.000 A 
ATOM      8  C   UNL     1       4.803   6.039  16.330  0.00  0.00    +0.000 A 
ATOM      9  C   UNL     1       5.774   6.174  15.258  0.00  0.00    +0.000 A 
ATOM     10  C   UNL     1       6.493   5.054  14.709  0.00  0.00    +0.000 A 
ATOM     11  C   UNL     1       6.275   3.755  15.150  0.00  0.00    +0.000 A 
ATOM     12  C   UNL     1       5.443   3.557  16.235  0.00  0.00    +0.000 A 
ATOM     13  C   UNL     1       4.822   4.681  16.811  0.00  0.00    +0.000 A 
ATOM     14  N   UNL     1       4.142   4.775  17.950  0.00  0.00    +0.000 N 
ATOM     15  C   UNL     1       2.607   8.220  17.939  0.00  0.00    +0.000 C 
ENDROOT
BRANCH   1  19
ATOM     16  C   UNL     1      -1.207  11.621  21.859  0.00  0.00    +0.000 A 
ATOM     17  C   UNL     1      -0.770  10.702  22.825  0.00  0.00    +0.000 A 
ATOM     18  C   UNL     1       0.015   9.603  22.488  0.00  0.00    +0.000 A 
ATOM     19  C   UNL     1       0.396   9.405  21.183  0.00  0.00    +0.000 A 
ATOM     20  C   UNL     1      -0.138  10.242  20.160  0.00  0.00    +0.000 A 
ATOM     21  C   UNL     1      -0.908  11.349  20.511  0.00  0.00    +0.000 A 
BRANCH  16  25
ATOM     22  C   UNL     1      -3.409  15.066  23.156  0.00  0.00    +0.000 A 
ATOM     23  C   UNL     1      -3.694  14.482  21.921  0.00  0.00    +0.000 A 
ATOM     24  C   UNL     1      -2.952  13.386  21.482  0.00  0.00    +0.000 A 
ATOM     25  C   UNL     1      -1.903  12.856  22.257  0.00  0.00    +0.000 A 
ATOM     26  C   UNL     1      -1.585  13.504  23.457  0.00  0.00    +0.000 A 
ATOM     27  C   UNL     1      -2.330  14.590  23.907  0.00  0.00    +0.000 A 
BRANCH  22  29
ATOM     28  C   UNL     1      -3.718  16.657  25.023  0.00  0.00    +0.000 C 
ATOM     29  C   UNL     1      -4.331  16.098  23.745  0.00  0.00    +0.000 C 
ENDBRANCH  22  29
ENDBRANCH  16  25
ENDBRANCH   1  19
BRANCH  14  30
ATOM     30  C   UNL     1       4.197   4.065  19.269  0.00  0.00    +0.000 C 
BRANCH  30  31
ATOM     31  C   UNL     1       4.079   2.564  19.438  0.00  0.00    +0.000 C 
ATOM     32  O   UNL     1       3.075   1.952  19.084  0.00  0.00    +0.000 OA
BRANCH  31  33
ATOM     33  O   UNL     1       5.113   1.936  20.020  0.00  0.00    +0.000 OA
ATOM     34  H   UNL     1       4.862   1.382  20.781  0.00  0.00    +0.000 HD
ENDBRANCH  31  33
ENDBRANCH  30  31
ENDBRANCH  14  30
TORSDOF 6
ENDMDL
MODEL 4
REMARK VINA RESULT:      -9.1      3.348     11.794
REMARK  Name = 
REMARK  7 active torsions:
REMARK  status: ('A' for Active; 'I' for Inactive)
REMARK    1  A    between atoms: C_1  and  C_2
REMARK    2  A    between atoms: C_2  and  C_3
REMARK    3  A    between atoms: C_6  and  C_7
REMARK    4  A    between atoms: C_10  and  C_11
REMARK    5  A    between atoms: N_24  and  C_25
REMARK    6  A    between atoms: C_25  and  C_26
REMARK    7  A    between atoms: C_26  and  O_28
REMARK                            x       y       z     vdW  Elec       q    Type
REMARK                         _______ _______ _______ _____ _____    ______ ____
ROOT
ATOM      1  C   UNL     1       0.422   9.598  20.614  0.00  0.00    +0.000 C 
ATOM      2  O   UNL     1       0.852   9.547  21.793  0.00  0.00    +0.000 OA
ATOM      3  N   UNL     1      -0.745  10.418  20.299  0.00  0.00    +0.000 N 
ATOM      4  C   UNL     1      -0.873  10.986  21.606  0.00  0.00    +0.000 C 
ATOM      5  C   UNL     1      -1.544  12.186  21.310  0.00  0.00    +0.000 C 
ATOM      6  C   UNL     1      -2.797  12.624  20.889  0.00  0.00    +0.000 A 
ATOM      7  C   UNL     1      -3.352  12.257  19.651  0.00  0.00    +0.000 A 
ATOM      8  C   UNL     1      -4.550  13.203  20.162  0.00  0.00    +0.000 A 
ATOM      9  C   UNL     1      -5.836  13.580  19.601  0.00  0.00    +0.000 A 
ATOM     10  C   UNL     1      -6.710  14.540  20.223  0.00  0.00    +0.000 A 
ATOM     11  C   UNL     1      -6.358  15.201  21.393  0.00  0.00    +0.000 A 
ATOM     12  C   UNL     1      -5.199  14.824  22.041  0.00  0.00    +0.000 A 
ATOM     13  C   UNL     1      -4.407  13.817  21.458  0.00  0.00    +0.000 A 
ATOM     14  N   UNL     1      -3.369  13.162  21.968  0.00  0.00    +0.000 N 
ATOM     15  C   UNL     1      -1.914  11.175  19.111  0.00  0.00    +0.000 C 
ENDROOT
BRANCH   1  19
ATOM     16  C   UNL     1       2.966   7.013  18.359  0.00  0.00    +0.000 A 
ATOM     17  C   UNL     1       2.412   8.171  17.792  0.00  0.00    +0.000 A 
ATOM     18  C   UNL     1       1.585   9.020  18.522  0.00  0.00    +0.000 A 
ATOM     19  C   UNL     1       1.306   8.743  19.839  0.00  0.00    +0.000 A 
ATOM     20  C   UNL     1       1.744   7.511  20.406  0.00  0.00    +0.000 A 
ATOM     21  C   UNL     1       2.586   6.678  19.672  0.00  0.00    +0.000 A 
BRANCH  16  25
ATOM     22  C   UNL     1       5.715   4.735  15.981  0.00  0.00    +0.000 A 
ATOM     23  C   UNL     1       4.677   4.090  16.656  0.00  0.00    +0.000 A 
ATOM     24  C   UNL     1       3.807   4.826  17.460  0.00  0.00    +0.000 A 
ATOM     25  C   UNL     1       3.959   6.216  17.620  0.00  0.00    +0.000 A 
ATOM     26  C   UNL     1       5.052   6.830  16.994  0.00  0.00    +0.000 A 
ATOM     27  C   UNL     1       5.916   6.104  16.180  0.00  0.00    +0.000 A 
BRANCH  22  29
ATOM     28  C   UNL     1       5.766   4.006  13.620  0.00  0.00    +0.000 C 
ATOM     29  C   UNL     1       6.521   4.005  14.942  0.00  0.00    +0.000 C 
ENDBRANCH  22  29
ENDBRANCH  16  25
ENDBRANCH   1  19
BRANCH  14  30
ATOM     30  C   UNL     1      -2.959  12.754  23.352  0.00  0.00    +0.000 C 
BRANCH  30  31
ATOM     31  C   UNL     1      -3.875  12.785  24.558  0.00  0.00    +0.000 C 
ATOM     32  O   UNL     1      -4.676  11.881  24.784  0.00  0.00    +0.000 OA
BRANCH  31  33
ATOM     33  O   UNL     1      -3.792  13.862  25.355  0.00  0.00    +0.000 OA
ATOM     34  H   UNL     1      -4.654  14.201  25.655  0.00  0.00    +0.000 HD
ENDBRANCH  31  33
ENDBRANCH  30  31
ENDBRANCH  14  30
TORSDOF 6
ENDMDL
MODEL 5
REMARK VINA RESULT:      -9.0      3.932     11.796
REMARK  Name = 
REMARK  7 active torsions:
REMARK  status: ('A' for Active; 'I' for Inactive)
REMARK    1  A    between atoms: C_1  and  C_2
REMARK    2  A    between atoms: C_2  and  C_3
REMARK    3  A    between atoms: C_6  and  C_7
REMARK    4  A    between atoms: C_10  and  C_11
REMARK    5  A    between atoms: N_24  and  C_25
REMARK    6  A    between atoms: C_25  and  C_26
REMARK    7  A    between atoms: C_26  and  O_28
REMARK                            x       y       z     vdW  Elec       q    Type
REMARK                         _______ _______ _______ _____ _____    ______ ____
ROOT
ATOM      1  C   UNL     1       0.116  10.044  19.848  0.00  0.00    +0.000 C 
ATOM      2  O   UNL     1       0.633  10.471  20.911  0.00  0.00    +0.000 OA
ATOM      3  N   UNL     1      -1.202  10.519  19.439  0.00  0.00    +0.000 N 
ATOM      4  C   UNL     1      -1.339  11.477  20.492  0.00  0.00    +0.000 C 
ATOM      5  C   UNL     1      -2.243  12.384  19.910  0.00  0.00    +0.000 C 
ATOM      6  C   UNL     1      -3.583  12.455  19.538  0.00  0.00    +0.000 A 
ATOM      7  C   UNL     1      -4.148  11.602  18.574  0.00  0.00    +0.000 A 
ATOM      8  C   UNL     1      -5.462  12.474  18.900  0.00  0.00    +0.000 A 
ATOM      9  C   UNL     1      -6.833  12.433  18.421  0.00  0.00    +0.000 A 
ATOM     10  C   UNL     1      -7.823  13.406  18.804  0.00  0.00    +0.000 A 
ATOM     11  C   UNL     1      -7.518  14.475  19.635  0.00  0.00    +0.000 A 
ATOM     12  C   UNL     1      -6.265  14.527  20.212  0.00  0.00    +0.000 A 
ATOM     13  C   UNL     1      -5.343  13.512  19.892  0.00  0.00    +0.000 A 
ATOM     14  N   UNL     1      -4.166  13.240  20.447  0.00  0.00    +0.000 N 
ATOM     15  C   UNL     1      -2.576  10.631  18.234  0.00  0.00    +0.000 C 
ENDROOT
BRANCH   1  19
ATOM     16  C   UNL     1       3.025   7.400  18.181  0.00  0.00    +0.000 A 
ATOM     17  C   UNL     1       2.509   7.199  19.471  0.00  0.00    +0.000 A 
ATOM     18  C   UNL     1       1.557   8.055  20.018  0.00  0.00    +0.000 A 
ATOM     19  C   UNL     1       1.087   9.119  19.287  0.00  0.00    +0.000 A 
ATOM     20  C   UNL     1       1.685   9.427  18.030  0.00  0.00    +0.000 A 
ATOM     21  C   UNL     1       2.623   8.553  17.483  0.00  0.00    +0.000 A 
BRANCH  16  25
ATOM     22  C   UNL     1       5.472   4.520  16.150  0.00  0.00    +0.000 A 
ATOM     23  C   UNL     1       4.345   4.101  16.858  0.00  0.00    +0.000 A 
ATOM     24  C   UNL     1       3.572   5.032  17.550  0.00  0.00    +0.000 A 
ATOM     25  C   UNL     1       3.911   6.398  17.563  0.00  0.00    +0.000 A 
ATOM     26  C   UNL     1       5.087   6.786  16.909  0.00  0.00    +0.000 A 
ATOM     27  C   UNL     1       5.856   5.863  16.206  0.00  0.00    +0.000 A 
BRANCH  22  29
ATOM     28  C   UNL     1       5.964   4.016  13.780  0.00  0.00    +0.000 C 
ATOM     29  C   UNL     1       6.188   3.578  15.222  0.00  0.00    +0.000 C 
ENDBRANCH  22  29
ENDBRANCH  16  25
ENDBRANCH   1  19
BRANCH  14  30
ATOM     30  C   UNL     1      -3.588  13.402  21.821  0.00  0.00    +0.000 C 
BRANCH  30  31
ATOM     31  C   UNL     1      -4.245  12.898  23.090  0.00  0.00    +0.000 C 
ATOM     32  O   UNL     1      -3.758  11.982  23.748  0.00  0.00    +0.000 OA
BRANCH  31  33
ATOM     33  O   UNL     1      -5.400  13.479  23.447  0.00  0.00    +0.000 OA
ATOM     34  H   UNL     1      -5.883  13.004  24.148  0.00  0.00    +0.000 HD
ENDBRANCH  31  33
ENDBRANCH  30  31
ENDBRANCH  14  30
TORSDOF 6
ENDMDL
MODEL 6
REMARK VINA RESULT:      -9.0      0.915      1.370
REMARK  Name = 
REMARK  7 active torsions:
REMARK  status: ('A' for Active; 'I' for Inactive)
REMARK    1  A    between atoms: C_1  and  C_2
REMARK    2  A    between atoms: C_2  and  C_3
REMARK    3  A    between atoms: C_6  and  C_7
REMARK    4  A    between atoms: C_10  and  C_11
REMARK    5  A    between atoms: N_24  and  C_25
REMARK    6  A    between atoms: C_25  and  C_26
REMARK    7  A    between atoms: C_26  and  O_28
REMARK                            x       y       z     vdW  Elec       q    Type
REMARK                         _______ _______ _______ _____ _____    ______ ____
ROOT
ATOM      1  C   UNL     1       1.188   7.758  20.696  0.00  0.00    +0.000 C 
ATOM      2  O   UNL     1       0.868   6.793  21.435  0.00  0.00    +0.000 OA
ATOM      3  N   UNL     1       2.075   7.539  19.557  0.00  0.00    +0.000 N 
ATOM      4  C   UNL     1       2.141   6.118  19.702  0.00  0.00    +0.000 C 
ATOM      5  C   UNL     1       2.454   5.731  18.387  0.00  0.00    +0.000 C 
ATOM      6  C   UNL     1       3.517   5.787  17.489  0.00  0.00    +0.000 A 
ATOM      7  C   UNL     1       4.062   7.002  17.035  0.00  0.00    +0.000 A 
ATOM      8  C   UNL     1       5.005   6.003  16.193  0.00  0.00    +0.000 A 
ATOM      9  C   UNL     1       6.106   6.210  15.268  0.00  0.00    +0.000 A 
ATOM     10  C   UNL     1       6.740   5.133  14.555  0.00  0.00    +0.000 A 
ATOM     11  C   UNL     1       6.311   3.818  14.679  0.00  0.00    +0.000 A 
ATOM     12  C   UNL     1       5.338   3.527  15.615  0.00  0.00    +0.000 A 
ATOM     13  C   UNL     1       4.797   4.588  16.365  0.00  0.00    +0.000 A 
ATOM     14  N   UNL     1       4.004   4.546  17.431  0.00  0.00    +0.000 N 
ATOM     15  C   UNL     1       2.921   8.108  18.037  0.00  0.00    +0.000 C 
ENDROOT
BRANCH   1  19
ATOM     16  C   UNL     1      -0.886  11.151  22.253  0.00  0.00    +0.000 A 
ATOM     17  C   UNL     1      -0.563  10.054  23.067  0.00  0.00    +0.000 A 
ATOM     18  C   UNL     1       0.117   8.947  22.567  0.00  0.00    +0.000 A 
ATOM     19  C   UNL     1       0.504   8.915  21.249  0.00  0.00    +0.000 A 
ATOM     20  C   UNL     1       0.078   9.950  20.366  0.00  0.00    +0.000 A 
ATOM     21  C   UNL     1      -0.586  11.062  20.882  0.00  0.00    +0.000 A 
BRANCH  16  25
ATOM     22  C   UNL     1      -2.469  14.637  24.187  0.00  0.00    +0.000 A 
ATOM     23  C   UNL     1      -3.263  13.498  24.046  0.00  0.00    +0.000 A 
ATOM     24  C   UNL     1      -2.762  12.379  23.383  0.00  0.00    +0.000 A 
ATOM     25  C   UNL     1      -1.465  12.373  22.835  0.00  0.00    +0.000 A 
ATOM     26  C   UNL     1      -0.714  13.552  22.923  0.00  0.00    +0.000 A 
ATOM     27  C   UNL     1      -1.203  14.668  23.594  0.00  0.00    +0.000 A 
BRANCH  22  29
ATOM     28  C   UNL     1      -1.699  16.287  25.859  0.00  0.00    +0.000 C 
ATOM     29  C   UNL     1      -2.901  15.765  25.083  0.00  0.00    +0.000 C 
ENDBRANCH  22  29
ENDBRANCH  16  25
ENDBRANCH   1  19
BRANCH  14  30
ATOM     30  C   UNL     1       3.812   3.581  18.562  0.00  0.00    +0.000 C 
BRANCH  30  31
ATOM     31  C   UNL     1       4.910   3.150  19.514  0.00  0.00    +0.000 C 
ATOM     32  O   UNL     1       4.742   2.242  20.324  0.00  0.00    +0.000 OA
BRANCH  31  33
ATOM     33  O   UNL     1       6.066   3.827  19.452  0.00  0.00    +0.000 OA
ATOM     34  H   UNL     1       6.171   4.360  18.643  0.00  0.00    +0.000 HD
ENDBRANCH  31  33
ENDBRANCH  30  31
ENDBRANCH  14  30
TORSDOF 6
ENDMDL
MODEL 7
REMARK VINA RESULT:      -8.8      3.406     11.949
REMARK  Name = 
REMARK  7 active torsions:
REMARK  status: ('A' for Active; 'I' for Inactive)
REMARK    1  A    between atoms: C_1  and  C_2
REMARK    2  A    between atoms: C_2  and  C_3
REMARK    3  A    between atoms: C_6  and  C_7
REMARK    4  A    between atoms: C_10  and  C_11
REMARK    5  A    between atoms: N_24  and  C_25
REMARK    6  A    between atoms: C_25  and  C_26
REMARK    7  A    between atoms: C_26  and  O_28
REMARK                            x       y       z     vdW  Elec       q    Type
REMARK                         _______ _______ _______ _____ _____    ______ ____
ROOT
ATOM      1  C   UNL     1       0.439  10.074  20.754  0.00  0.00    +0.000 C 
ATOM      2  O   UNL     1       1.011  10.142  21.871  0.00  0.00    +0.000 OA
ATOM      3  N   UNL     1      -0.759  10.870  20.500  0.00  0.00    +0.000 N 
ATOM      4  C   UNL     1      -0.728  11.571  21.746  0.00  0.00    +0.000 C 
ATOM      5  C   UNL     1      -1.433  12.741  21.410  0.00  0.00    +0.000 C 
ATOM      6  C   UNL     1      -2.729  13.146  21.102  0.00  0.00    +0.000 A 
ATOM      7  C   UNL     1      -3.431  12.657  19.986  0.00  0.00    +0.000 A 
ATOM      8  C   UNL     1      -4.560  13.664  20.538  0.00  0.00    +0.000 A 
ATOM      9  C   UNL     1      -5.906  13.993  20.101  0.00  0.00    +0.000 A 
ATOM     10  C   UNL     1      -6.699  15.021  20.722  0.00  0.00    +0.000 A 
ATOM     11  C   UNL     1      -6.209  15.797  21.764  0.00  0.00    +0.000 A 
ATOM     12  C   UNL     1      -4.978  15.478  22.303  0.00  0.00    +0.000 A 
ATOM     13  C   UNL     1      -4.261  14.408  21.735  0.00  0.00    +0.000 A 
ATOM     14  N   UNL     1      -3.167  13.799  22.181  0.00  0.00    +0.000 N 
ATOM     15  C   UNL     1      -2.067  11.510  19.391  0.00  0.00    +0.000 C 
ENDROOT
BRANCH   1  19
ATOM     16  C   UNL     1       2.689   7.246  18.480  0.00  0.00    +0.000 A 
ATOM     17  C   UNL     1       2.189   8.420  17.897  0.00  0.00    +0.000 A 
ATOM     18  C   UNL     1       1.458   9.349  18.633  0.00  0.00    +0.000 A 
ATOM     19  C   UNL     1       1.225   9.135  19.971  0.00  0.00    +0.000 A 
ATOM     20  C   UNL     1       1.604   7.894  20.561  0.00  0.00    +0.000 A 
ATOM     21  C   UNL     1       2.351   6.981  19.819  0.00  0.00    +0.000 A 
BRANCH  16  25
ATOM     22  C   UNL     1       5.148   4.691  16.066  0.00  0.00    +0.000 A 
ATOM     23  C   UNL     1       4.149   4.139  16.869  0.00  0.00    +0.000 A 
ATOM     24  C   UNL     1       3.375   4.966  17.683  0.00  0.00    +0.000 A 
ATOM     25  C   UNL     1       3.588   6.357  17.724  0.00  0.00    +0.000 A 
ATOM     26  C   UNL     1       4.645   6.879  16.968  0.00  0.00    +0.000 A 
ATOM     27  C   UNL     1       5.412   6.061  16.144  0.00  0.00    +0.000 A 
BRANCH  22  29
ATOM     28  C   UNL     1       6.797   4.730  14.225  0.00  0.00    +0.000 C 
ATOM     29  C   UNL     1       5.839   3.856  15.023  0.00  0.00    +0.000 C 
ENDBRANCH  22  29
ENDBRANCH  16  25
ENDBRANCH   1  19
BRANCH  14  30
ATOM     30  C   UNL     1      -2.590  13.532  23.539  0.00  0.00    +0.000 C 
BRANCH  30  31
ATOM     31  C   UNL     1      -2.023  14.600  24.452  0.00  0.00    +0.000 C 
ATOM     32  O   UNL     1      -0.819  14.842  24.492  0.00  0.00    +0.000 OA
BRANCH  31  33
ATOM     33  O   UNL     1      -2.894  15.251  25.238  0.00  0.00    +0.000 OA
ATOM     34  H   UNL     1      -2.565  15.419  26.140  0.00  0.00    +0.000 HD
ENDBRANCH  31  33
ENDBRANCH  30  31
ENDBRANCH  14  30
TORSDOF 6
ENDMDL
MODEL 8
REMARK VINA RESULT:      -8.8      2.998     11.717
REMARK  Name = 
REMARK  7 active torsions:
REMARK  status: ('A' for Active; 'I' for Inactive)
REMARK    1  A    between atoms: C_1  and  C_2
REMARK    2  A    between atoms: C_2  and  C_3
REMARK    3  A    between atoms: C_6  and  C_7
REMARK    4  A    between atoms: C_10  and  C_11
REMARK    5  A    between atoms: N_24  and  C_25
REMARK    6  A    between atoms: C_25  and  C_26
REMARK    7  A    between atoms: C_26  and  O_28
REMARK                            x       y       z     vdW  Elec       q    Type
REMARK                         _______ _______ _______ _____ _____    ______ ____
ROOT
ATOM      1  C   UNL     1       0.369   9.743  20.903  0.00  0.00    +0.000 C 
ATOM      2  O   UNL     1       0.066   9.072  21.921  0.00  0.00    +0.000 OA
ATOM      3  N   UNL     1      -0.104  11.118  20.771  0.00  0.00    +0.000 N 
ATOM      4  C   UNL     1      -0.705  11.185  22.067  0.00  0.00    +0.000 C 
ATOM      5  C   UNL     1      -0.675  12.571  22.303  0.00  0.00    +0.000 C 
ATOM      6  C   UNL     1      -1.286  13.738  21.851  0.00  0.00    +0.000 A 
ATOM      7  C   UNL     1      -1.188  14.178  20.519  0.00  0.00    +0.000 A 
ATOM      8  C   UNL     1      -2.081  15.390  21.091  0.00  0.00    +0.000 A 
ATOM      9  C   UNL     1      -2.664  16.575  20.485  0.00  0.00    +0.000 A 
ATOM     10  C   UNL     1      -3.356  17.581  21.246  0.00  0.00    +0.000 A 
ATOM     11  C   UNL     1      -3.480  17.501  22.627  0.00  0.00    +0.000 A 
ATOM     12  C   UNL     1      -3.042  16.357  23.264  0.00  0.00    +0.000 A 
ATOM     13  C   UNL     1      -2.449  15.347  22.483  0.00  0.00    +0.000 A 
ATOM     14  N   UNL     1      -2.125  14.103  22.823  0.00  0.00    +0.000 N 
ATOM     15  C   UNL     1      -0.139  12.739  19.920  0.00  0.00    +0.000 C 
ENDROOT
BRANCH   1  19
ATOM     16  C   UNL     1       2.711   7.083  18.521  0.00  0.00    +0.000 A 
ATOM     17  C   UNL     1       2.200   8.279  17.994  0.00  0.00    +0.000 A 
ATOM     18  C   UNL     1       1.440   9.153  18.766  0.00  0.00    +0.000 A 
ATOM     19  C   UNL     1       1.186   8.862  20.085  0.00  0.00    +0.000 A 
ATOM     20  C   UNL     1       1.577   7.598  20.614  0.00  0.00    +0.000 A 
ATOM     21  C   UNL     1       2.353   6.739  19.838  0.00  0.00    +0.000 A 
BRANCH  16  25
ATOM     22  C   UNL     1       5.244   4.682  16.027  0.00  0.00    +0.000 A 
ATOM     23  C   UNL     1       4.326   4.070  16.881  0.00  0.00    +0.000 A 
ATOM     24  C   UNL     1       3.530   4.849  17.720  0.00  0.00    +0.000 A 
ATOM     25  C   UNL     1       3.640   6.253  17.736  0.00  0.00    +0.000 A 
ATOM     26  C   UNL     1       4.620   6.840  16.927  0.00  0.00    +0.000 A 
ATOM     27  C   UNL     1       5.409   6.069  16.078  0.00  0.00    +0.000 A 
BRANCH  22  29
ATOM     28  C   UNL     1       6.886   4.798  14.183  0.00  0.00    +0.000 C 
ATOM     29  C   UNL     1       5.949   3.886  14.964  0.00  0.00    +0.000 C 
ENDBRANCH  22  29
ENDBRANCH  16  25
ENDBRANCH   1  19
BRANCH  14  30
ATOM     30  C   UNL     1      -2.671  13.102  23.796  0.00  0.00    +0.000 C 
BRANCH  30  31
ATOM     31  C   UNL     1      -4.058  12.498  23.714  0.00  0.00    +0.000 C 
ATOM     32  O   UNL     1      -4.646  12.093  24.714  0.00  0.00    +0.000 OA
BRANCH  31  33
ATOM     33  O   UNL     1      -4.605  12.399  22.493  0.00  0.00    +0.000 OA
ATOM     34  H   UNL     1      -4.155  12.931  21.812  0.00  0.00    +0.000 HD
ENDBRANCH  31  33
ENDBRANCH  30  31
ENDBRANCH  14  30
TORSDOF 6
ENDMDL
MODEL 9
REMARK VINA RESULT:      -8.7      3.095     11.858
REMARK  Name = 
REMARK  7 active torsions:
REMARK  status: ('A' for Active; 'I' for Inactive)
REMARK    1  A    between atoms: C_1  and  C_2
REMARK    2  A    between atoms: C_2  and  C_3
REMARK    3  A    between atoms: C_6  and  C_7
REMARK    4  A    between atoms: C_10  and  C_11
REMARK    5  A    between atoms: N_24  and  C_25
REMARK    6  A    between atoms: C_25  and  C_26
REMARK    7  A    between atoms: C_26  and  O_28
REMARK                            x       y       z     vdW  Elec       q    Type
REMARK                         _______ _______ _______ _____ _____    ______ ____
ROOT
ATOM      1  C   UNL     1       0.237   9.946  21.027  0.00  0.00    +0.000 C 
ATOM      2  O   UNL     1       0.097   9.317  22.106  0.00  0.00    +0.000 OA
ATOM      3  N   UNL     1      -0.354  11.273  20.877  0.00  0.00    +0.000 N 
ATOM      4  C   UNL     1      -0.818  11.373  22.227  0.00  0.00    +0.000 C 
ATOM      5  C   UNL     1      -0.872  12.770  22.386  0.00  0.00    +0.000 C 
ATOM      6  C   UNL     1      -1.618  13.859  21.945  0.00  0.00    +0.000 A 
ATOM      7  C   UNL     1      -1.697  14.225  20.589  0.00  0.00    +0.000 A 
ATOM      8  C   UNL     1      -2.616  15.401  21.193  0.00  0.00    +0.000 A 
ATOM      9  C   UNL     1      -3.352  16.502  20.595  0.00  0.00    +0.000 A 
ATOM     10  C   UNL     1      -4.037  17.499  21.375  0.00  0.00    +0.000 A 
ATOM     11  C   UNL     1      -4.006  17.493  22.763  0.00  0.00    +0.000 A 
ATOM     12  C   UNL     1      -3.414  16.424  23.406  0.00  0.00    +0.000 A 
ATOM     13  C   UNL     1      -2.830  15.414  22.618  0.00  0.00    +0.000 A 
ATOM     14  N   UNL     1      -2.375  14.220  22.983  0.00  0.00    +0.000 N 
ATOM     15  C   UNL     1      -0.607  12.833  19.953  0.00  0.00    +0.000 C 
ENDROOT
BRANCH   1  19
ATOM     16  C   UNL     1       2.510   7.327  18.536  0.00  0.00    +0.000 A 
ATOM     17  C   UNL     1       1.934   8.502  18.029  0.00  0.00    +0.000 A 
ATOM     18  C   UNL     1       1.196   9.363  18.836  0.00  0.00    +0.000 A 
ATOM     19  C   UNL     1       1.029   9.080  20.171  0.00  0.00    +0.000 A 
ATOM     20  C   UNL     1       1.487   7.833  20.687  0.00  0.00    +0.000 A 
ATOM     21  C   UNL     1       2.241   6.988  19.875  0.00  0.00    +0.000 A 
BRANCH  16  25
ATOM     22  C   UNL     1       5.305   4.934  16.331  0.00  0.00    +0.000 A 
ATOM     23  C   UNL     1       5.401   6.325  16.297  0.00  0.00    +0.000 A 
ATOM     24  C   UNL     1       4.470   7.104  16.983  0.00  0.00    +0.000 A 
ATOM     25  C   UNL     1       3.415   6.515  17.705  0.00  0.00    +0.000 A 
ATOM     26  C   UNL     1       3.293   5.120  17.662  0.00  0.00    +0.000 A 
ATOM     27  C   UNL     1       4.227   4.337  16.991  0.00  0.00    +0.000 A 
BRANCH  22  29
ATOM     28  C   UNL     1       6.292   3.981  14.274  0.00  0.00    +0.000 C 
ATOM     29  C   UNL     1       6.416   4.076  15.790  0.00  0.00    +0.000 C 
ENDBRANCH  22  29
ENDBRANCH  16  25
ENDBRANCH   1  19
BRANCH  14  30
ATOM     30  C   UNL     1      -2.734  13.242  24.061  0.00  0.00    +0.000 C 
BRANCH  30  31
ATOM     31  C   UNL     1      -4.113  12.644  24.249  0.00  0.00    +0.000 C 
ATOM     32  O   UNL     1      -4.835  12.374  23.292  0.00  0.00    +0.000 OA
BRANCH  31  33
ATOM     33  O   UNL     1      -4.524  12.451  25.512  0.00  0.00    +0.000 OA
ATOM     34  H   UNL     1      -5.382  12.866  25.717  0.00  0.00    +0.000 HD
ENDBRANCH  31  33
ENDBRANCH  30  31
ENDBRANCH  14  30
TORSDOF 6
ENDMDL
