MODEL 1
REMARK VINA RESULT:      -9.3      0.000      0.000
REMARK  Name = 
REMARK  5 active torsions:
REMARK  status: ('A' for Active; 'I' for Inactive)
REMARK    1  A    between atoms: C_2  and  C_15
REMARK    2  A    between atoms: N_3  and  C_4
REMARK    3  A    between atoms: C_4  and  C_5
REMARK    4  A    between atoms: N_18  and  S_19
REMARK    5  A    between atoms: S_19  and  C_22
REMARK                            x       y       z     vdW  Elec       q    Type
REMARK                         _______ _______ _______ _____ _____    ______ ____
ROOT
ATOM      1  C   UNL     1       7.759   5.711  18.108  0.00  0.00    +0.000 C 
ATOM      2  C   UNL     1       7.315   4.524  17.247  0.00  0.00    +0.000 C 
ATOM      3  C   UNL     1       5.793   4.384  17.198  0.00  0.00    +0.000 C 
ATOM      4  N   UNL     1       5.213   4.308  18.572  0.00  0.00    +0.000 NA
ATOM      5  C   UNL     1       5.626   5.452  19.435  0.00  0.00    +0.000 C 
ATOM      6  C   UNL     1       7.145   5.560  19.502  0.00  0.00    +0.000 C 
ENDROOT
BRANCH   1   8
ATOM      7  O   UNL     1       6.632   7.168  16.516  0.00  0.00    +0.000 OA
ATOM      8  C   UNL     1       7.410   7.055  17.458  0.00  0.00    +0.000 C 
ATOM      9  N   UNL     1       8.070   8.130  18.004  0.00  0.00    +0.000 N 
ATOM     10  H   UNL     1       8.898   7.959  18.562  0.00  0.00    +0.000 HD
BRANCH   9  11
ATOM     11  C   UNL     1       7.903   9.482  17.493  0.00  0.00    +0.000 C 
BRANCH  11  12
ATOM     12  C   UNL     1       8.318  10.552  18.510  0.00  0.00    +0.000 C 
ATOM     13  C   UNL     1       9.410  10.000  19.427  0.00  0.00    +0.000 C 
ATOM     14  O   UNL     1       9.840  10.983  20.375  0.00  0.00    +0.000 OA
ATOM     15  C   UNL     1      10.087  12.184  19.766  0.00  0.00    +0.000 A 
ATOM     16  C   UNL     1      10.876  13.095  20.463  0.00  0.00    +0.000 A 
ATOM     17  C   UNL     1      11.189  14.331  19.890  0.00  0.00    +0.000 A 
ATOM     18  C   UNL     1      10.699  14.658  18.625  0.00  0.00    +0.000 A 
ATOM     19  C   UNL     1       9.896  13.749  17.932  0.00  0.00    +0.000 A 
ATOM     20  C   UNL     1       9.586  12.518  18.504  0.00  0.00    +0.000 A 
ATOM     21  O   UNL     1       8.810  11.678  17.755  0.00  0.00    +0.000 OA
ENDBRANCH  11  12
ENDBRANCH   9  11
ENDBRANCH   1   8
BRANCH   4  22
ATOM     22  S   UNL     1       3.488   4.128  18.563  0.00  0.00    +0.000 S 
ATOM     23  O   UNL     1       3.097   3.654  17.251  0.00  0.00    +0.000 OA
ATOM     24  O   UNL     1       3.122   3.394  19.758  0.00  0.00    +0.000 OA
BRANCH  22  25
ATOM     25  C   UNL     1       2.896   5.794  18.710  0.00  0.00    +0.000 A 
ATOM     26  C   UNL     1       3.037   6.684  17.629  0.00  0.00    +0.000 A 
ATOM     27  C   UNL     1       2.596   8.004  17.746  0.00  0.00    +0.000 A 
ATOM     28  C   UNL     1       1.998   8.394  18.933  0.00  0.00    +0.000 A 
ATOM     29  C   UNL     1       1.849   7.501  20.003  0.00  0.00    +0.000 A 
ATOM     30  C   UNL     1       2.316   6.200  19.918  0.00  0.00    +0.000 A 
ATOM     31  C   UNL     1       1.175   8.170  21.161  0.00  0.00    +0.000 C 
ATOM     32  C   UNL     1       0.544   9.387  20.469  0.00  0.00    +0.000 C 
ATOM     33  C   UNL     1       1.466   9.746  19.296  0.00  0.00    +0.000 C 
ENDBRANCH  22  25
ENDBRANCH   4  22
TORSDOF 5
ENDMDL
MODEL 2
REMARK VINA RESULT:      -9.2      0.492      1.220
REMARK  Name = 
REMARK  5 active torsions:
REMARK  status: ('A' for Active; 'I' for Inactive)
REMARK    1  A    between atoms: C_2  and  C_15
REMARK    2  A    between atoms: N_3  and  C_4
REMARK    3  A    between atoms: C_4  and  C_5
REMARK    4  A    between atoms: N_18  and  S_19
REMARK    5  A    between atoms: S_19  and  C_22
REMARK                            x       y       z     vdW  Elec       q    Type
REMARK                         _______ _______ _______ _____ _____    ______ ____
ROOT
ATOM      1  C   UNL     1       7.822   5.775  18.258  0.00  0.00    +0.000 C 
ATOM      2  C   UNL     1       7.537   4.574  17.350  0.00  0.00    +0.000 C 
ATOM      3  C   UNL     1       6.039   4.325  17.173  0.00  0.00    +0.000 C 
ATOM      4  N   UNL     1       5.356   4.185  18.494  0.00  0.00    +0.000 NA
ATOM      5  C   UNL     1       5.612   5.341  19.401  0.00  0.00    +0.000 C 
ATOM      6  C   UNL     1       7.109   5.557  19.595  0.00  0.00    +0.000 C 
ENDROOT
BRANCH   1   8
ATOM      7  O   UNL     1       6.588   7.189  16.707  0.00  0.00    +0.000 OA
ATOM      8  C   UNL     1       7.429   7.101  17.595  0.00  0.00    +0.000 C 
ATOM      9  N   UNL     1       8.127   8.190  18.063  0.00  0.00    +0.000 N 
ATOM     10  H   UNL     1       8.991   8.033  18.567  0.00  0.00    +0.000 HD
BRANCH   9  11
ATOM     11  C   UNL     1       7.925   9.527  17.527  0.00  0.00    +0.000 C 
BRANCH  11  12
ATOM     12  C   UNL     1       8.382  10.625  18.495  0.00  0.00    +0.000 C 
ATOM     13  C   UNL     1       9.420  10.062  19.466  0.00  0.00    +0.000 C 
ATOM     14  O   UNL     1       9.887  11.069  20.371  0.00  0.00    +0.000 OA
ATOM     15  C   UNL     1      10.217  12.219  19.705  0.00  0.00    +0.000 A 
ATOM     16  C   UNL     1      11.043  13.120  20.371  0.00  0.00    +0.000 A 
ATOM     17  C   UNL     1      11.441  14.302  19.741  0.00  0.00    +0.000 A 
ATOM     18  C   UNL     1      10.997  14.587  18.449  0.00  0.00    +0.000 A 
ATOM     19  C   UNL     1      10.156  13.690  17.786  0.00  0.00    +0.000 A 
ATOM     20  C   UNL     1       9.763  12.511  18.416  0.00  0.00    +0.000 A 
ATOM     21  O   UNL     1       8.955  11.679  17.693  0.00  0.00    +0.000 OA
ENDBRANCH  11  12
ENDBRANCH   9  11
ENDBRANCH   1   8
BRANCH   4  22
ATOM     22  S   UNL     1       3.655   3.881  18.340  0.00  0.00    +0.000 S 
ATOM     23  O   UNL     1       3.355   3.740  16.930  0.00  0.00    +0.000 OA
ATOM     24  O   UNL     1       3.314   2.833  19.281  0.00  0.00    +0.000 OA
BRANCH  22  25
ATOM     25  C   UNL     1       2.911   5.400  18.880  0.00  0.00    +0.000 A 
ATOM     26  C   UNL     1       2.403   5.503  20.188  0.00  0.00    +0.000 A 
ATOM     27  C   UNL     1       1.794   6.686  20.611  0.00  0.00    +0.000 A 
ATOM     28  C   UNL     1       1.733   7.747  19.724  0.00  0.00    +0.000 A 
ATOM     29  C   UNL     1       2.251   7.644  18.426  0.00  0.00    +0.000 A 
ATOM     30  C   UNL     1       2.823   6.466  17.977  0.00  0.00    +0.000 A 
ATOM     31  C   UNL     1       2.060   8.925  17.676  0.00  0.00    +0.000 C 
ATOM     32  C   UNL     1       1.804   9.906  18.830  0.00  0.00    +0.000 C 
ATOM     33  C   UNL     1       1.121   9.097  19.942  0.00  0.00    +0.000 C 
ENDBRANCH  22  25
ENDBRANCH   4  22
TORSDOF 5
ENDMDL
MODEL 3
REMARK VINA RESULT:      -9.1      0.861      1.254
REMARK  Name = 
REMARK  5 active torsions:
REMARK  status: ('A' for Active; 'I' for Inactive)
REMARK    1  A    between atoms: C_2  and  C_15
REMARK    2  A    between atoms: N_3  and  C_4
REMARK    3  A    between atoms: C_4  and  C_5
REMARK    4  A    between atoms: N_18  and  S_19
REMARK    5  A    between atoms: S_19  and  C_22
REMARK                            x       y       z     vdW  Elec       q    Type
REMARK                         _______ _______ _______ _____ _____    ______ ____
ROOT
ATOM      1  C   UNL     1       7.809   5.654  18.233  0.00  0.00    +0.000 C 
ATOM      2  C   UNL     1       7.372   4.615  17.196  0.00  0.00    +0.000 C 
ATOM      3  C   UNL     1       5.851   4.533  17.065  0.00  0.00    +0.000 C 
ATOM      4  N   UNL     1       5.208   4.285  18.390  0.00  0.00    +0.000 NA
ATOM      5  C   UNL     1       5.612   5.283  19.422  0.00  0.00    +0.000 C 
ATOM      6  C   UNL     1       7.129   5.330  19.566  0.00  0.00    +0.000 C 
ENDROOT
BRANCH   1   8
ATOM      7  O   UNL     1       6.701   7.365  16.900  0.00  0.00    +0.000 OA
ATOM      8  C   UNL     1       7.525   7.087  17.766  0.00  0.00    +0.000 C 
ATOM      9  N   UNL     1       8.300   8.042  18.382  0.00  0.00    +0.000 N 
ATOM     10  H   UNL     1       9.145   7.748  18.857  0.00  0.00    +0.000 HD
BRANCH   9  11
ATOM     11  C   UNL     1       8.206   9.453  18.041  0.00  0.00    +0.000 C 
BRANCH  11  12
ATOM     12  C   UNL     1       9.270  10.302  18.748  0.00  0.00    +0.000 C 
ATOM     13  C   UNL     1       9.935  11.241  17.743  0.00  0.00    +0.000 C 
ATOM     14  O   UNL     1      10.919  12.068  18.375  0.00  0.00    +0.000 OA
ATOM     15  C   UNL     1      10.428  12.631  19.524  0.00  0.00    +0.000 A 
ATOM     16  C   UNL     1      11.102  13.744  20.019  0.00  0.00    +0.000 A 
ATOM     17  C   UNL     1      10.641  14.384  21.174  0.00  0.00    +0.000 A 
ATOM     18  C   UNL     1       9.515  13.897  21.838  0.00  0.00    +0.000 A 
ATOM     19  C   UNL     1       8.848  12.772  21.349  0.00  0.00    +0.000 A 
ATOM     20  C   UNL     1       9.308  12.137  20.198  0.00  0.00    +0.000 A 
ATOM     21  O   UNL     1       8.590  11.054  19.774  0.00  0.00    +0.000 OA
ENDBRANCH  11  12
ENDBRANCH   9  11
ENDBRANCH   1   8
BRANCH   4  22
ATOM     22  S   UNL     1       3.480   4.165  18.285  0.00  0.00    +0.000 S 
ATOM     23  O   UNL     1       3.141   3.808  16.922  0.00  0.00    +0.000 OA
ATOM     24  O   UNL     1       3.033   3.353  19.399  0.00  0.00    +0.000 OA
BRANCH  22  25
ATOM     25  C   UNL     1       2.932   5.834  18.536  0.00  0.00    +0.000 A 
ATOM     26  C   UNL     1       3.127   6.794  17.525  0.00  0.00    +0.000 A 
ATOM     27  C   UNL     1       2.721   8.114  17.725  0.00  0.00    +0.000 A 
ATOM     28  C   UNL     1       2.103   8.437  18.922  0.00  0.00    +0.000 A 
ATOM     29  C   UNL     1       1.901   7.477  19.921  0.00  0.00    +0.000 A 
ATOM     30  C   UNL     1       2.332   6.171  19.756  0.00  0.00    +0.000 A 
ATOM     31  C   UNL     1       1.216   8.082  21.107  0.00  0.00    +0.000 C 
ATOM     32  C   UNL     1       0.637   9.363  20.489  0.00  0.00    +0.000 C 
ATOM     33  C   UNL     1       1.600   9.776  19.368  0.00  0.00    +0.000 C 
ENDBRANCH  22  25
ENDBRANCH   4  22
TORSDOF 5
ENDMDL
MODEL 4
REMARK VINA RESULT:      -9.0      0.962      1.877
REMARK  Name = 
REMARK  5 active torsions:
REMARK  status: ('A' for Active; 'I' for Inactive)
REMARK    1  A    between atoms: C_2  and  C_15
REMARK    2  A    between atoms: N_3  and  C_4
REMARK    3  A    between atoms: C_4  and  C_5
REMARK    4  A    between atoms: N_18  and  S_19
REMARK    5  A    between atoms: S_19  and  C_22
REMARK                            x       y       z     vdW  Elec       q    Type
REMARK                         _______ _______ _______ _____ _____    ______ ____
ROOT
ATOM      1  C   UNL     1       7.812   5.706  18.242  0.00  0.00    +0.000 C 
ATOM      2  C   UNL     1       7.502   4.582  17.248  0.00  0.00    +0.000 C 
ATOM      3  C   UNL     1       5.999   4.381  17.053  0.00  0.00    +0.000 C 
ATOM      4  N   UNL     1       5.311   4.158  18.361  0.00  0.00    +0.000 NA
ATOM      5  C   UNL     1       5.591   5.238  19.351  0.00  0.00    +0.000 C 
ATOM      6  C   UNL     1       7.092   5.405  19.559  0.00  0.00    +0.000 C 
ENDROOT
BRANCH   1   8
ATOM      7  O   UNL     1       6.571   7.265  16.842  0.00  0.00    +0.000 OA
ATOM      8  C   UNL     1       7.450   7.086  17.680  0.00  0.00    +0.000 C 
ATOM      9  N   UNL     1       8.219   8.113  18.175  0.00  0.00    +0.000 N 
ATOM     10  H   UNL     1       9.099   7.887  18.624  0.00  0.00    +0.000 HD
BRANCH   9  11
ATOM     11  C   UNL     1       8.054   9.488  17.730  0.00  0.00    +0.000 C 
BRANCH  11  12
ATOM     12  C   UNL     1       9.056  10.444  18.388  0.00  0.00    +0.000 C 
ATOM     13  C   UNL     1       9.098  11.763  17.615  0.00  0.00    +0.000 C 
ATOM     14  O   UNL     1      10.008  12.691  18.218  0.00  0.00    +0.000 OA
ATOM     15  C   UNL     1       9.813  12.767  19.571  0.00  0.00    +0.000 A 
ATOM     16  C   UNL     1      10.325  13.888  20.220  0.00  0.00    +0.000 A 
ATOM     17  C   UNL     1      10.141  14.043  21.597  0.00  0.00    +0.000 A 
ATOM     18  C   UNL     1       9.456  13.068  22.324  0.00  0.00    +0.000 A 
ATOM     19  C   UNL     1       8.955  11.938  21.675  0.00  0.00    +0.000 A 
ATOM     20  C   UNL     1       9.138  11.786  20.302  0.00  0.00    +0.000 A 
ATOM     21  O   UNL     1       8.602  10.661  19.740  0.00  0.00    +0.000 OA
ENDBRANCH  11  12
ENDBRANCH   9  11
ENDBRANCH   1   8
BRANCH   4  22
ATOM     22  S   UNL     1       3.604   3.904  18.185  0.00  0.00    +0.000 S 
ATOM     23  O   UNL     1       3.310   3.822  16.769  0.00  0.00    +0.000 OA
ATOM     24  O   UNL     1       3.230   2.832  19.086  0.00  0.00    +0.000 OA
BRANCH  22  25
ATOM     25  C   UNL     1       2.896   5.421  18.775  0.00  0.00    +0.000 A 
ATOM     26  C   UNL     1       2.420   5.503  20.097  0.00  0.00    +0.000 A 
ATOM     27  C   UNL     1       1.838   6.685  20.560  0.00  0.00    +0.000 A 
ATOM     28  C   UNL     1       1.773   7.767  19.697  0.00  0.00    +0.000 A 
ATOM     29  C   UNL     1       2.259   7.684  18.385  0.00  0.00    +0.000 A 
ATOM     30  C   UNL     1       2.803   6.509  17.897  0.00  0.00    +0.000 A 
ATOM     31  C   UNL     1       2.070   8.985  17.667  0.00  0.00    +0.000 C 
ATOM     32  C   UNL     1       1.856   9.943  18.849  0.00  0.00    +0.000 C 
ATOM     33  C   UNL     1       1.187   9.120  19.959  0.00  0.00    +0.000 C 
ENDBRANCH  22  25
ENDBRANCH   4  22
TORSDOF 5
ENDMDL
MODEL 5
REMARK VINA RESULT:      -8.6      5.496      9.700
REMARK  Name = 
REMARK  5 active torsions:
REMARK  status: ('A' for Active; 'I' for Inactive)
REMARK    1  A    between atoms: C_2  and  C_15
REMARK    2  A    between atoms: N_3  and  C_4
REMARK    3  A    between atoms: C_4  and  C_5
REMARK    4  A    between atoms: N_18  and  S_19
REMARK    5  A    between atoms: S_19  and  C_22
REMARK                            x       y       z     vdW  Elec       q    Type
REMARK                         _______ _______ _______ _____ _____    ______ ____
ROOT
ATOM      1  C   UNL     1       0.081  10.122  18.779  0.00  0.00    +0.000 C 
ATOM      2  C   UNL     1      -0.333  11.508  18.275  0.00  0.00    +0.000 C 
ATOM      3  C   UNL     1       0.539  12.620  18.859  0.00  0.00    +0.000 C 
ATOM      4  N   UNL     1       0.555  12.564  20.352  0.00  0.00    +0.000 NA
ATOM      5  C   UNL     1       0.957  11.227  20.874  0.00  0.00    +0.000 C 
ATOM      6  C   UNL     1       0.058  10.132  20.310  0.00  0.00    +0.000 C 
ENDROOT
BRANCH   1   8
ATOM      7  O   UNL     1       2.204  10.451  17.635  0.00  0.00    +0.000 OA
ATOM      8  C   UNL     1       1.440   9.688  18.217  0.00  0.00    +0.000 C 
ATOM      9  N   UNL     1       1.720   8.354  18.394  0.00  0.00    +0.000 N 
ATOM     10  H   UNL     1       0.958   7.721  18.608  0.00  0.00    +0.000 HD
BRANCH   9  11
ATOM     11  C   UNL     1       2.943   7.746  17.892  0.00  0.00    +0.000 C 
BRANCH  11  12
ATOM     12  C   UNL     1       2.997   6.235  18.144  0.00  0.00    +0.000 C 
ATOM     13  C   UNL     1       4.435   5.809  18.437  0.00  0.00    +0.000 C 
ATOM     14  O   UNL     1       4.519   4.404  18.702  0.00  0.00    +0.000 OA
ATOM     15  C   UNL     1       3.558   4.011  19.596  0.00  0.00    +0.000 A 
ATOM     16  C   UNL     1       3.759   2.795  20.245  0.00  0.00    +0.000 A 
ATOM     17  C   UNL     1       2.831   2.344  21.188  0.00  0.00    +0.000 A 
ATOM     18  C   UNL     1       1.696   3.106  21.469  0.00  0.00    +0.000 A 
ATOM     19  C   UNL     1       1.487   4.318  20.807  0.00  0.00    +0.000 A 
ATOM     20  C   UNL     1       2.414   4.766  19.869  0.00  0.00    +0.000 A 
ATOM     21  O   UNL     1       2.146   5.969  19.279  0.00  0.00    +0.000 OA
ENDBRANCH  11  12
ENDBRANCH   9  11
ENDBRANCH   1   8
BRANCH   4  22
ATOM     22  S   UNL     1       1.518  13.822  21.059  0.00  0.00    +0.000 S 
ATOM     23  O   UNL     1       0.835  14.290  22.248  0.00  0.00    +0.000 OA
ATOM     24  O   UNL     1       2.882  13.336  21.128  0.00  0.00    +0.000 OA
BRANCH  22  25
ATOM     25  C   UNL     1       1.436  15.131  19.863  0.00  0.00    +0.000 A 
ATOM     26  C   UNL     1       2.578  15.465  19.113  0.00  0.00    +0.000 A 
ATOM     27  C   UNL     1       2.528  16.511  18.189  0.00  0.00    +0.000 A 
ATOM     28  C   UNL     1       1.326  17.178  18.017  0.00  0.00    +0.000 A 
ATOM     29  C   UNL     1       0.188  16.834  18.758  0.00  0.00    +0.000 A 
ATOM     30  C   UNL     1       0.230  15.826  19.706  0.00  0.00    +0.000 A 
ATOM     31  C   UNL     1      -0.971  17.704  18.382  0.00  0.00    +0.000 C 
ATOM     32  C   UNL     1      -0.497  18.257  17.030  0.00  0.00    +0.000 C 
ATOM     33  C   UNL     1       1.035  18.330  17.105  0.00  0.00    +0.000 C 
ENDBRANCH  22  25
ENDBRANCH   4  22
TORSDOF 5
ENDMDL
MODEL 6
REMARK VINA RESULT:      -8.5      5.206      8.173
REMARK  Name = 
REMARK  5 active torsions:
REMARK  status: ('A' for Active; 'I' for Inactive)
REMARK    1  A    between atoms: C_2  and  C_15
REMARK    2  A    between atoms: N_3  and  C_4
REMARK    3  A    between atoms: C_4  and  C_5
REMARK    4  A    between atoms: N_18  and  S_19
REMARK    5  A    between atoms: S_19  and  C_22
REMARK                            x       y       z     vdW  Elec       q    Type
REMARK                         _______ _______ _______ _____ _____    ______ ____
ROOT
ATOM      1  C   UNL     1       1.949   4.220  19.222  0.00  0.00    +0.000 C 
ATOM      2  C   UNL     1       3.025   3.129  19.219  0.00  0.00    +0.000 C 
ATOM      3  C   UNL     1       4.428   3.701  19.010  0.00  0.00    +0.000 C 
ATOM      4  N   UNL     1       4.492   4.534  17.772  0.00  0.00    +0.000 NA
ATOM      5  C   UNL     1       3.457   5.608  17.746  0.00  0.00    +0.000 C 
ATOM      6  C   UNL     1       2.061   5.020  17.922  0.00  0.00    +0.000 C 
ENDROOT
BRANCH   1   8
ATOM      7  O   UNL     1       2.179   4.671  21.603  0.00  0.00    +0.000 OA
ATOM      8  C   UNL     1       2.038   5.111  20.466  0.00  0.00    +0.000 C 
ATOM      9  N   UNL     1       1.916   6.455  20.204  0.00  0.00    +0.000 N 
ATOM     10  H   UNL     1       1.517   6.742  19.318  0.00  0.00    +0.000 HD
BRANCH   9  11
ATOM     11  C   UNL     1       1.932   7.455  21.260  0.00  0.00    +0.000 C 
BRANCH  11  12
ATOM     12  C   UNL     1       0.693   8.358  21.236  0.00  0.00    +0.000 C 
ATOM     13  C   UNL     1       0.699   9.279  22.456  0.00  0.00    +0.000 C 
ATOM     14  O   UNL     1      -0.434  10.155  22.453  0.00  0.00    +0.000 OA
ATOM     15  C   UNL     1      -0.599  10.745  21.228  0.00  0.00    +0.000 A 
ATOM     16  C   UNL     1      -1.384  11.895  21.182  0.00  0.00    +0.000 A 
ATOM     17  C   UNL     1      -1.575  12.563  19.969  0.00  0.00    +0.000 A 
ATOM     18  C   UNL     1      -0.990  12.070  18.802  0.00  0.00    +0.000 A 
ATOM     19  C   UNL     1      -0.215  10.909  18.846  0.00  0.00    +0.000 A 
ATOM     20  C   UNL     1      -0.025  10.246  20.056  0.00  0.00    +0.000 A 
ATOM     21  O   UNL     1       0.761   9.129  20.018  0.00  0.00    +0.000 OA
ENDBRANCH  11  12
ENDBRANCH   9  11
ENDBRANCH   1   8
BRANCH   4  22
ATOM     22  S   UNL     1       6.072   5.189  17.486  0.00  0.00    +0.000 S 
ATOM     23  O   UNL     1       5.982   6.631  17.593  0.00  0.00    +0.000 OA
ATOM     24  O   UNL     1       7.007   4.439  18.302  0.00  0.00    +0.000 OA
BRANCH  22  25
ATOM     25  C   UNL     1       6.374   4.814  15.778  0.00  0.00    +0.000 A 
ATOM     26  C   UNL     1       7.593   5.192  15.184  0.00  0.00    +0.000 A 
ATOM     27  C   UNL     1       7.827   4.924  13.834  0.00  0.00    +0.000 A 
ATOM     28  C   UNL     1       6.847   4.256  13.117  0.00  0.00    +0.000 A 
ATOM     29  C   UNL     1       5.640   3.872  13.715  0.00  0.00    +0.000 A 
ATOM     30  C   UNL     1       5.375   4.164  15.042  0.00  0.00    +0.000 A 
ATOM     31  C   UNL     1       4.759   3.171  12.728  0.00  0.00    +0.000 C 
ATOM     32  C   UNL     1       5.780   2.789  11.645  0.00  0.00    +0.000 C 
ATOM     33  C   UNL     1       6.864   3.875  11.669  0.00  0.00    +0.000 C 
ENDBRANCH  22  25
ENDBRANCH   4  22
TORSDOF 5
ENDMDL
MODEL 7
REMARK VINA RESULT:      -8.4      5.924     10.097
REMARK  Name = 
REMARK  5 active torsions:
REMARK  status: ('A' for Active; 'I' for Inactive)
REMARK    1  A    between atoms: C_2  and  C_15
REMARK    2  A    between atoms: N_3  and  C_4
REMARK    3  A    between atoms: C_4  and  C_5
REMARK    4  A    between atoms: N_18  and  S_19
REMARK    5  A    between atoms: S_19  and  C_22
REMARK                            x       y       z     vdW  Elec       q    Type
REMARK                         _______ _______ _______ _____ _____    ______ ____
ROOT
ATOM      1  C   UNL     1      -0.336  10.748  18.052  0.00  0.00    +0.000 C 
ATOM      2  C   UNL     1      -0.517  12.259  18.229  0.00  0.00    +0.000 C 
ATOM      3  C   UNL     1      -0.214  12.714  19.657  0.00  0.00    +0.000 C 
ATOM      4  N   UNL     1      -1.024  11.947  20.650  0.00  0.00    +0.000 NA
ATOM      5  C   UNL     1      -0.868  10.471  20.505  0.00  0.00    +0.000 C 
ATOM      6  C   UNL     1      -1.205  10.027  19.086  0.00  0.00    +0.000 C 
ENDROOT
BRANCH   1   8
ATOM      7  O   UNL     1       2.054  11.127  18.313  0.00  0.00    +0.000 OA
ATOM      8  C   UNL     1       1.137  10.332  18.134  0.00  0.00    +0.000 C 
ATOM      9  N   UNL     1       1.350   8.985  17.960  0.00  0.00    +0.000 N 
ATOM     10  H   UNL     1       0.619   8.429  17.534  0.00  0.00    +0.000 HD
BRANCH   9  11
ATOM     11  C   UNL     1       2.685   8.405  17.962  0.00  0.00    +0.000 C 
BRANCH  11  12
ATOM     12  C   UNL     1       2.766   7.116  18.788  0.00  0.00    +0.000 C 
ATOM     13  C   UNL     1       1.925   7.259  20.057  0.00  0.00    +0.000 C 
ATOM     14  O   UNL     1       1.959   6.062  20.842  0.00  0.00    +0.000 OA
ATOM     15  C   UNL     1       1.733   4.955  20.067  0.00  0.00    +0.000 A 
ATOM     16  C   UNL     1       1.342   3.792  20.726  0.00  0.00    +0.000 A 
ATOM     17  C   UNL     1       1.070   2.633  19.995  0.00  0.00    +0.000 A 
ATOM     18  C   UNL     1       1.205   2.636  18.605  0.00  0.00    +0.000 A 
ATOM     19  C   UNL     1       1.611   3.799  17.947  0.00  0.00    +0.000 A 
ATOM     20  C   UNL     1       1.879   4.954  18.678  0.00  0.00    +0.000 A 
ATOM     21  O   UNL     1       2.254   6.054  17.957  0.00  0.00    +0.000 OA
ENDBRANCH  11  12
ENDBRANCH   9  11
ENDBRANCH   1   8
BRANCH   4  22
ATOM     22  S   UNL     1      -0.726  12.445  22.285  0.00  0.00    +0.000 S 
ATOM     23  O   UNL     1      -0.501  11.253  23.078  0.00  0.00    +0.000 OA
ATOM     24  O   UNL     1       0.259  13.507  22.243  0.00  0.00    +0.000 OA
BRANCH  22  25
ATOM     25  C   UNL     1      -2.281  13.125  22.803  0.00  0.00    +0.000 A 
ATOM     26  C   UNL     1      -2.320  14.062  23.852  0.00  0.00    +0.000 A 
ATOM     27  C   UNL     1      -3.542  14.582  24.282  0.00  0.00    +0.000 A 
ATOM     28  C   UNL     1      -4.695  14.174  23.631  0.00  0.00    +0.000 A 
ATOM     29  C   UNL     1      -4.651  13.250  22.579  0.00  0.00    +0.000 A 
ATOM     30  C   UNL     1      -3.452  12.695  22.166  0.00  0.00    +0.000 A 
ATOM     31  C   UNL     1      -6.026  12.981  22.052  0.00  0.00    +0.000 C 
ATOM     32  C   UNL     1      -6.793  14.194  22.602  0.00  0.00    +0.000 C 
ATOM     33  C   UNL     1      -6.108  14.578  23.921  0.00  0.00    +0.000 C 
ENDBRANCH  22  25
ENDBRANCH   4  22
TORSDOF 5
ENDMDL
MODEL 8
REMARK VINA RESULT:      -8.3      5.928     10.164
REMARK  Name = 
REMARK  5 active torsions:
REMARK  status: ('A' for Active; 'I' for Inactive)
REMARK    1  A    between atoms: C_2  and  C_15
REMARK    2  A    between atoms: N_3  and  C_4
REMARK    3  A    between atoms: C_4  and  C_5
REMARK    4  A    between atoms: N_18  and  S_19
REMARK    5  A    between atoms: S_19  and  C_22
REMARK                            x       y       z     vdW  Elec       q    Type
REMARK                         _______ _______ _______ _____ _____    ______ ____
ROOT
ATOM      1  C   UNL     1      -0.334  10.744  18.111  0.00  0.00    +0.000 C 
ATOM      2  C   UNL     1      -0.507  12.255  18.296  0.00  0.00    +0.000 C 
ATOM      3  C   UNL     1      -0.204  12.701  19.727  0.00  0.00    +0.000 C 
ATOM      4  N   UNL     1      -1.020  11.933  20.715  0.00  0.00    +0.000 NA
ATOM      5  C   UNL     1      -0.871  10.457  20.562  0.00  0.00    +0.000 C 
ATOM      6  C   UNL     1      -1.208  10.022  19.140  0.00  0.00    +0.000 C 
ENDROOT
BRANCH   1   8
ATOM      7  O   UNL     1       2.054  11.103  18.419  0.00  0.00    +0.000 OA
ATOM      8  C   UNL     1       1.137  10.320  18.194  0.00  0.00    +0.000 C 
ATOM      9  N   UNL     1       1.348   8.981  17.963  0.00  0.00    +0.000 N 
ATOM     10  H   UNL     1       0.621   8.446  17.503  0.00  0.00    +0.000 HD
BRANCH   9  11
ATOM     11  C   UNL     1       2.681   8.397  17.956  0.00  0.00    +0.000 C 
BRANCH  11  12
ATOM     12  C   UNL     1       2.763   7.107  18.780  0.00  0.00    +0.000 C 
ATOM     13  C   UNL     1       1.964   7.266  20.073  0.00  0.00    +0.000 C 
ATOM     14  O   UNL     1       1.999   6.068  20.858  0.00  0.00    +0.000 OA
ATOM     15  C   UNL     1       1.730   4.966  20.090  0.00  0.00    +0.000 A 
ATOM     16  C   UNL     1       1.338   3.810  20.761  0.00  0.00    +0.000 A 
ATOM     17  C   UNL     1       1.023   2.655  20.039  0.00  0.00    +0.000 A 
ATOM     18  C   UNL     1       1.116   2.656  18.646  0.00  0.00    +0.000 A 
ATOM     19  C   UNL     1       1.523   3.812  17.975  0.00  0.00    +0.000 A 
ATOM     20  C   UNL     1       1.835   4.961  18.697  0.00  0.00    +0.000 A 
ATOM     21  O   UNL     1       2.207   6.054  17.965  0.00  0.00    +0.000 OA
ENDBRANCH  11  12
ENDBRANCH   9  11
ENDBRANCH   1   8
BRANCH   4  22
ATOM     22  S   UNL     1      -0.722  12.421  22.353  0.00  0.00    +0.000 S 
ATOM     23  O   UNL     1      -0.476  11.226  23.135  0.00  0.00    +0.000 OA
ATOM     24  O   UNL     1       0.248  13.497  22.315  0.00  0.00    +0.000 OA
BRANCH  22  25
ATOM     25  C   UNL     1      -2.284  13.075  22.883  0.00  0.00    +0.000 A 
ATOM     26  C   UNL     1      -3.186  12.252  23.582  0.00  0.00    +0.000 A 
ATOM     27  C   UNL     1      -4.427  12.752  23.979  0.00  0.00    +0.000 A 
ATOM     28  C   UNL     1      -4.725  14.074  23.693  0.00  0.00    +0.000 A 
ATOM     29  C   UNL     1      -3.819  14.894  23.007  0.00  0.00    +0.000 A 
ATOM     30  C   UNL     1      -2.600  14.403  22.571  0.00  0.00    +0.000 A 
ATOM     31  C   UNL     1      -4.381  16.270  22.827  0.00  0.00    +0.000 C 
ATOM     32  C   UNL     1      -5.494  16.273  23.885  0.00  0.00    +0.000 C 
ATOM     33  C   UNL     1      -5.985  14.823  24.002  0.00  0.00    +0.000 C 
ENDBRANCH  22  25
ENDBRANCH   4  22
TORSDOF 5
ENDMDL
MODEL 9
REMARK VINA RESULT:      -8.3      5.123      8.003
REMARK  Name = 
REMARK  5 active torsions:
REMARK  status: ('A' for Active; 'I' for Inactive)
REMARK    1  A    between atoms: C_2  and  C_15
REMARK    2  A    between atoms: N_3  and  C_4
REMARK    3  A    between atoms: C_4  and  C_5
REMARK    4  A    between atoms: N_18  and  S_19
REMARK    5  A    between atoms: S_19  and  C_22
REMARK                            x       y       z     vdW  Elec       q    Type
REMARK                         _______ _______ _______ _____ _____    ______ ____
ROOT
ATOM      1  C   UNL     1       1.801   4.372  19.204  0.00  0.00    +0.000 C 
ATOM      2  C   UNL     1       2.841   3.248  19.251  0.00  0.00    +0.000 C 
ATOM      3  C   UNL     1       4.267   3.774  19.090  0.00  0.00    +0.000 C 
ATOM      4  N   UNL     1       4.404   4.592  17.848  0.00  0.00    +0.000 NA
ATOM      5  C   UNL     1       3.405   5.697  17.774  0.00  0.00    +0.000 C 
ATOM      6  C   UNL     1       1.986   5.155  17.902  0.00  0.00    +0.000 C 
ENDROOT
BRANCH   1   8
ATOM      7  O   UNL     1       2.269   4.885  21.538  0.00  0.00    +0.000 OA
ATOM      8  C   UNL     1       1.872   5.272  20.444  0.00  0.00    +0.000 C 
ATOM      9  N   UNL     1       1.420   6.553  20.232  0.00  0.00    +0.000 N 
ATOM     10  H   UNL     1       0.843   6.737  19.420  0.00  0.00    +0.000 HD
BRANCH   9  11
ATOM     11  C   UNL     1       1.370   7.542  21.298  0.00  0.00    +0.000 C 
BRANCH  11  12
ATOM     12  C   UNL     1       1.381   8.981  20.769  0.00  0.00    +0.000 C 
ATOM     13  C   UNL     1       1.459   8.971  19.242  0.00  0.00    +0.000 C 
ATOM     14  O   UNL     1       1.446  10.301  18.711  0.00  0.00    +0.000 OA
ATOM     15  C   UNL     1       0.451  11.052  19.279  0.00  0.00    +0.000 A 
ATOM     16  C   UNL     1       0.061  12.202  18.598  0.00  0.00    +0.000 A 
ATOM     17  C   UNL     1      -0.966  13.002  19.108  0.00  0.00    +0.000 A 
ATOM     18  C   UNL     1      -1.590  12.655  20.307  0.00  0.00    +0.000 A 
ATOM     19  C   UNL     1      -1.189  11.508  20.996  0.00  0.00    +0.000 A 
ATOM     20  C   UNL     1      -0.167  10.712  20.486  0.00  0.00    +0.000 A 
ATOM     21  O   UNL     1       0.154   9.599  21.211  0.00  0.00    +0.000 OA
ENDBRANCH  11  12
ENDBRANCH   9  11
ENDBRANCH   1   8
BRANCH   4  22
ATOM     22  S   UNL     1       6.014   5.194  17.615  0.00  0.00    +0.000 S 
ATOM     23  O   UNL     1       5.974   6.635  17.756  0.00  0.00    +0.000 OA
ATOM     24  O   UNL     1       6.900   4.390  18.433  0.00  0.00    +0.000 OA
BRANCH  22  25
ATOM     25  C   UNL     1       6.343   4.849  15.905  0.00  0.00    +0.000 A 
ATOM     26  C   UNL     1       7.574   5.232  15.340  0.00  0.00    +0.000 A 
ATOM     27  C   UNL     1       7.830   4.987  13.989  0.00  0.00    +0.000 A 
ATOM     28  C   UNL     1       6.859   4.339  13.243  0.00  0.00    +0.000 A 
ATOM     29  C   UNL     1       5.640   3.950  13.814  0.00  0.00    +0.000 A 
ATOM     30  C   UNL     1       5.353   4.219  15.141  0.00  0.00    +0.000 A 
ATOM     31  C   UNL     1       4.773   3.272  12.798  0.00  0.00    +0.000 C 
ATOM     32  C   UNL     1       5.809   2.905  11.726  0.00  0.00    +0.000 C 
ATOM     33  C   UNL     1       6.899   3.985  11.788  0.00  0.00    +0.000 C 
ENDBRANCH  22  25
ENDBRANCH   4  22
TORSDOF 5
ENDMDL
