MODEL 1
REMARK VINA RESULT:      -7.9      0.000      0.000
REMARK  Name = 
REMARK  7 active torsions:
REMARK  status: ('A' for Active; 'I' for Inactive)
REMARK    1  A    between atoms: C_1  and  C_2
REMARK    2  A    between atoms: C_5  and  C_6
REMARK    3  A    between atoms: C_7  and  N_8
REMARK    4  A    between atoms: N_8  and  C_9
REMARK    5  A    between atoms: C_12  and  N_13
REMARK    6  A    between atoms: C_17  and  S_18
REMARK    7  A    between atoms: S_18  and  N_19
REMARK                            x       y       z     vdW  Elec       q    Type
REMARK                         _______ _______ _______ _____ _____    ______ ____
ROOT
ATOM      1  C   UNL     1       5.330   4.189  16.534  0.00  0.00    +0.000 A 
ATOM      2  C   UNL     1       4.827   3.977  15.233  0.00  0.00    +0.000 A 
ATOM      3  C   UNL     1       5.573   4.260  14.087  0.00  0.00    +0.000 A 
ATOM      4  C   UNL     1       6.871   4.747  14.227  0.00  0.00    +0.000 A 
ATOM      5  C   UNL     1       7.434   4.905  15.496  0.00  0.00    +0.000 A 
ATOM      6  C   UNL     1       6.664   4.616  16.642  0.00  0.00    +0.000 A 
ENDROOT
BRANCH   4   7
ATOM      7  N   UNL     1       7.647   5.097  13.031  0.00  0.00    +0.000 N 
ATOM      8  O   UNL     1       8.583   5.898  13.164  0.00  0.00    +0.000 OA
ATOM      9  O   UNL     1       7.328   4.559  11.962  0.00  0.00    +0.000 OA
ENDBRANCH   4   7
BRANCH   6  10
ATOM     10  S   UNL     1       7.490   4.787  18.197  0.00  0.00    +0.000 S 
ATOM     11  O   UNL     1       6.558   4.536  19.272  0.00  0.00    +0.000 OA
ATOM     12  O   UNL     1       8.770   4.125  18.105  0.00  0.00    +0.000 OA
BRANCH  10  13
ATOM     13  N   UNL     1       7.823   6.434  18.259  0.00  0.00    +0.000 NA
ATOM     14  H   UNL     1       7.861   6.747  19.231  0.00  0.00    +0.000 HD
ATOM     15  H   UNL     1       8.678   6.639  17.738  0.00  0.00    +0.000 HD
ENDBRANCH  10  13
ENDBRANCH   6  10
BRANCH   1  16
ATOM     16  N   UNL     1       4.470   3.963  17.635  0.00  0.00    +0.000 N 
ATOM     17  H   UNL     1       4.780   3.231  18.284  0.00  0.00    +0.000 HD
BRANCH  16  24
ATOM     18  C   UNL     1       2.537   8.537  17.811  0.00  0.00    +0.000 C 
ATOM     19  C   UNL     1       2.682   7.171  18.413  0.00  0.00    +0.000 A 
ATOM     20  C   UNL     1       2.048   6.831  19.606  0.00  0.00    +0.000 A 
ATOM     21  C   UNL     1       2.233   5.564  20.161  0.00  0.00    +0.000 A 
ATOM     22  C   UNL     1       3.046   4.605  19.530  0.00  0.00    +0.000 A 
ATOM     23  C   UNL     1       3.216   3.255  20.169  0.00  0.00    +0.000 C 
ATOM     24  C   UNL     1       3.672   4.927  18.311  0.00  0.00    +0.000 A 
ATOM     25  C   UNL     1       3.491   6.217  17.782  0.00  0.00    +0.000 A 
ENDBRANCH  16  24
ENDBRANCH   1  16
TORSDOF 5
ENDMDL
MODEL 2
REMARK VINA RESULT:      -7.9      3.687      6.352
REMARK  Name = 
REMARK  7 active torsions:
REMARK  status: ('A' for Active; 'I' for Inactive)
REMARK    1  A    between atoms: C_1  and  C_2
REMARK    2  A    between atoms: C_5  and  C_6
REMARK    3  A    between atoms: C_7  and  N_8
REMARK    4  A    between atoms: N_8  and  C_9
REMARK    5  A    between atoms: C_12  and  N_13
REMARK    6  A    between atoms: C_17  and  S_18
REMARK    7  A    between atoms: S_18  and  N_19
REMARK                            x       y       z     vdW  Elec       q    Type
REMARK                         _______ _______ _______ _____ _____    ______ ____
ROOT
ATOM      1  C   UNL     1       4.104   4.628  17.983  0.00  0.00    +0.000 A 
ATOM      2  C   UNL     1       4.103   5.984  17.590  0.00  0.00    +0.000 A 
ATOM      3  C   UNL     1       3.353   6.955  18.257  0.00  0.00    +0.000 A 
ATOM      4  C   UNL     1       2.596   6.584  19.365  0.00  0.00    +0.000 A 
ATOM      5  C   UNL     1       2.624   5.266  19.831  0.00  0.00    +0.000 A 
ATOM      6  C   UNL     1       3.385   4.298  19.144  0.00  0.00    +0.000 A 
ENDROOT
BRANCH   4   7
ATOM      7  N   UNL     1       1.764   7.585  20.043  0.00  0.00    +0.000 N 
ATOM      8  O   UNL     1       1.581   8.668  19.468  0.00  0.00    +0.000 OA
ATOM      9  O   UNL     1       1.281   7.281  21.142  0.00  0.00    +0.000 OA
ENDBRANCH   4   7
BRANCH   6  10
ATOM     10  S   UNL     1       3.404   2.678  19.852  0.00  0.00    +0.000 S 
ATOM     11  O   UNL     1       2.934   2.739  21.217  0.00  0.00    +0.000 OA
ATOM     12  O   UNL     1       2.862   1.754  18.883  0.00  0.00    +0.000 OA
BRANCH  10  13
ATOM     13  N   UNL     1       5.047   2.336  19.951  0.00  0.00    +0.000 NA
ATOM     14  H   UNL     1       5.299   1.628  19.260  0.00  0.00    +0.000 HD
ATOM     15  H   UNL     1       5.590   3.197  19.859  0.00  0.00    +0.000 HD
ENDBRANCH  10  13
ENDBRANCH   6  10
BRANCH   1  16
ATOM     16  N   UNL     1       4.819   3.697  17.192  0.00  0.00    +0.000 N 
ATOM     17  H   UNL     1       4.406   2.759  17.148  0.00  0.00    +0.000 HD
BRANCH  16  24
ATOM     18  C   UNL     1       5.165   3.612  12.236  0.00  0.00    +0.000 C 
ATOM     19  C   UNL     1       5.758   3.964  13.568  0.00  0.00    +0.000 A 
ATOM     20  C   UNL     1       7.016   4.554  13.669  0.00  0.00    +0.000 A 
ATOM     21  C   UNL     1       7.559   4.835  14.924  0.00  0.00    +0.000 A 
ATOM     22  C   UNL     1       6.852   4.543  16.104  0.00  0.00    +0.000 A 
ATOM     23  C   UNL     1       7.480   4.861  17.432  0.00  0.00    +0.000 C 
ATOM     24  C   UNL     1       5.570   3.970  16.015  0.00  0.00    +0.000 A 
ATOM     25  C   UNL     1       5.052   3.673  14.741  0.00  0.00    +0.000 A 
ENDBRANCH  16  24
ENDBRANCH   1  16
TORSDOF 5
ENDMDL
MODEL 3
REMARK VINA RESULT:      -7.8      0.768      1.142
REMARK  Name = 
REMARK  7 active torsions:
REMARK  status: ('A' for Active; 'I' for Inactive)
REMARK    1  A    between atoms: C_1  and  C_2
REMARK    2  A    between atoms: C_5  and  C_6
REMARK    3  A    between atoms: C_7  and  N_8
REMARK    4  A    between atoms: N_8  and  C_9
REMARK    5  A    between atoms: C_12  and  N_13
REMARK    6  A    between atoms: C_17  and  S_18
REMARK    7  A    between atoms: S_18  and  N_19
REMARK                            x       y       z     vdW  Elec       q    Type
REMARK                         _______ _______ _______ _____ _____    ______ ____
ROOT
ATOM      1  C   UNL     1       5.223   4.250  16.431  0.00  0.00    +0.000 A 
ATOM      2  C   UNL     1       4.795   3.967  15.116  0.00  0.00    +0.000 A 
ATOM      3  C   UNL     1       5.588   4.235  13.998  0.00  0.00    +0.000 A 
ATOM      4  C   UNL     1       6.858   4.776  14.181  0.00  0.00    +0.000 A 
ATOM      5  C   UNL     1       7.349   5.006  15.469  0.00  0.00    +0.000 A 
ATOM      6  C   UNL     1       6.533   4.732  16.587  0.00  0.00    +0.000 A 
ENDROOT
BRANCH   4   7
ATOM      7  N   UNL     1       7.680   5.109  13.012  0.00  0.00    +0.000 N 
ATOM      8  O   UNL     1       7.396   4.567  11.934  0.00  0.00    +0.000 OA
ATOM      9  O   UNL     1       8.598   5.925  13.169  0.00  0.00    +0.000 OA
ENDBRANCH   4   7
BRANCH   6  10
ATOM     10  S   UNL     1       7.272   4.996  18.172  0.00  0.00    +0.000 S 
ATOM     11  O   UNL     1       7.717   6.367  18.278  0.00  0.00    +0.000 OA
ATOM     12  O   UNL     1       6.438   4.369  19.170  0.00  0.00    +0.000 OA
BRANCH  10  13
ATOM     13  N   UNL     1       8.671   4.069  18.087  0.00  0.00    +0.000 NA
ATOM     14  H   UNL     1       8.433   3.087  17.940  0.00  0.00    +0.000 HD
ATOM     15  H   UNL     1       9.296   4.442  17.369  0.00  0.00    +0.000 HD
ENDBRANCH  10  13
ENDBRANCH   6  10
BRANCH   1  16
ATOM     16  N   UNL     1       4.317   4.033  17.496  0.00  0.00    +0.000 N 
ATOM     17  H   UNL     1       4.550   3.244  18.110  0.00  0.00    +0.000 HD
BRANCH  16  24
ATOM     18  C   UNL     1       2.545   8.668  17.765  0.00  0.00    +0.000 C 
ATOM     19  C   UNL     1       2.668   7.295  18.355  0.00  0.00    +0.000 A 
ATOM     20  C   UNL     1       2.070   6.970  19.571  0.00  0.00    +0.000 A 
ATOM     21  C   UNL     1       2.234   5.694  20.114  0.00  0.00    +0.000 A 
ATOM     22  C   UNL     1       2.990   4.713  19.448  0.00  0.00    +0.000 A 
ATOM     23  C   UNL     1       3.140   3.355  20.075  0.00  0.00    +0.000 C 
ATOM     24  C   UNL     1       3.578   5.019  18.207  0.00  0.00    +0.000 A 
ATOM     25  C   UNL     1       3.420   6.318  17.689  0.00  0.00    +0.000 A 
ENDBRANCH  16  24
ENDBRANCH   1  16
TORSDOF 5
ENDMDL
MODEL 4
REMARK VINA RESULT:      -7.8      3.905      6.749
REMARK  Name = 
REMARK  7 active torsions:
REMARK  status: ('A' for Active; 'I' for Inactive)
REMARK    1  A    between atoms: C_1  and  C_2
REMARK    2  A    between atoms: C_5  and  C_6
REMARK    3  A    between atoms: C_7  and  N_8
REMARK    4  A    between atoms: N_8  and  C_9
REMARK    5  A    between atoms: C_12  and  N_13
REMARK    6  A    between atoms: C_17  and  S_18
REMARK    7  A    between atoms: S_18  and  N_19
REMARK                            x       y       z     vdW  Elec       q    Type
REMARK                         _______ _______ _______ _____ _____    ______ ____
ROOT
ATOM      1  C   UNL     1       2.971   5.344  18.636  0.00  0.00    +0.000 A 
ATOM      2  C   UNL     1       3.045   6.677  18.178  0.00  0.00    +0.000 A 
ATOM      3  C   UNL     1       2.453   7.738  18.867  0.00  0.00    +0.000 A 
ATOM      4  C   UNL     1       1.786   7.482  20.062  0.00  0.00    +0.000 A 
ATOM      5  C   UNL     1       1.750   6.187  20.588  0.00  0.00    +0.000 A 
ATOM      6  C   UNL     1       2.351   5.128  19.877  0.00  0.00    +0.000 A 
ENDROOT
BRANCH   4   7
ATOM      7  N   UNL     1       1.116   8.580  20.769  0.00  0.00    +0.000 N 
ATOM      8  O   UNL     1       0.495   9.410  20.088  0.00  0.00    +0.000 OA
ATOM      9  O   UNL     1       1.198   8.603  22.004  0.00  0.00    +0.000 OA
ENDBRANCH   4   7
BRANCH   6  10
ATOM     10  S   UNL     1       2.304   3.542  20.659  0.00  0.00    +0.000 S 
ATOM     11  O   UNL     1       3.246   2.655  20.014  0.00  0.00    +0.000 OA
ATOM     12  O   UNL     1       2.278   3.742  22.089  0.00  0.00    +0.000 OA
BRANCH  10  13
ATOM     13  N   UNL     1       0.780   2.968  20.243  0.00  0.00    +0.000 NA
ATOM     14  H   UNL     1       0.744   2.766  19.243  0.00  0.00    +0.000 HD
ATOM     15  H   UNL     1       0.538   2.163  20.824  0.00  0.00    +0.000 HD
ENDBRANCH  10  13
ENDBRANCH   6  10
BRANCH   1  16
ATOM     16  N   UNL     1       3.519   4.321  17.825  0.00  0.00    +0.000 N 
ATOM     17  H   UNL     1       2.830   3.752  17.321  0.00  0.00    +0.000 HD
BRANCH  16  24
ATOM     18  C   UNL     1       5.993   3.894  13.537  0.00  0.00    +0.000 C 
ATOM     19  C   UNL     1       5.999   4.176  15.010  0.00  0.00    +0.000 A 
ATOM     20  C   UNL     1       7.178   4.476  15.689  0.00  0.00    +0.000 A 
ATOM     21  C   UNL     1       7.157   4.696  17.067  0.00  0.00    +0.000 A 
ATOM     22  C   UNL     1       5.955   4.633  17.795  0.00  0.00    +0.000 A 
ATOM     23  C   UNL     1       5.984   4.874  19.278  0.00  0.00    +0.000 C 
ATOM     24  C   UNL     1       4.753   4.356  17.118  0.00  0.00    +0.000 A 
ATOM     25  C   UNL     1       4.800   4.114  15.733  0.00  0.00    +0.000 A 
ENDBRANCH  16  24
ENDBRANCH   1  16
TORSDOF 5
ENDMDL
MODEL 5
REMARK VINA RESULT:      -7.5      4.289      6.662
REMARK  Name = 
REMARK  7 active torsions:
REMARK  status: ('A' for Active; 'I' for Inactive)
REMARK    1  A    between atoms: C_1  and  C_2
REMARK    2  A    between atoms: C_5  and  C_6
REMARK    3  A    between atoms: C_7  and  N_8
REMARK    4  A    between atoms: N_8  and  C_9
REMARK    5  A    between atoms: C_12  and  N_13
REMARK    6  A    between atoms: C_17  and  S_18
REMARK    7  A    between atoms: S_18  and  N_19
REMARK                            x       y       z     vdW  Elec       q    Type
REMARK                         _______ _______ _______ _____ _____    ______ ____
ROOT
ATOM      1  C   UNL     1       3.104   5.211  18.676  0.00  0.00    +0.000 A 
ATOM      2  C   UNL     1       3.200   6.549  18.237  0.00  0.00    +0.000 A 
ATOM      3  C   UNL     1       2.577   7.603  18.908  0.00  0.00    +0.000 A 
ATOM      4  C   UNL     1       1.853   7.335  20.068  0.00  0.00    +0.000 A 
ATOM      5  C   UNL     1       1.790   6.035  20.577  0.00  0.00    +0.000 A 
ATOM      6  C   UNL     1       2.424   4.982  19.884  0.00  0.00    +0.000 A 
ENDROOT
BRANCH   4   7
ATOM      7  N   UNL     1       1.150   8.426  20.753  0.00  0.00    +0.000 N 
ATOM      8  O   UNL     1       1.123   8.407  21.992  0.00  0.00    +0.000 OA
ATOM      9  O   UNL     1       0.639   9.310  20.052  0.00  0.00    +0.000 OA
ENDBRANCH   4   7
BRANCH   6  10
ATOM     10  S   UNL     1       2.340   3.388  20.646  0.00  0.00    +0.000 S 
ATOM     11  O   UNL     1       2.206   3.540  22.077  0.00  0.00    +0.000 OA
ATOM     12  O   UNL     1       1.452   2.560  19.865  0.00  0.00    +0.000 OA
BRANCH  10  13
ATOM     13  N   UNL     1       3.885   2.777  20.396  0.00  0.00    +0.000 NA
ATOM     14  H   UNL     1       4.436   2.856  21.252  0.00  0.00    +0.000 HD
ATOM     15  H   UNL     1       3.831   1.819  20.042  0.00  0.00    +0.000 HD
ENDBRANCH  10  13
ENDBRANCH   6  10
BRANCH   1  16
ATOM     16  N   UNL     1       3.689   4.197  17.882  0.00  0.00    +0.000 N 
ATOM     17  H   UNL     1       3.023   3.546  17.451  0.00  0.00    +0.000 HD
BRANCH  16  24
ATOM     18  C   UNL     1       5.915   3.826  13.455  0.00  0.00    +0.000 C 
ATOM     19  C   UNL     1       5.992   4.147  14.918  0.00  0.00    +0.000 A 
ATOM     20  C   UNL     1       7.188   4.546  15.513  0.00  0.00    +0.000 A 
ATOM     21  C   UNL     1       7.237   4.802  16.884  0.00  0.00    +0.000 A 
ATOM     22  C   UNL     1       6.090   4.675  17.688  0.00  0.00    +0.000 A 
ATOM     23  C   UNL     1       6.195   4.958  19.161  0.00  0.00    +0.000 C 
ATOM     24  C   UNL     1       4.871   4.298  17.096  0.00  0.00    +0.000 A 
ATOM     25  C   UNL     1       4.849   4.022  15.717  0.00  0.00    +0.000 A 
ENDBRANCH  16  24
ENDBRANCH   1  16
TORSDOF 5
ENDMDL
MODEL 6
REMARK VINA RESULT:      -7.5      1.135      1.317
REMARK  Name = 
REMARK  7 active torsions:
REMARK  status: ('A' for Active; 'I' for Inactive)
REMARK    1  A    between atoms: C_1  and  C_2
REMARK    2  A    between atoms: C_5  and  C_6
REMARK    3  A    between atoms: C_7  and  N_8
REMARK    4  A    between atoms: N_8  and  C_9
REMARK    5  A    between atoms: C_12  and  N_13
REMARK    6  A    between atoms: C_17  and  S_18
REMARK    7  A    between atoms: S_18  and  N_19
REMARK                            x       y       z     vdW  Elec       q    Type
REMARK                         _______ _______ _______ _____ _____    ______ ____
ROOT
ATOM      1  C   UNL     1       5.134   4.689  17.316  0.00  0.00    +0.000 A 
ATOM      2  C   UNL     1       4.585   4.214  16.105  0.00  0.00    +0.000 A 
ATOM      3  C   UNL     1       5.279   4.277  14.895  0.00  0.00    +0.000 A 
ATOM      4  C   UNL     1       6.568   4.804  14.879  0.00  0.00    +0.000 A 
ATOM      5  C   UNL     1       7.176   5.221  16.067  0.00  0.00    +0.000 A 
ATOM      6  C   UNL     1       6.460   5.152  17.280  0.00  0.00    +0.000 A 
ENDROOT
BRANCH   4   7
ATOM      7  N   UNL     1       7.287   4.923  13.605  0.00  0.00    +0.000 N 
ATOM      8  O   UNL     1       8.239   5.716  13.551  0.00  0.00    +0.000 OA
ATOM      9  O   UNL     1       6.909   4.213  12.664  0.00  0.00    +0.000 OA
ENDBRANCH   4   7
BRANCH   6  10
ATOM     10  S   UNL     1       7.341   5.643  18.732  0.00  0.00    +0.000 S 
ATOM     11  O   UNL     1       7.927   6.948  18.527  0.00  0.00    +0.000 OA
ATOM     12  O   UNL     1       6.528   5.327  19.883  0.00  0.00    +0.000 OA
BRANCH  10  13
ATOM     13  N   UNL     1       8.630   4.565  18.765  0.00  0.00    +0.000 NA
ATOM     14  H   UNL     1       8.359   3.681  18.331  0.00  0.00    +0.000 HD
ATOM     15  H   UNL     1       9.453   4.989  18.330  0.00  0.00    +0.000 HD
ENDBRANCH  10  13
ENDBRANCH   6  10
BRANCH   1  16
ATOM     16  N   UNL     1       4.323   4.671  18.476  0.00  0.00    +0.000 N 
ATOM     17  H   UNL     1       4.731   4.182  19.282  0.00  0.00    +0.000 HD
BRANCH  16  24
ATOM     18  C   UNL     1       2.323   9.170  17.813  0.00  0.00    +0.000 C 
ATOM     19  C   UNL     1       2.396   7.890  18.591  0.00  0.00    +0.000 A 
ATOM     20  C   UNL     1       1.598   7.674  19.712  0.00  0.00    +0.000 A 
ATOM     21  C   UNL     1       1.716   6.488  20.438  0.00  0.00    +0.000 A 
ATOM     22  C   UNL     1       2.627   5.488  20.053  0.00  0.00    +0.000 A 
ATOM     23  C   UNL     1       2.720   4.229  20.869  0.00  0.00    +0.000 C 
ATOM     24  C   UNL     1       3.421   5.682  18.908  0.00  0.00    +0.000 A 
ATOM     25  C   UNL     1       3.303   6.895  18.204  0.00  0.00    +0.000 A 
ENDBRANCH  16  24
ENDBRANCH   1  16
TORSDOF 5
ENDMDL
MODEL 7
REMARK VINA RESULT:      -7.5      3.541      6.474
REMARK  Name = 
REMARK  7 active torsions:
REMARK  status: ('A' for Active; 'I' for Inactive)
REMARK    1  A    between atoms: C_1  and  C_2
REMARK    2  A    between atoms: C_5  and  C_6
REMARK    3  A    between atoms: C_7  and  N_8
REMARK    4  A    between atoms: N_8  and  C_9
REMARK    5  A    between atoms: C_12  and  N_13
REMARK    6  A    between atoms: C_17  and  S_18
REMARK    7  A    between atoms: S_18  and  N_19
REMARK                            x       y       z     vdW  Elec       q    Type
REMARK                         _______ _______ _______ _____ _____    ______ ____
ROOT
ATOM      1  C   UNL     1       3.770   5.007  18.273  0.00  0.00    +0.000 A 
ATOM      2  C   UNL     1       3.791   6.327  17.772  0.00  0.00    +0.000 A 
ATOM      3  C   UNL     1       3.064   7.362  18.362  0.00  0.00    +0.000 A 
ATOM      4  C   UNL     1       2.309   7.096  19.502  0.00  0.00    +0.000 A 
ATOM      5  C   UNL     1       2.316   5.820  20.072  0.00  0.00    +0.000 A 
ATOM      6  C   UNL     1       3.054   4.786  19.461  0.00  0.00    +0.000 A 
ENDROOT
BRANCH   4   7
ATOM      7  N   UNL     1       1.499   8.164  20.101  0.00  0.00    +0.000 N 
ATOM      8  O   UNL     1       1.168   8.040  21.289  0.00  0.00    +0.000 OA
ATOM      9  O   UNL     1       1.209   9.134  19.387  0.00  0.00    +0.000 OA
ENDBRANCH   4   7
BRANCH   6  10
ATOM     10  S   UNL     1       3.048   3.227  20.297  0.00  0.00    +0.000 S 
ATOM     11  O   UNL     1       4.356   2.620  20.201  0.00  0.00    +0.000 OA
ATOM     12  O   UNL     1       2.357   3.390  21.554  0.00  0.00    +0.000 OA
BRANCH  10  13
ATOM     13  N   UNL     1       2.040   2.292  19.331  0.00  0.00    +0.000 NA
ATOM     14  H   UNL     1       1.285   1.895  19.892  0.00  0.00    +0.000 HD
ATOM     15  H   UNL     1       1.703   2.844  18.539  0.00  0.00    +0.000 HD
ENDBRANCH  10  13
ENDBRANCH   6  10
BRANCH   1  16
ATOM     16  N   UNL     1       4.462   4.002  17.556  0.00  0.00    +0.000 N 
ATOM     17  H   UNL     1       3.964   3.108  17.473  0.00  0.00    +0.000 HD
BRANCH  16  24
ATOM     18  C   UNL     1       5.284   3.794  12.660  0.00  0.00    +0.000 C 
ATOM     19  C   UNL     1       5.773   4.119  14.040  0.00  0.00    +0.000 A 
ATOM     20  C   UNL     1       7.061   4.602  14.260  0.00  0.00    +0.000 A 
ATOM     21  C   UNL     1       7.501   4.859  15.560  0.00  0.00    +0.000 A 
ATOM     22  C   UNL     1       6.658   4.650  16.667  0.00  0.00    +0.000 A 
ATOM     23  C   UNL     1       7.178   4.939  18.047  0.00  0.00    +0.000 C 
ATOM     24  C   UNL     1       5.346   4.187  16.457  0.00  0.00    +0.000 A 
ATOM     25  C   UNL     1       4.932   3.912  15.141  0.00  0.00    +0.000 A 
ENDBRANCH  16  24
ENDBRANCH   1  16
TORSDOF 5
ENDMDL
MODEL 8
REMARK VINA RESULT:      -7.5      1.318      1.701
REMARK  Name = 
REMARK  7 active torsions:
REMARK  status: ('A' for Active; 'I' for Inactive)
REMARK    1  A    between atoms: C_1  and  C_2
REMARK    2  A    between atoms: C_5  and  C_6
REMARK    3  A    between atoms: C_7  and  N_8
REMARK    4  A    between atoms: N_8  and  C_9
REMARK    5  A    between atoms: C_12  and  N_13
REMARK    6  A    between atoms: C_17  and  S_18
REMARK    7  A    between atoms: S_18  and  N_19
REMARK                            x       y       z     vdW  Elec       q    Type
REMARK                         _______ _______ _______ _____ _____    ______ ____
ROOT
ATOM      1  C   UNL     1       5.543   3.961  17.739  0.00  0.00    +0.000 A 
ATOM      2  C   UNL     1       4.965   3.425  16.568  0.00  0.00    +0.000 A 
ATOM      3  C   UNL     1       5.470   3.695  15.294  0.00  0.00    +0.000 A 
ATOM      4  C   UNL     1       6.599   4.502  15.169  0.00  0.00    +0.000 A 
ATOM      5  C   UNL     1       7.244   4.995  16.307  0.00  0.00    +0.000 A 
ATOM      6  C   UNL     1       6.719   4.715  17.585  0.00  0.00    +0.000 A 
ENDROOT
BRANCH   4   7
ATOM      7  N   UNL     1       7.108   4.835  13.833  0.00  0.00    +0.000 N 
ATOM      8  O   UNL     1       6.585   4.272  12.860  0.00  0.00    +0.000 OA
ATOM      9  O   UNL     1       8.020   5.669  13.758  0.00  0.00    +0.000 OA
ENDBRANCH   4   7
BRANCH   6  10
ATOM     10  S   UNL     1       7.645   5.331  18.959  0.00  0.00    +0.000 S 
ATOM     11  O   UNL     1       6.774   5.488  20.101  0.00  0.00    +0.000 OA
ATOM     12  O   UNL     1       8.893   4.607  19.026  0.00  0.00    +0.000 OA
BRANCH  10  13
ATOM     13  N   UNL     1       8.039   6.891  18.470  0.00  0.00    +0.000 NA
ATOM     14  H   UNL     1       8.929   7.174  18.884  0.00  0.00    +0.000 HD
ATOM     15  H   UNL     1       8.035   6.950  17.449  0.00  0.00    +0.000 HD
ENDBRANCH  10  13
ENDBRANCH   6  10
BRANCH   1  16
ATOM     16  N   UNL     1       4.909   3.711  18.979  0.00  0.00    +0.000 N 
ATOM     17  H   UNL     1       5.537   3.690  19.790  0.00  0.00    +0.000 HD
BRANCH  16  24
ATOM     18  C   UNL     1       1.821   7.281  20.533  0.00  0.00    +0.000 C 
ATOM     19  C   UNL     1       2.046   5.859  20.113  0.00  0.00    +0.000 A 
ATOM     20  C   UNL     1       1.004   4.934  20.090  0.00  0.00    +0.000 A 
ATOM     21  C   UNL     1       1.252   3.608  19.731  0.00  0.00    +0.000 A 
ATOM     22  C   UNL     1       2.544   3.180  19.376  0.00  0.00    +0.000 A 
ATOM     23  C   UNL     1       2.761   1.741  18.999  0.00  0.00    +0.000 C 
ATOM     24  C   UNL     1       3.600   4.110  19.369  0.00  0.00    +0.000 A 
ATOM     25  C   UNL     1       3.333   5.435  19.757  0.00  0.00    +0.000 A 
ENDBRANCH  16  24
ENDBRANCH   1  16
TORSDOF 5
ENDMDL
MODEL 9
REMARK VINA RESULT:      -7.5      1.253      2.539
REMARK  Name = 
REMARK  7 active torsions:
REMARK  status: ('A' for Active; 'I' for Inactive)
REMARK    1  A    between atoms: C_1  and  C_2
REMARK    2  A    between atoms: C_5  and  C_6
REMARK    3  A    between atoms: C_7  and  N_8
REMARK    4  A    between atoms: N_8  and  C_9
REMARK    5  A    between atoms: C_12  and  N_13
REMARK    6  A    between atoms: C_17  and  S_18
REMARK    7  A    between atoms: S_18  and  N_19
REMARK                            x       y       z     vdW  Elec       q    Type
REMARK                         _______ _______ _______ _____ _____    ______ ____
ROOT
ATOM      1  C   UNL     1       5.176   5.593  17.487  0.00  0.00    +0.000 A 
ATOM      2  C   UNL     1       4.475   5.462  16.269  0.00  0.00    +0.000 A 
ATOM      3  C   UNL     1       5.125   5.229  15.055  0.00  0.00    +0.000 A 
ATOM      4  C   UNL     1       6.511   5.096  15.042  0.00  0.00    +0.000 A 
ATOM      5  C   UNL     1       7.237   5.149  16.235  0.00  0.00    +0.000 A 
ATOM      6  C   UNL     1       6.565   5.387  17.451  0.00  0.00    +0.000 A 
ENDROOT
BRANCH   4   7
ATOM      7  N   UNL     1       7.209   4.903  13.765  0.00  0.00    +0.000 N 
ATOM      8  O   UNL     1       6.760   4.050  12.985  0.00  0.00    +0.000 OA
ATOM      9  O   UNL     1       8.196   5.615  13.537  0.00  0.00    +0.000 OA
ENDBRANCH   4   7
BRANCH   6  10
ATOM     10  S   UNL     1       7.567   5.371  18.909  0.00  0.00    +0.000 S 
ATOM     11  O   UNL     1       6.720   5.332  20.079  0.00  0.00    +0.000 OA
ATOM     12  O   UNL     1       8.652   4.442  18.703  0.00  0.00    +0.000 OA
BRANCH  10  13
ATOM     13  N   UNL     1       8.259   6.903  18.899  0.00  0.00    +0.000 NA
ATOM     14  H   UNL     1       8.430   7.204  17.938  0.00  0.00    +0.000 HD
ATOM     15  H   UNL     1       7.674   7.556  19.425  0.00  0.00    +0.000 HD
ENDBRANCH  10  13
ENDBRANCH   6  10
BRANCH   1  16
ATOM     16  N   UNL     1       4.445   5.921  18.653  0.00  0.00    +0.000 N 
ATOM     17  H   UNL     1       4.365   6.927  18.846  0.00  0.00    +0.000 HD
BRANCH  16  24
ATOM     18  C   UNL     1       2.148   1.606  19.543  0.00  0.00    +0.000 C 
ATOM     19  C   UNL     1       2.187   3.100  19.671  0.00  0.00    +0.000 A 
ATOM     20  C   UNL     1       1.168   3.802  20.311  0.00  0.00    +0.000 A 
ATOM     21  C   UNL     1       1.214   5.195  20.381  0.00  0.00    +0.000 A 
ATOM     22  C   UNL     1       2.285   5.916  19.822  0.00  0.00    +0.000 A 
ATOM     23  C   UNL     1       2.287   7.416  19.921  0.00  0.00    +0.000 C 
ATOM     24  C   UNL     1       3.333   5.218  19.195  0.00  0.00    +0.000 A 
ATOM     25  C   UNL     1       3.255   3.816  19.115  0.00  0.00    +0.000 A 
ENDBRANCH  16  24
ENDBRANCH   1  16
TORSDOF 5
ENDMDL
