MODEL 1
REMARK VINA RESULT:      -8.2      0.000      0.000
REMARK  Name = 
REMARK  10 active torsions:
REMARK  status: ('A' for Active; 'I' for Inactive)
REMARK    1  A    between atoms: C_1  and  C_2
REMARK    2  A    between atoms: N_4  and  C_5
REMARK    3  A    between atoms: C_5  and  C_6
REMARK    4  A    between atoms: C_6  and  N_7
REMARK    5  A    between atoms: C_8  and  C_10
REMARK    6  A    between atoms: C_13  and  O_14
REMARK    7  A    between atoms: O_14  and  C_15
REMARK    8  A    between atoms: C_15  and  C_16
REMARK    9  A    between atoms: C_17  and  C_18
REMARK   10  A    between atoms: C_26  and  C_27
REMARK                            x       y       z     vdW  Elec       q    Type
REMARK                         _______ _______ _______ _____ _____    ______ ____
ROOT
ATOM      1  C   UNL     1       0.371   9.655  20.087  0.00  0.00    +0.000 A 
ATOM      2  C   UNL     1       1.040   9.542  18.867  0.00  0.00    +0.000 A 
ATOM      3  C   UNL     1       1.896   8.456  18.642  0.00  0.00    +0.000 A 
ATOM      4  C   UNL     1       2.065   7.522  19.654  0.00  0.00    +0.000 A 
ATOM      5  N   UNL     1       1.450   7.630  20.850  0.00  0.00    +0.000 NA
ATOM      6  C   UNL     1       0.629   8.689  21.045  0.00  0.00    +0.000 A 
ENDROOT
BRANCH   1   8
ATOM      7  N   UNL     1      -1.278  11.251  19.279  0.00  0.00    +0.000 N 
ATOM      8  C   UNL     1      -0.535  10.799  20.347  0.00  0.00    +0.000 C 
ATOM      9  O   UNL     1      -0.576  11.310  21.459  0.00  0.00    +0.000 OA
ATOM     10  H   UNL     1      -1.065  10.942  18.338  0.00  0.00    +0.000 HD
BRANCH   7  11
ATOM     11  C   UNL     1      -2.196  12.373  19.396  0.00  0.00    +0.000 C 
BRANCH  11  12
ATOM     12  C   UNL     1      -3.608  12.036  18.905  0.00  0.00    +0.000 C 
BRANCH  12  16
ATOM     13  C   UNL     1      -3.655  10.628  15.390  0.00  0.00    +0.000 C 
ATOM     14  C   UNL     1      -3.541  10.608  16.890  0.00  0.00    +0.000 C 
ATOM     15  O   UNL     1      -3.362   9.578  17.530  0.00  0.00    +0.000 OA
ATOM     16  N   UNL     1      -3.664  11.852  17.466  0.00  0.00    +0.000 N 
ATOM     17  H   UNL     1      -3.918  12.645  16.890  0.00  0.00    +0.000 HD
ENDBRANCH  12  16
ENDBRANCH  11  12
ENDBRANCH   7  11
ENDBRANCH   1   8
BRANCH   4  18
ATOM     18  O   UNL     1       2.910   6.462  19.608  0.00  0.00    +0.000 OA
BRANCH  18  19
ATOM     19  C   UNL     1       2.414   5.241  19.068  0.00  0.00    +0.000 C 
BRANCH  19  20
ATOM     20  C   UNL     1       3.216   4.073  19.546  0.00  0.00    +0.000 A 
ATOM     21  C   UNL     1       4.447   3.544  19.025  0.00  0.00    +0.000 A 
ATOM     22  N   UNL     1       4.815   2.457  19.726  0.00  0.00    +0.000 NA
ATOM     23  O   UNL     1       3.877   2.281  20.711  0.00  0.00    +0.000 OA
ATOM     24  C   UNL     1       2.930   3.242  20.615  0.00  0.00    +0.000 A 
ATOM     25  C   UNL     1       1.857   3.194  21.630  0.00  0.00    +0.000 C 
BRANCH  21  26
ATOM     26  C   UNL     1       5.295   4.008  17.918  0.00  0.00    +0.000 A 
ATOM     27  C   UNL     1       4.906   3.874  16.579  0.00  0.00    +0.000 A 
ATOM     28  C   UNL     1       5.711   4.360  15.544  0.00  0.00    +0.000 A 
ATOM     29  C   UNL     1       6.907   5.010  15.835  0.00  0.00    +0.000 A 
ATOM     30  C   UNL     1       7.304   5.167  17.159  0.00  0.00    +0.000 A 
ATOM     31  C   UNL     1       6.507   4.666  18.193  0.00  0.00    +0.000 A 
ENDBRANCH  21  26
ENDBRANCH  19  20
ENDBRANCH  18  19
ENDBRANCH   4  18
TORSDOF 8
ENDMDL
MODEL 2
REMARK VINA RESULT:      -8.2      1.857      3.391
REMARK  Name = 
REMARK  10 active torsions:
REMARK  status: ('A' for Active; 'I' for Inactive)
REMARK    1  A    between atoms: C_1  and  C_2
REMARK    2  A    between atoms: N_4  and  C_5
REMARK    3  A    between atoms: C_5  and  C_6
REMARK    4  A    between atoms: C_6  and  N_7
REMARK    5  A    between atoms: C_8  and  C_10
REMARK    6  A    between atoms: C_13  and  O_14
REMARK    7  A    between atoms: O_14  and  C_15
REMARK    8  A    between atoms: C_15  and  C_16
REMARK    9  A    between atoms: C_17  and  C_18
REMARK   10  A    between atoms: C_26  and  C_27
REMARK                            x       y       z     vdW  Elec       q    Type
REMARK                         _______ _______ _______ _____ _____    ______ ____
ROOT
ATOM      1  C   UNL     1       1.098   9.475  19.880  0.00  0.00    +0.000 A 
ATOM      2  C   UNL     1       1.330   9.706  18.523  0.00  0.00    +0.000 A 
ATOM      3  C   UNL     1       1.962   8.725  17.749  0.00  0.00    +0.000 A 
ATOM      4  C   UNL     1       2.354   7.544  18.364  0.00  0.00    +0.000 A 
ATOM      5  N   UNL     1       2.165   7.314  19.680  0.00  0.00    +0.000 NA
ATOM      6  C   UNL     1       1.554   8.278  20.408  0.00  0.00    +0.000 A 
ENDROOT
BRANCH   1   8
ATOM      7  N   UNL     1      -0.803  10.934  20.298  0.00  0.00    +0.000 N 
ATOM      8  C   UNL     1       0.436  10.503  20.718  0.00  0.00    +0.000 C 
ATOM      9  O   UNL     1       1.001  10.944  21.711  0.00  0.00    +0.000 OA
ATOM     10  H   UNL     1      -1.141  10.702  19.372  0.00  0.00    +0.000 HD
BRANCH   7  11
ATOM     11  C   UNL     1      -1.554  11.947  21.023  0.00  0.00    +0.000 C 
BRANCH  11  12
ATOM     12  C   UNL     1      -2.313  12.900  20.093  0.00  0.00    +0.000 C 
BRANCH  12  16
ATOM     13  C   UNL     1      -4.202  11.247  17.257  0.00  0.00    +0.000 C 
ATOM     14  C   UNL     1      -3.998  11.857  18.617  0.00  0.00    +0.000 C 
ATOM     15  O   UNL     1      -4.904  11.981  19.433  0.00  0.00    +0.000 OA
ATOM     16  N   UNL     1      -2.704  12.264  18.848  0.00  0.00    +0.000 N 
ATOM     17  H   UNL     1      -2.029  12.231  18.093  0.00  0.00    +0.000 HD
ENDBRANCH  12  16
ENDBRANCH  11  12
ENDBRANCH   7  11
ENDBRANCH   1   8
BRANCH   4  18
ATOM     18  O   UNL     1       3.036   6.537  17.762  0.00  0.00    +0.000 OA
BRANCH  18  19
ATOM     19  C   UNL     1       4.344   6.821  17.275  0.00  0.00    +0.000 C 
BRANCH  19  20
ATOM     20  C   UNL     1       5.367   5.952  17.934  0.00  0.00    +0.000 A 
ATOM     21  C   UNL     1       5.198   4.669  18.563  0.00  0.00    +0.000 A 
ATOM     22  N   UNL     1       6.371   4.247  19.067  0.00  0.00    +0.000 NA
ATOM     23  O   UNL     1       7.306   5.200  18.757  0.00  0.00    +0.000 OA
ATOM     24  C   UNL     1       6.718   6.210  18.077  0.00  0.00    +0.000 A 
ATOM     25  C   UNL     1       7.612   7.309  17.654  0.00  0.00    +0.000 C 
BRANCH  21  26
ATOM     26  C   UNL     1       4.005   3.823  18.704  0.00  0.00    +0.000 A 
ATOM     27  C   UNL     1       3.248   3.799  19.882  0.00  0.00    +0.000 A 
ATOM     28  C   UNL     1       2.093   3.016  19.979  0.00  0.00    +0.000 A 
ATOM     29  C   UNL     1       1.665   2.264  18.889  0.00  0.00    +0.000 A 
ATOM     30  C   UNL     1       2.394   2.286  17.705  0.00  0.00    +0.000 A 
ATOM     31  C   UNL     1       3.558   3.056  17.614  0.00  0.00    +0.000 A 
ENDBRANCH  21  26
ENDBRANCH  19  20
ENDBRANCH  18  19
ENDBRANCH   4  18
TORSDOF 8
ENDMDL
MODEL 3
REMARK VINA RESULT:      -8.1      1.659      3.341
REMARK  Name = 
REMARK  10 active torsions:
REMARK  status: ('A' for Active; 'I' for Inactive)
REMARK    1  A    between atoms: C_1  and  C_2
REMARK    2  A    between atoms: N_4  and  C_5
REMARK    3  A    between atoms: C_5  and  C_6
REMARK    4  A    between atoms: C_6  and  N_7
REMARK    5  A    between atoms: C_8  and  C_10
REMARK    6  A    between atoms: C_13  and  O_14
REMARK    7  A    between atoms: O_14  and  C_15
REMARK    8  A    between atoms: C_15  and  C_16
REMARK    9  A    between atoms: C_17  and  C_18
REMARK   10  A    between atoms: C_26  and  C_27
REMARK                            x       y       z     vdW  Elec       q    Type
REMARK                         _______ _______ _______ _____ _____    ______ ____
ROOT
ATOM      1  C   UNL     1       0.675   9.644  19.462  0.00  0.00    +0.000 A 
ATOM      2  C   UNL     1       1.251   8.685  20.297  0.00  0.00    +0.000 A 
ATOM      3  C   UNL     1       2.083   7.700  19.752  0.00  0.00    +0.000 A 
ATOM      4  C   UNL     1       2.303   7.698  18.382  0.00  0.00    +0.000 A 
ATOM      5  N   UNL     1       1.732   8.597  17.555  0.00  0.00    +0.000 NA
ATOM      6  C   UNL     1       0.930   9.540  18.104  0.00  0.00    +0.000 A 
ENDROOT
BRANCH   1   8
ATOM      7  N   UNL     1      -0.704  11.620  19.124  0.00  0.00    +0.000 N 
ATOM      8  C   UNL     1      -0.213  10.693  20.017  0.00  0.00    +0.000 C 
ATOM      9  O   UNL     1      -0.456  10.721  21.217  0.00  0.00    +0.000 OA
ATOM     10  H   UNL     1      -0.319  11.687  18.189  0.00  0.00    +0.000 HD
BRANCH   7  11
ATOM     11  C   UNL     1      -1.576  12.707  19.541  0.00  0.00    +0.000 C 
BRANCH  11  12
ATOM     12  C   UNL     1      -3.062  12.367  19.383  0.00  0.00    +0.000 C 
BRANCH  12  16
ATOM     13  C   UNL     1      -3.874  10.954  15.965  0.00  0.00    +0.000 C 
ATOM     14  C   UNL     1      -3.416  10.939  17.398  0.00  0.00    +0.000 C 
ATOM     15  O   UNL     1      -3.059   9.917  17.972  0.00  0.00    +0.000 OA
ATOM     16  N   UNL     1      -3.443  12.179  17.996  0.00  0.00    +0.000 N 
ATOM     17  H   UNL     1      -3.849  12.962  17.499  0.00  0.00    +0.000 HD
ENDBRANCH  12  16
ENDBRANCH  11  12
ENDBRANCH   7  11
ENDBRANCH   1   8
BRANCH   4  18
ATOM     18  O   UNL     1       3.024   6.768  17.706  0.00  0.00    +0.000 OA
BRANCH  18  19
ATOM     19  C   UNL     1       4.421   7.000  17.548  0.00  0.00    +0.000 C 
BRANCH  19  20
ATOM     20  C   UNL     1       5.225   5.917  18.195  0.00  0.00    +0.000 A 
ATOM     21  C   UNL     1       4.772   4.726  18.862  0.00  0.00    +0.000 A 
ATOM     22  N   UNL     1       5.825   4.037  19.337  0.00  0.00    +0.000 NA
ATOM     23  O   UNL     1       6.952   4.726  18.971  0.00  0.00    +0.000 OA
ATOM     24  C   UNL     1       6.603   5.839  18.285  0.00  0.00    +0.000 A 
ATOM     25  C   UNL     1       7.721   6.677  17.804  0.00  0.00    +0.000 C 
BRANCH  21  26
ATOM     26  C   UNL     1       3.415   4.201  19.064  0.00  0.00    +0.000 A 
ATOM     27  C   UNL     1       2.726   3.516  18.055  0.00  0.00    +0.000 A 
ATOM     28  C   UNL     1       1.451   2.990  18.285  0.00  0.00    +0.000 A 
ATOM     29  C   UNL     1       0.856   3.119  19.536  0.00  0.00    +0.000 A 
ATOM     30  C   UNL     1       1.530   3.782  20.557  0.00  0.00    +0.000 A 
ATOM     31  C   UNL     1       2.798   4.323  20.322  0.00  0.00    +0.000 A 
ENDBRANCH  21  26
ENDBRANCH  19  20
ENDBRANCH  18  19
ENDBRANCH   4  18
TORSDOF 8
ENDMDL
MODEL 4
REMARK VINA RESULT:      -8.1      1.353      1.761
REMARK  Name = 
REMARK  10 active torsions:
REMARK  status: ('A' for Active; 'I' for Inactive)
REMARK    1  A    between atoms: C_1  and  C_2
REMARK    2  A    between atoms: N_4  and  C_5
REMARK    3  A    between atoms: C_5  and  C_6
REMARK    4  A    between atoms: C_6  and  N_7
REMARK    5  A    between atoms: C_8  and  C_10
REMARK    6  A    between atoms: C_13  and  O_14
REMARK    7  A    between atoms: O_14  and  C_15
REMARK    8  A    between atoms: C_15  and  C_16
REMARK    9  A    between atoms: C_17  and  C_18
REMARK   10  A    between atoms: C_26  and  C_27
REMARK                            x       y       z     vdW  Elec       q    Type
REMARK                         _______ _______ _______ _____ _____    ______ ____
ROOT
ATOM      1  C   UNL     1       1.046   9.756  19.289  0.00  0.00    +0.000 A 
ATOM      2  C   UNL     1       1.184   8.881  20.369  0.00  0.00    +0.000 A 
ATOM      3  C   UNL     1       1.839   7.657  20.191  0.00  0.00    +0.000 A 
ATOM      4  C   UNL     1       2.325   7.339  18.930  0.00  0.00    +0.000 A 
ATOM      5  N   UNL     1       2.176   8.158  17.869  0.00  0.00    +0.000 NA
ATOM      6  C   UNL     1       1.538   9.336  18.064  0.00  0.00    +0.000 A 
ENDROOT
BRANCH   1   8
ATOM      7  N   UNL     1      -1.025  11.024  19.430  0.00  0.00    +0.000 N 
ATOM      8  C   UNL     1       0.351  11.054  19.454  0.00  0.00    +0.000 C 
ATOM      9  O   UNL     1       0.998  12.087  19.577  0.00  0.00    +0.000 OA
ATOM     10  H   UNL     1      -1.515  10.192  19.122  0.00  0.00    +0.000 HD
BRANCH   7  11
ATOM     11  C   UNL     1      -1.827  12.229  19.569  0.00  0.00    +0.000 C 
BRANCH  11  12
ATOM     12  C   UNL     1      -3.235  12.075  18.982  0.00  0.00    +0.000 C 
BRANCH  12  16
ATOM     13  C   UNL     1      -3.205  10.826  15.407  0.00  0.00    +0.000 C 
ATOM     14  C   UNL     1      -3.185  10.732  16.909  0.00  0.00    +0.000 C 
ATOM     15  O   UNL     1      -3.145   9.664  17.508  0.00  0.00    +0.000 OA
ATOM     16  N   UNL     1      -3.221  11.957  17.536  0.00  0.00    +0.000 N 
ATOM     17  H   UNL     1      -3.362  12.794  16.984  0.00  0.00    +0.000 HD
ENDBRANCH  12  16
ENDBRANCH  11  12
ENDBRANCH   7  11
ENDBRANCH   1   8
BRANCH   4  18
ATOM     18  O   UNL     1       2.916   6.166  18.592  0.00  0.00    +0.000 OA
BRANCH  18  19
ATOM     19  C   UNL     1       2.130   5.205  17.893  0.00  0.00    +0.000 C 
BRANCH  19  20
ATOM     20  C   UNL     1       2.671   3.824  18.082  0.00  0.00    +0.000 A 
ATOM     21  C   UNL     1       3.931   3.277  17.658  0.00  0.00    +0.000 A 
ATOM     22  N   UNL     1       4.007   1.978  17.996  0.00  0.00    +0.000 NA
ATOM     23  O   UNL     1       2.846   1.669  18.657  0.00  0.00    +0.000 OA
ATOM     24  C   UNL     1       2.052   2.763  18.718  0.00  0.00    +0.000 A 
ATOM     25  C   UNL     1       0.766   2.587  19.425  0.00  0.00    +0.000 C 
BRANCH  21  26
ATOM     26  C   UNL     1       5.064   3.910  16.968  0.00  0.00    +0.000 A 
ATOM     27  C   UNL     1       6.178   4.398  17.663  0.00  0.00    +0.000 A 
ATOM     28  C   UNL     1       7.262   4.959  16.981  0.00  0.00    +0.000 A 
ATOM     29  C   UNL     1       7.259   5.018  15.590  0.00  0.00    +0.000 A 
ATOM     30  C   UNL     1       6.170   4.525  14.880  0.00  0.00    +0.000 A 
ATOM     31  C   UNL     1       5.078   3.979  15.563  0.00  0.00    +0.000 A 
ENDBRANCH  21  26
ENDBRANCH  19  20
ENDBRANCH  18  19
ENDBRANCH   4  18
TORSDOF 8
ENDMDL
MODEL 5
REMARK VINA RESULT:      -8.1      0.975      1.367
REMARK  Name = 
REMARK  10 active torsions:
REMARK  status: ('A' for Active; 'I' for Inactive)
REMARK    1  A    between atoms: C_1  and  C_2
REMARK    2  A    between atoms: N_4  and  C_5
REMARK    3  A    between atoms: C_5  and  C_6
REMARK    4  A    between atoms: C_6  and  N_7
REMARK    5  A    between atoms: C_8  and  C_10
REMARK    6  A    between atoms: C_13  and  O_14
REMARK    7  A    between atoms: O_14  and  C_15
REMARK    8  A    between atoms: C_15  and  C_16
REMARK    9  A    between atoms: C_17  and  C_18
REMARK   10  A    between atoms: C_26  and  C_27
REMARK                            x       y       z     vdW  Elec       q    Type
REMARK                         _______ _______ _______ _____ _____    ______ ____
ROOT
ATOM      1  C   UNL     1       1.053   9.828  19.525  0.00  0.00    +0.000 A 
ATOM      2  C   UNL     1       1.476   9.647  18.206  0.00  0.00    +0.000 A 
ATOM      3  C   UNL     1       2.109   8.454  17.838  0.00  0.00    +0.000 A 
ATOM      4  C   UNL     1       2.312   7.482  18.808  0.00  0.00    +0.000 A 
ATOM      5  N   UNL     1       1.938   7.651  20.093  0.00  0.00    +0.000 NA
ATOM      6  C   UNL     1       1.329   8.813  20.426  0.00  0.00    +0.000 A 
ENDROOT
BRANCH   1   8
ATOM      7  N   UNL     1      -0.858  10.961  20.516  0.00  0.00    +0.000 N 
ATOM      8  C   UNL     1       0.386  11.086  19.937  0.00  0.00    +0.000 C 
ATOM      9  O   UNL     1       0.928  12.165  19.733  0.00  0.00    +0.000 OA
ATOM     10  H   UNL     1      -1.356  10.080  20.478  0.00  0.00    +0.000 HD
BRANCH   7  11
ATOM     11  C   UNL     1      -1.624  12.116  20.954  0.00  0.00    +0.000 C 
BRANCH  11  12
ATOM     12  C   UNL     1      -2.576  12.640  19.873  0.00  0.00    +0.000 C 
BRANCH  12  16
ATOM     13  C   UNL     1      -2.603  11.015  16.453  0.00  0.00    +0.000 C 
ATOM     14  C   UNL     1      -3.134  11.411  17.804  0.00  0.00    +0.000 C 
ATOM     15  O   UNL     1      -4.257  11.112  18.191  0.00  0.00    +0.000 OA
ATOM     16  N   UNL     1      -2.240  12.143  18.551  0.00  0.00    +0.000 N 
ATOM     17  H   UNL     1      -1.371  12.447  18.131  0.00  0.00    +0.000 HD
ENDBRANCH  12  16
ENDBRANCH  11  12
ENDBRANCH   7  11
ENDBRANCH   1   8
BRANCH   4  18
ATOM     18  O   UNL     1       2.971   6.311  18.617  0.00  0.00    +0.000 OA
BRANCH  18  19
ATOM     19  C   UNL     1       2.241   5.102  18.801  0.00  0.00    +0.000 C 
BRANCH  19  20
ATOM     20  C   UNL     1       3.105   4.034  19.393  0.00  0.00    +0.000 A 
ATOM     21  C   UNL     1       4.396   3.569  18.963  0.00  0.00    +0.000 A 
ATOM     22  N   UNL     1       4.809   2.563  19.753  0.00  0.00    +0.000 NA
ATOM     23  O   UNL     1       3.841   2.380  20.706  0.00  0.00    +0.000 OA
ATOM     24  C   UNL     1       2.831   3.256  20.503  0.00  0.00    +0.000 A 
ATOM     25  C   UNL     1       1.716   3.191  21.472  0.00  0.00    +0.000 C 
BRANCH  21  26
ATOM     26  C   UNL     1       5.258   4.024  17.864  0.00  0.00    +0.000 A 
ATOM     27  C   UNL     1       6.506   4.617  18.097  0.00  0.00    +0.000 A 
ATOM     28  C   UNL     1       7.327   5.005  17.033  0.00  0.00    +0.000 A 
ATOM     29  C   UNL     1       6.923   4.784  15.720  0.00  0.00    +0.000 A 
ATOM     30  C   UNL     1       5.695   4.183  15.467  0.00  0.00    +0.000 A 
ATOM     31  C   UNL     1       4.866   3.810  16.530  0.00  0.00    +0.000 A 
ENDBRANCH  21  26
ENDBRANCH  19  20
ENDBRANCH  18  19
ENDBRANCH   4  18
TORSDOF 8
ENDMDL
MODEL 6
REMARK VINA RESULT:      -8.1      2.831      4.507
REMARK  Name = 
REMARK  10 active torsions:
REMARK  status: ('A' for Active; 'I' for Inactive)
REMARK    1  A    between atoms: C_1  and  C_2
REMARK    2  A    between atoms: N_4  and  C_5
REMARK    3  A    between atoms: C_5  and  C_6
REMARK    4  A    between atoms: C_6  and  N_7
REMARK    5  A    between atoms: C_8  and  C_10
REMARK    6  A    between atoms: C_13  and  O_14
REMARK    7  A    between atoms: O_14  and  C_15
REMARK    8  A    between atoms: C_15  and  C_16
REMARK    9  A    between atoms: C_17  and  C_18
REMARK   10  A    between atoms: C_26  and  C_27
REMARK                            x       y       z     vdW  Elec       q    Type
REMARK                         _______ _______ _______ _____ _____    ______ ____
ROOT
ATOM      1  C   UNL     1       1.047  10.036  19.933  0.00  0.00    +0.000 A 
ATOM      2  C   UNL     1       1.264   8.882  20.688  0.00  0.00    +0.000 A 
ATOM      3  C   UNL     1       1.846   7.758  20.088  0.00  0.00    +0.000 A 
ATOM      4  C   UNL     1       2.181   7.822  18.742  0.00  0.00    +0.000 A 
ATOM      5  N   UNL     1       1.952   8.917  17.989  0.00  0.00    +0.000 NA
ATOM      6  C   UNL     1       1.387   9.991  18.591  0.00  0.00    +0.000 A 
ENDROOT
BRANCH   1   8
ATOM      7  N   UNL     1      -0.329  11.023  21.679  0.00  0.00    +0.000 N 
ATOM      8  C   UNL     1       0.428  11.234  20.548  0.00  0.00    +0.000 C 
ATOM      9  O   UNL     1       0.580  12.336  20.036  0.00  0.00    +0.000 OA
ATOM     10  H   UNL     1      -0.600  10.085  21.949  0.00  0.00    +0.000 HD
BRANCH   7  11
ATOM     11  C   UNL     1      -1.000  12.111  22.372  0.00  0.00    +0.000 C 
BRANCH  11  12
ATOM     12  C   UNL     1      -2.154  11.627  23.258  0.00  0.00    +0.000 C 
BRANCH  12  16
ATOM     13  C   UNL     1      -5.563  13.274  23.234  0.00  0.00    +0.000 C 
ATOM     14  C   UNL     1      -4.320  12.670  23.827  0.00  0.00    +0.000 C 
ATOM     15  O   UNL     1      -4.127  12.596  25.035  0.00  0.00    +0.000 OA
ATOM     16  N   UNL     1      -3.425  12.219  22.884  0.00  0.00    +0.000 N 
ATOM     17  H   UNL     1      -3.597  12.408  21.904  0.00  0.00    +0.000 HD
ENDBRANCH  12  16
ENDBRANCH  11  12
ENDBRANCH   7  11
ENDBRANCH   1   8
BRANCH   4  18
ATOM     18  O   UNL     1       2.684   6.795  18.011  0.00  0.00    +0.000 OA
BRANCH  18  19
ATOM     19  C   UNL     1       4.023   6.910  17.540  0.00  0.00    +0.000 C 
BRANCH  19  20
ATOM     20  C   UNL     1       4.903   5.868  18.154  0.00  0.00    +0.000 A 
ATOM     21  C   UNL     1       4.535   4.678  18.873  0.00  0.00    +0.000 A 
ATOM     22  N   UNL     1       5.638   4.033  19.291  0.00  0.00    +0.000 NA
ATOM     23  O   UNL     1       6.715   4.749  18.837  0.00  0.00    +0.000 OA
ATOM     24  C   UNL     1       6.286   5.835  18.154  0.00  0.00    +0.000 A 
ATOM     25  C   UNL     1       7.342   6.697  17.583  0.00  0.00    +0.000 C 
BRANCH  21  26
ATOM     26  C   UNL     1       3.212   4.115  19.176  0.00  0.00    +0.000 A 
ATOM     27  C   UNL     1       2.502   3.347  18.245  0.00  0.00    +0.000 A 
ATOM     28  C   UNL     1       1.262   2.787  18.570  0.00  0.00    +0.000 A 
ATOM     29  C   UNL     1       0.725   2.968  19.841  0.00  0.00    +0.000 A 
ATOM     30  C   UNL     1       1.422   3.714  20.786  0.00  0.00    +0.000 A 
ATOM     31  C   UNL     1       2.653   4.288  20.455  0.00  0.00    +0.000 A 
ENDBRANCH  21  26
ENDBRANCH  19  20
ENDBRANCH  18  19
ENDBRANCH   4  18
TORSDOF 8
ENDMDL
MODEL 7
REMARK VINA RESULT:      -8.1      2.987      5.072
REMARK  Name = 
REMARK  10 active torsions:
REMARK  status: ('A' for Active; 'I' for Inactive)
REMARK    1  A    between atoms: C_1  and  C_2
REMARK    2  A    between atoms: N_4  and  C_5
REMARK    3  A    between atoms: C_5  and  C_6
REMARK    4  A    between atoms: C_6  and  N_7
REMARK    5  A    between atoms: C_8  and  C_10
REMARK    6  A    between atoms: C_13  and  O_14
REMARK    7  A    between atoms: O_14  and  C_15
REMARK    8  A    between atoms: C_15  and  C_16
REMARK    9  A    between atoms: C_17  and  C_18
REMARK   10  A    between atoms: C_26  and  C_27
REMARK                            x       y       z     vdW  Elec       q    Type
REMARK                         _______ _______ _______ _____ _____    ______ ____
ROOT
ATOM      1  C   UNL     1       0.867   9.259  21.024  0.00  0.00    +0.000 A 
ATOM      2  C   UNL     1       0.889   9.880  19.774  0.00  0.00    +0.000 A 
ATOM      3  C   UNL     1       1.454   9.215  18.679  0.00  0.00    +0.000 A 
ATOM      4  C   UNL     1       1.992   7.950  18.873  0.00  0.00    +0.000 A 
ATOM      5  N   UNL     1       2.006   7.347  20.079  0.00  0.00    +0.000 NA
ATOM      6  C   UNL     1       1.455   8.009  21.124  0.00  0.00    +0.000 A 
ENDROOT
BRANCH   1   8
ATOM      7  N   UNL     1      -0.675  10.905  21.935  0.00  0.00    +0.000 N 
ATOM      8  C   UNL     1       0.278   9.947  22.197  0.00  0.00    +0.000 C 
ATOM      9  O   UNL     1       0.663   9.673  23.327  0.00  0.00    +0.000 OA
ATOM     10  H   UNL     1      -0.814  11.246  20.991  0.00  0.00    +0.000 HD
BRANCH   7  11
ATOM     11  C   UNL     1      -1.322  11.661  22.995  0.00  0.00    +0.000 C 
BRANCH  11  12
ATOM     12  C   UNL     1      -1.199  13.177  22.801  0.00  0.00    +0.000 C 
BRANCH  12  16
ATOM     13  C   UNL     1      -2.975  15.511  25.196  0.00  0.00    +0.000 C 
ATOM     14  C   UNL     1      -1.809  14.834  24.529  0.00  0.00    +0.000 C 
ATOM     15  O   UNL     1      -0.643  15.087  24.810  0.00  0.00    +0.000 OA
ATOM     16  N   UNL     1      -2.181  13.915  23.574  0.00  0.00    +0.000 N 
ATOM     17  H   UNL     1      -3.156  13.833  23.315  0.00  0.00    +0.000 HD
ENDBRANCH  12  16
ENDBRANCH  11  12
ENDBRANCH   7  11
ENDBRANCH   1   8
BRANCH   4  18
ATOM     18  O   UNL     1       2.632   7.218  17.927  0.00  0.00    +0.000 OA
BRANCH  18  19
ATOM     19  C   UNL     1       3.927   6.715  18.242  0.00  0.00    +0.000 C 
BRANCH  19  20
ATOM     20  C   UNL     1       4.170   5.396  17.579  0.00  0.00    +0.000 A 
ATOM     21  C   UNL     1       3.751   4.083  17.989  0.00  0.00    +0.000 A 
ATOM     22  N   UNL     1       4.215   3.162  17.126  0.00  0.00    +0.000 NA
ATOM     23  O   UNL     1       4.897   3.838  16.148  0.00  0.00    +0.000 OA
ATOM     24  C   UNL     1       4.866   5.166  16.406  0.00  0.00    +0.000 A 
ATOM     25  C   UNL     1       5.547   6.031  15.419  0.00  0.00    +0.000 C 
BRANCH  21  26
ATOM     26  C   UNL     1       2.935   3.654  19.133  0.00  0.00    +0.000 A 
ATOM     27  C   UNL     1       3.493   2.999  20.238  0.00  0.00    +0.000 A 
ATOM     28  C   UNL     1       2.703   2.636  21.333  0.00  0.00    +0.000 A 
ATOM     29  C   UNL     1       1.346   2.944  21.350  0.00  0.00    +0.000 A 
ATOM     30  C   UNL     1       0.775   3.608  20.269  0.00  0.00    +0.000 A 
ATOM     31  C   UNL     1       1.562   3.956  19.166  0.00  0.00    +0.000 A 
ENDBRANCH  21  26
ENDBRANCH  19  20
ENDBRANCH  18  19
ENDBRANCH   4  18
TORSDOF 8
ENDMDL
MODEL 8
REMARK VINA RESULT:      -8.0      1.894      3.200
REMARK  Name = 
REMARK  10 active torsions:
REMARK  status: ('A' for Active; 'I' for Inactive)
REMARK    1  A    between atoms: C_1  and  C_2
REMARK    2  A    between atoms: N_4  and  C_5
REMARK    3  A    between atoms: C_5  and  C_6
REMARK    4  A    between atoms: C_6  and  N_7
REMARK    5  A    between atoms: C_8  and  C_10
REMARK    6  A    between atoms: C_13  and  O_14
REMARK    7  A    between atoms: O_14  and  C_15
REMARK    8  A    between atoms: C_15  and  C_16
REMARK    9  A    between atoms: C_17  and  C_18
REMARK   10  A    between atoms: C_26  and  C_27
REMARK                            x       y       z     vdW  Elec       q    Type
REMARK                         _______ _______ _______ _____ _____    ______ ____
ROOT
ATOM      1  C   UNL     1       0.859   9.900  19.323  0.00  0.00    +0.000 A 
ATOM      2  C   UNL     1       1.439   9.573  18.096  0.00  0.00    +0.000 A 
ATOM      3  C   UNL     1       2.165   8.383  17.967  0.00  0.00    +0.000 A 
ATOM      4  C   UNL     1       2.300   7.561  19.078  0.00  0.00    +0.000 A 
ATOM      5  N   UNL     1       1.773   7.875  20.279  0.00  0.00    +0.000 NA
ATOM      6  C   UNL     1       1.076   9.031  20.380  0.00  0.00    +0.000 A 
ENDROOT
BRANCH   1   8
ATOM      7  N   UNL     1       0.084  12.015  18.406  0.00  0.00    +0.000 N 
ATOM      8  C   UNL     1       0.091  11.157  19.483  0.00  0.00    +0.000 C 
ATOM      9  O   UNL     1      -0.475  11.402  20.541  0.00  0.00    +0.000 OA
ATOM     10  H   UNL     1       0.726  11.877  17.635  0.00  0.00    +0.000 HD
BRANCH   7  11
ATOM     11  C   UNL     1      -0.622  13.287  18.436  0.00  0.00    +0.000 C 
BRANCH  11  12
ATOM     12  C   UNL     1       0.327  14.489  18.479  0.00  0.00    +0.000 C 
BRANCH  12  16
ATOM     13  C   UNL     1       2.205  14.773  21.755  0.00  0.00    +0.000 C 
ATOM     14  C   UNL     1       1.925  14.301  20.354  0.00  0.00    +0.000 C 
ATOM     15  O   UNL     1       2.671  13.544  19.745  0.00  0.00    +0.000 OA
ATOM     16  N   UNL     1       0.758  14.807  19.828  0.00  0.00    +0.000 N 
ATOM     17  H   UNL     1       0.244  15.511  20.343  0.00  0.00    +0.000 HD
ENDBRANCH  12  16
ENDBRANCH  11  12
ENDBRANCH   7  11
ENDBRANCH   1   8
BRANCH   4  18
ATOM     18  O   UNL     1       3.030   6.419  19.122  0.00  0.00    +0.000 OA
BRANCH  18  19
ATOM     19  C   UNL     1       2.331   5.181  19.024  0.00  0.00    +0.000 C 
BRANCH  19  20
ATOM     20  C   UNL     1       3.169   4.047  19.522  0.00  0.00    +0.000 A 
ATOM     21  C   UNL     1       4.427   3.560  19.023  0.00  0.00    +0.000 A 
ATOM     22  N   UNL     1       4.824   2.492  19.737  0.00  0.00    +0.000 NA
ATOM     23  O   UNL     1       3.878   2.288  20.708  0.00  0.00    +0.000 OA
ATOM     24  C   UNL     1       2.898   3.213  20.592  0.00  0.00    +0.000 A 
ATOM     25  C   UNL     1       1.811   3.131  21.591  0.00  0.00    +0.000 C 
BRANCH  21  26
ATOM     26  C   UNL     1       5.274   4.049  17.926  0.00  0.00    +0.000 A 
ATOM     27  C   UNL     1       6.479   4.723  18.163  0.00  0.00    +0.000 A 
ATOM     28  C   UNL     1       7.288   5.143  17.103  0.00  0.00    +0.000 A 
ATOM     29  C   UNL     1       6.916   4.874  15.789  0.00  0.00    +0.000 A 
ATOM     30  C   UNL     1       5.731   4.192  15.533  0.00  0.00    +0.000 A 
ATOM     31  C   UNL     1       4.913   3.787  16.593  0.00  0.00    +0.000 A 
ENDBRANCH  21  26
ENDBRANCH  19  20
ENDBRANCH  18  19
ENDBRANCH   4  18
TORSDOF 8
ENDMDL
MODEL 9
REMARK VINA RESULT:      -8.0      2.191      2.938
REMARK  Name = 
REMARK  10 active torsions:
REMARK  status: ('A' for Active; 'I' for Inactive)
REMARK    1  A    between atoms: C_1  and  C_2
REMARK    2  A    between atoms: N_4  and  C_5
REMARK    3  A    between atoms: C_5  and  C_6
REMARK    4  A    between atoms: C_6  and  N_7
REMARK    5  A    between atoms: C_8  and  C_10
REMARK    6  A    between atoms: C_13  and  O_14
REMARK    7  A    between atoms: O_14  and  C_15
REMARK    8  A    between atoms: C_15  and  C_16
REMARK    9  A    between atoms: C_17  and  C_18
REMARK   10  A    between atoms: C_26  and  C_27
REMARK                            x       y       z     vdW  Elec       q    Type
REMARK                         _______ _______ _______ _____ _____    ______ ____
ROOT
ATOM      1  C   UNL     1       1.139   9.654  19.880  0.00  0.00    +0.000 A 
ATOM      2  C   UNL     1       1.417   9.694  18.512  0.00  0.00    +0.000 A 
ATOM      3  C   UNL     1       1.967   8.571  17.882  0.00  0.00    +0.000 A 
ATOM      4  C   UNL     1       2.235   7.444  18.647  0.00  0.00    +0.000 A 
ATOM      5  N   UNL     1       2.001   7.396  19.974  0.00  0.00    +0.000 NA
ATOM      6  C   UNL     1       1.470   8.495  20.562  0.00  0.00    +0.000 A 
ENDROOT
BRANCH   1   8
ATOM      7  N   UNL     1      -0.534  11.417  19.972  0.00  0.00    +0.000 N 
ATOM      8  C   UNL     1       0.562  10.833  20.567  0.00  0.00    +0.000 C 
ATOM      9  O   UNL     1       1.074  11.258  21.595  0.00  0.00    +0.000 OA
ATOM     10  H   UNL     1      -0.798  11.169  19.026  0.00  0.00    +0.000 HD
BRANCH   7  11
ATOM     11  C   UNL     1      -1.189  12.586  20.537  0.00  0.00    +0.000 C 
BRANCH  11  12
ATOM     12  C   UNL     1      -2.292  12.222  21.536  0.00  0.00    +0.000 C 
BRANCH  12  16
ATOM     13  C   UNL     1      -3.304  14.218  24.591  0.00  0.00    +0.000 C 
ATOM     14  C   UNL     1      -3.225  13.025  23.678  0.00  0.00    +0.000 C 
ATOM     15  O   UNL     1      -3.753  11.950  23.941  0.00  0.00    +0.000 OA
ATOM     16  N   UNL     1      -2.502  13.258  22.530  0.00  0.00    +0.000 N 
ATOM     17  H   UNL     1      -2.003  14.133  22.426  0.00  0.00    +0.000 HD
ENDBRANCH  12  16
ENDBRANCH  11  12
ENDBRANCH   7  11
ENDBRANCH   1   8
BRANCH   4  18
ATOM     18  O   UNL     1       2.830   6.312  18.191  0.00  0.00    +0.000 OA
BRANCH  18  19
ATOM     19  C   UNL     1       2.136   5.081  18.371  0.00  0.00    +0.000 C 
BRANCH  19  20
ATOM     20  C   UNL     1       2.980   4.088  19.105  0.00  0.00    +0.000 A 
ATOM     21  C   UNL     1       4.313   3.636  18.810  0.00  0.00    +0.000 A 
ATOM     22  N   UNL     1       4.691   2.704  19.703  0.00  0.00    +0.000 NA
ATOM     23  O   UNL     1       3.657   2.559  20.591  0.00  0.00    +0.000 OA
ATOM     24  C   UNL     1       2.642   3.384  20.246  0.00  0.00    +0.000 A 
ATOM     25  C   UNL     1       1.457   3.353  21.130  0.00  0.00    +0.000 C 
BRANCH  21  26
ATOM     26  C   UNL     1       5.246   4.038  17.748  0.00  0.00    +0.000 A 
ATOM     27  C   UNL     1       4.951   3.852  16.392  0.00  0.00    +0.000 A 
ATOM     28  C   UNL     1       5.837   4.279  15.398  0.00  0.00    +0.000 A 
ATOM     29  C   UNL     1       7.021   4.923  15.746  0.00  0.00    +0.000 A 
ATOM     30  C   UNL     1       7.325   5.132  17.087  0.00  0.00    +0.000 A 
ATOM     31  C   UNL     1       6.447   4.689  18.082  0.00  0.00    +0.000 A 
ENDBRANCH  21  26
ENDBRANCH  19  20
ENDBRANCH  18  19
ENDBRANCH   4  18
TORSDOF 8
ENDMDL
