MODEL 1
REMARK VINA RESULT:      -6.4      0.000      0.000
REMARK  Name = 
REMARK  11 active torsions:
REMARK  status: ('A' for Active; 'I' for Inactive)
REMARK    1  A    between atoms: C_1  and  C_2
REMARK    2  A    between atoms: C_5  and  C_6
REMARK    3  A    between atoms: C_7  and  C_8
REMARK    4  A    between atoms: C_8  and  N_9
REMARK    5  A    between atoms: N_9  and  C_10
REMARK    6  A    between atoms: C_10  and  C_11
REMARK    7  A    between atoms: C_12  and  C_13
REMARK    8  A    between atoms: N_15  and  C_16
REMARK    9  A    between atoms: C_16  and  C_17
REMARK   10  A    between atoms: C_17  and  O_18
REMARK   11  A    between atoms: C_19  and  C_20
REMARK                            x       y       z     vdW  Elec       q    Type
REMARK                         _______ _______ _______ _____ _____    ______ ____
ROOT
ATOM      1  C   UNL     1       3.774   6.134  17.379  0.00  0.00    +0.000 C 
ENDROOT
BRANCH   1   2
ATOM      2  C   UNL     1       3.166   5.097  18.268  0.00  0.00    +0.000 A 
ATOM      3  C   UNL     1       3.319   3.682  18.213  0.00  0.00    +0.000 A 
ATOM      4  C   UNL     1       4.113   2.865  17.261  0.00  0.00    +0.000 C 
ATOM      5  N   UNL     1       2.629   3.067  19.181  0.00  0.00    +0.000 NA
ATOM      6  N   UNL     1       2.041   4.066  19.864  0.00  0.00    +0.000 N 
ATOM      7  C   UNL     1       2.369   5.310  19.387  0.00  0.00    +0.000 A 
ATOM      8  C   UNL     1       1.934   6.587  20.011  0.00  0.00    +0.000 C 
BRANCH   6   9
ATOM      9  C   UNL     1       1.126   3.718  20.938  0.00  0.00    +0.000 C 
BRANCH   9  10
ATOM     10  C   UNL     1       1.588   2.507  21.736  0.00  0.00    +0.000 C 
BRANCH  10  11
ATOM     11  O   UNL     1       3.007   2.497  21.885  0.00  0.00    +0.000 OA
ATOM     12  H   UNL     1       3.375   2.159  21.049  0.00  0.00    +0.000 HD
ENDBRANCH  10  11
ENDBRANCH   9  10
ENDBRANCH   6   9
ENDBRANCH   1   2
BRANCH   1  13
ATOM     13  N   UNL     1       4.838   6.883  18.053  0.00  0.00    +0.000 NA
ATOM     14  H   UNL     1       4.450   7.771  18.366  0.00  0.00    +0.000 HD
BRANCH  13  15
ATOM     15  C   UNL     1       5.981   7.165  17.187  0.00  0.00    +0.000 C 
BRANCH  15  22
ATOM     16  C   UNL     1       7.841   5.792  19.468  0.00  0.00    +0.000 C 
ATOM     17  C   UNL     1       7.600   5.315  18.085  0.00  0.00    +0.000 A 
ATOM     18  N   UNL     1       8.176   4.190  17.652  0.00  0.00    +0.000 NA
ATOM     19  O   UNL     1       7.766   4.034  16.348  0.00  0.00    +0.000 OA
ATOM     20  C   UNL     1       6.938   5.059  16.003  0.00  0.00    +0.000 A 
ATOM     21  C   UNL     1       6.411   5.007  14.627  0.00  0.00    +0.000 C 
ATOM     22  C   UNL     1       6.792   5.918  17.076  0.00  0.00    +0.000 A 
ENDBRANCH  15  22
ENDBRANCH  13  15
ENDBRANCH   1  13
TORSDOF 7
ENDMDL
MODEL 2
REMARK VINA RESULT:      -6.3      0.544      1.838
REMARK  Name = 
REMARK  11 active torsions:
REMARK  status: ('A' for Active; 'I' for Inactive)
REMARK    1  A    between atoms: C_1  and  C_2
REMARK    2  A    between atoms: C_5  and  C_6
REMARK    3  A    between atoms: C_7  and  C_8
REMARK    4  A    between atoms: C_8  and  N_9
REMARK    5  A    between atoms: N_9  and  C_10
REMARK    6  A    between atoms: C_10  and  C_11
REMARK    7  A    between atoms: C_12  and  C_13
REMARK    8  A    between atoms: N_15  and  C_16
REMARK    9  A    between atoms: C_16  and  C_17
REMARK   10  A    between atoms: C_17  and  O_18
REMARK   11  A    between atoms: C_19  and  C_20
REMARK                            x       y       z     vdW  Elec       q    Type
REMARK                         _______ _______ _______ _____ _____    ______ ____
ROOT
ATOM      1  C   UNL     1       3.461   6.524  17.672  0.00  0.00    +0.000 C 
ENDROOT
BRANCH   1   2
ATOM      2  C   UNL     1       2.886   5.347  18.393  0.00  0.00    +0.000 A 
ATOM      3  C   UNL     1       3.007   3.965  18.073  0.00  0.00    +0.000 A 
ATOM      4  C   UNL     1       3.729   3.329  16.942  0.00  0.00    +0.000 C 
ATOM      5  N   UNL     1       2.363   3.190  18.953  0.00  0.00    +0.000 NA
ATOM      6  N   UNL     1       1.835   4.053  19.840  0.00  0.00    +0.000 N 
ATOM      7  C   UNL     1       2.160   5.360  19.578  0.00  0.00    +0.000 A 
ATOM      8  C   UNL     1       1.787   6.506  20.448  0.00  0.00    +0.000 C 
BRANCH   6   9
ATOM      9  C   UNL     1       0.977   3.523  20.887  0.00  0.00    +0.000 C 
BRANCH   9  10
ATOM     10  C   UNL     1       1.626   2.382  21.659  0.00  0.00    +0.000 C 
BRANCH  10  11
ATOM     11  O   UNL     1       3.022   2.610  21.841  0.00  0.00    +0.000 OA
ATOM     12  H   UNL     1       3.453   1.736  21.843  0.00  0.00    +0.000 HD
ENDBRANCH  10  11
ENDBRANCH   9  10
ENDBRANCH   6   9
ENDBRANCH   1   2
BRANCH   1  13
ATOM     13  N   UNL     1       4.801   6.868  18.157  0.00  0.00    +0.000 NA
ATOM     14  H   UNL     1       4.728   7.726  18.703  0.00  0.00    +0.000 HD
BRANCH  13  15
ATOM     15  C   UNL     1       5.764   7.091  17.082  0.00  0.00    +0.000 C 
BRANCH  15  22
ATOM     16  C   UNL     1       6.099   5.033  14.592  0.00  0.00    +0.000 C 
ATOM     17  C   UNL     1       6.796   4.998  15.899  0.00  0.00    +0.000 A 
ATOM     18  N   UNL     1       7.688   4.038  16.159  0.00  0.00    +0.000 NA
ATOM     19  O   UNL     1       8.139   4.276  17.437  0.00  0.00    +0.000 OA
ATOM     20  C   UNL     1       7.523   5.383  17.939  0.00  0.00    +0.000 A 
ATOM     21  C   UNL     1       7.928   5.762  19.306  0.00  0.00    +0.000 C 
ATOM     22  C   UNL     1       6.647   5.893  16.999  0.00  0.00    +0.000 A 
ENDBRANCH  15  22
ENDBRANCH  13  15
ENDBRANCH   1  13
TORSDOF 7
ENDMDL
MODEL 3
REMARK VINA RESULT:      -6.3      0.797      1.996
REMARK  Name = 
REMARK  11 active torsions:
REMARK  status: ('A' for Active; 'I' for Inactive)
REMARK    1  A    between atoms: C_1  and  C_2
REMARK    2  A    between atoms: C_5  and  C_6
REMARK    3  A    between atoms: C_7  and  C_8
REMARK    4  A    between atoms: C_8  and  N_9
REMARK    5  A    between atoms: N_9  and  C_10
REMARK    6  A    between atoms: C_10  and  C_11
REMARK    7  A    between atoms: C_12  and  C_13
REMARK    8  A    between atoms: N_15  and  C_16
REMARK    9  A    between atoms: C_16  and  C_17
REMARK   10  A    between atoms: C_17  and  O_18
REMARK   11  A    between atoms: C_19  and  C_20
REMARK                            x       y       z     vdW  Elec       q    Type
REMARK                         _______ _______ _______ _____ _____    ______ ____
ROOT
ATOM      1  C   UNL     1       3.363   6.397  17.730  0.00  0.00    +0.000 C 
ENDROOT
BRANCH   1   2
ATOM      2  C   UNL     1       2.527   5.687  18.747  0.00  0.00    +0.000 A 
ATOM      3  C   UNL     1       1.891   6.225  19.903  0.00  0.00    +0.000 A 
ATOM      4  C   UNL     1       1.894   7.622  20.405  0.00  0.00    +0.000 C 
ATOM      5  N   UNL     1       1.214   5.290  20.580  0.00  0.00    +0.000 NA
ATOM      6  N   UNL     1       1.399   4.161  19.873  0.00  0.00    +0.000 N 
ATOM      7  C   UNL     1       2.140   4.353  18.734  0.00  0.00    +0.000 A 
ATOM      8  C   UNL     1       2.415   3.296  17.727  0.00  0.00    +0.000 C 
BRANCH   6   9
ATOM      9  C   UNL     1       0.862   2.920  20.408  0.00  0.00    +0.000 C 
BRANCH   9  10
ATOM     10  C   UNL     1       1.579   2.464  21.671  0.00  0.00    +0.000 C 
BRANCH  10  11
ATOM     11  O   UNL     1       2.561   3.416  22.080  0.00  0.00    +0.000 OA
ATOM     12  H   UNL     1       2.143   4.294  22.024  0.00  0.00    +0.000 HD
ENDBRANCH  10  11
ENDBRANCH   9  10
ENDBRANCH   6   9
ENDBRANCH   1   2
BRANCH   1  13
ATOM     13  N   UNL     1       4.734   6.616  18.198  0.00  0.00    +0.000 NA
ATOM     14  H   UNL     1       4.727   7.411  18.836  0.00  0.00    +0.000 HD
BRANCH  13  15
ATOM     15  C   UNL     1       5.673   6.908  17.117  0.00  0.00    +0.000 C 
BRANCH  15  22
ATOM     16  C   UNL     1       7.707   5.827  19.407  0.00  0.00    +0.000 C 
ATOM     17  C   UNL     1       7.517   5.295  18.036  0.00  0.00    +0.000 A 
ATOM     18  N   UNL     1       8.228   4.243  17.620  0.00  0.00    +0.000 NA
ATOM     19  O   UNL     1       7.831   4.009  16.323  0.00  0.00    +0.000 OA
ATOM     20  C   UNL     1       6.878   4.915  15.966  0.00  0.00    +0.000 A 
ATOM     21  C   UNL     1       6.352   4.768  14.596  0.00  0.00    +0.000 C 
ATOM     22  C   UNL     1       6.633   5.771  17.024  0.00  0.00    +0.000 A 
ENDBRANCH  15  22
ENDBRANCH  13  15
ENDBRANCH   1  13
TORSDOF 7
ENDMDL
MODEL 4
REMARK VINA RESULT:      -6.2      1.017      2.784
REMARK  Name = 
REMARK  11 active torsions:
REMARK  status: ('A' for Active; 'I' for Inactive)
REMARK    1  A    between atoms: C_1  and  C_2
REMARK    2  A    between atoms: C_5  and  C_6
REMARK    3  A    between atoms: C_7  and  C_8
REMARK    4  A    between atoms: C_8  and  N_9
REMARK    5  A    between atoms: N_9  and  C_10
REMARK    6  A    between atoms: C_10  and  C_11
REMARK    7  A    between atoms: C_12  and  C_13
REMARK    8  A    between atoms: N_15  and  C_16
REMARK    9  A    between atoms: C_16  and  C_17
REMARK   10  A    between atoms: C_17  and  O_18
REMARK   11  A    between atoms: C_19  and  C_20
REMARK                            x       y       z     vdW  Elec       q    Type
REMARK                         _______ _______ _______ _____ _____    ______ ____
ROOT
ATOM      1  C   UNL     1       3.283   7.073  18.073  0.00  0.00    +0.000 C 
ENDROOT
BRANCH   1   2
ATOM      2  C   UNL     1       2.495   6.158  18.955  0.00  0.00    +0.000 A 
ATOM      3  C   UNL     1       1.801   6.467  20.159  0.00  0.00    +0.000 A 
ATOM      4  C   UNL     1       1.680   7.772  20.858  0.00  0.00    +0.000 C 
ATOM      5  N   UNL     1       1.195   5.392  20.677  0.00  0.00    +0.000 NA
ATOM      6  N   UNL     1       1.483   4.397  19.819  0.00  0.00    +0.000 N 
ATOM      7  C   UNL     1       2.221   4.813  18.739  0.00  0.00    +0.000 A 
ATOM      8  C   UNL     1       2.597   3.940  17.596  0.00  0.00    +0.000 C 
BRANCH   6   9
ATOM      9  C   UNL     1       1.044   3.052  20.155  0.00  0.00    +0.000 C 
BRANCH   9  10
ATOM     10  C   UNL     1       1.903   2.404  21.231  0.00  0.00    +0.000 C 
BRANCH  10  11
ATOM     11  O   UNL     1       2.220   3.332  22.268  0.00  0.00    +0.000 OA
ATOM     12  H   UNL     1       1.948   4.212  21.951  0.00  0.00    +0.000 HD
ENDBRANCH  10  11
ENDBRANCH   9  10
ENDBRANCH   6   9
ENDBRANCH   1   2
BRANCH   1  13
ATOM     13  N   UNL     1       4.192   6.340  17.188  0.00  0.00    +0.000 NA
ATOM     14  H   UNL     1       4.293   5.394  17.553  0.00  0.00    +0.000 HD
BRANCH  13  15
ATOM     15  C   UNL     1       5.522   6.940  17.103  0.00  0.00    +0.000 C 
BRANCH  15  22
ATOM     16  C   UNL     1       6.153   4.949  14.616  0.00  0.00    +0.000 C 
ATOM     17  C   UNL     1       6.800   4.970  15.949  0.00  0.00    +0.000 A 
ATOM     18  N   UNL     1       7.772   4.100  16.237  0.00  0.00    +0.000 NA
ATOM     19  O   UNL     1       8.148   4.370  17.534  0.00  0.00    +0.000 OA
ATOM     20  C   UNL     1       7.408   5.405  18.018  0.00  0.00    +0.000 A 
ATOM     21  C   UNL     1       7.721   5.810  19.401  0.00  0.00    +0.000 C 
ATOM     22  C   UNL     1       6.521   5.835  17.048  0.00  0.00    +0.000 A 
ENDBRANCH  15  22
ENDBRANCH  13  15
ENDBRANCH   1  13
TORSDOF 7
ENDMDL
MODEL 5
REMARK VINA RESULT:      -6.1      2.181      3.380
REMARK  Name = 
REMARK  11 active torsions:
REMARK  status: ('A' for Active; 'I' for Inactive)
REMARK    1  A    between atoms: C_1  and  C_2
REMARK    2  A    between atoms: C_5  and  C_6
REMARK    3  A    between atoms: C_7  and  C_8
REMARK    4  A    between atoms: C_8  and  N_9
REMARK    5  A    between atoms: N_9  and  C_10
REMARK    6  A    between atoms: C_10  and  C_11
REMARK    7  A    between atoms: C_12  and  C_13
REMARK    8  A    between atoms: N_15  and  C_16
REMARK    9  A    between atoms: C_16  and  C_17
REMARK   10  A    between atoms: C_17  and  O_18
REMARK   11  A    between atoms: C_19  and  C_20
REMARK                            x       y       z     vdW  Elec       q    Type
REMARK                         _______ _______ _______ _____ _____    ______ ____
ROOT
ATOM      1  C   UNL     1       4.072   3.852  18.548  0.00  0.00    +0.000 C 
ENDROOT
BRANCH   1   2
ATOM      2  C   UNL     1       3.243   4.941  19.151  0.00  0.00    +0.000 A 
ATOM      3  C   UNL     1       2.374   4.873  20.276  0.00  0.00    +0.000 A 
ATOM      4  C   UNL     1       2.055   3.709  21.142  0.00  0.00    +0.000 C 
ATOM      5  N   UNL     1       1.800   6.054  20.536  0.00  0.00    +0.000 NA
ATOM      6  N   UNL     1       2.294   6.883  19.598  0.00  0.00    +0.000 N 
ATOM      7  C   UNL     1       3.205   6.277  18.769  0.00  0.00    +0.000 A 
ATOM      8  C   UNL     1       3.971   6.982  17.709  0.00  0.00    +0.000 C 
BRANCH   6   9
ATOM      9  C   UNL     1       1.783   8.243  19.545  0.00  0.00    +0.000 C 
BRANCH   9  10
ATOM     10  C   UNL     1       1.047   8.645  20.815  0.00  0.00    +0.000 C 
BRANCH  10  11
ATOM     11  O   UNL     1       1.894   8.543  21.959  0.00  0.00    +0.000 OA
ATOM     12  H   UNL     1       2.356   7.688  21.892  0.00  0.00    +0.000 HD
ENDBRANCH  10  11
ENDBRANCH   9  10
ENDBRANCH   6   9
ENDBRANCH   1   2
BRANCH   1  13
ATOM     13  N   UNL     1       4.018   3.862  17.084  0.00  0.00    +0.000 NA
ATOM     14  H   UNL     1       3.138   3.436  16.797  0.00  0.00    +0.000 HD
BRANCH  13  15
ATOM     15  C   UNL     1       5.110   3.117  16.461  0.00  0.00    +0.000 C 
BRANCH  15  22
ATOM     16  C   UNL     1       7.327   5.100  17.766  0.00  0.00    +0.000 C 
ATOM     17  C   UNL     1       6.967   4.956  16.335  0.00  0.00    +0.000 A 
ATOM     18  N   UNL     1       7.590   5.692  15.410  0.00  0.00    +0.000 NA
ATOM     19  O   UNL     1       7.029   5.335  14.204  0.00  0.00    +0.000 OA
ATOM     20  C   UNL     1       6.078   4.381  14.407  0.00  0.00    +0.000 A 
ATOM     21  C   UNL     1       5.403   3.896  13.189  0.00  0.00    +0.000 C 
ATOM     22  C   UNL     1       5.989   4.095  15.757  0.00  0.00    +0.000 A 
ENDBRANCH  15  22
ENDBRANCH  13  15
ENDBRANCH   1  13
TORSDOF 7
ENDMDL
MODEL 6
REMARK VINA RESULT:      -6.1      2.471      3.834
REMARK  Name = 
REMARK  11 active torsions:
REMARK  status: ('A' for Active; 'I' for Inactive)
REMARK    1  A    between atoms: C_1  and  C_2
REMARK    2  A    between atoms: C_5  and  C_6
REMARK    3  A    between atoms: C_7  and  C_8
REMARK    4  A    between atoms: C_8  and  N_9
REMARK    5  A    between atoms: N_9  and  C_10
REMARK    6  A    between atoms: C_10  and  C_11
REMARK    7  A    between atoms: C_12  and  C_13
REMARK    8  A    between atoms: N_15  and  C_16
REMARK    9  A    between atoms: C_16  and  C_17
REMARK   10  A    between atoms: C_17  and  O_18
REMARK   11  A    between atoms: C_19  and  C_20
REMARK                            x       y       z     vdW  Elec       q    Type
REMARK                         _______ _______ _______ _____ _____    ______ ____
ROOT
ATOM      1  C   UNL     1       2.943   4.384  17.760  0.00  0.00    +0.000 C 
ENDROOT
BRANCH   1   2
ATOM      2  C   UNL     1       2.473   5.332  18.817  0.00  0.00    +0.000 A 
ATOM      3  C   UNL     1       1.881   5.032  20.078  0.00  0.00    +0.000 A 
ATOM      4  C   UNL     1       1.569   3.707  20.670  0.00  0.00    +0.000 C 
ATOM      5  N   UNL     1       1.594   6.140  20.771  0.00  0.00    +0.000 NA
ATOM      6  N   UNL     1       2.001   7.149  19.979  0.00  0.00    +0.000 N 
ATOM      7  C   UNL     1       2.582   6.718  18.813  0.00  0.00    +0.000 A 
ATOM      8  C   UNL     1       3.199   7.616  17.803  0.00  0.00    +0.000 C 
BRANCH   6   9
ATOM      9  C   UNL     1       1.735   8.512  20.410  0.00  0.00    +0.000 C 
BRANCH   9  10
ATOM     10  C   UNL     1       0.621   8.595  21.444  0.00  0.00    +0.000 C 
BRANCH  10  11
ATOM     11  O   UNL     1      -0.494   9.334  20.946  0.00  0.00    +0.000 OA
ATOM     12  H   UNL     1      -0.135  10.017  20.351  0.00  0.00    +0.000 HD
ENDBRANCH  10  11
ENDBRANCH   9  10
ENDBRANCH   6   9
ENDBRANCH   1   2
BRANCH   1  13
ATOM     13  N   UNL     1       4.395   4.188  17.801  0.00  0.00    +0.000 NA
ATOM     14  H   UNL     1       4.833   5.097  17.948  0.00  0.00    +0.000 HD
BRANCH  13  15
ATOM     15  C   UNL     1       4.934   3.615  16.570  0.00  0.00    +0.000 C 
BRANCH  15  22
ATOM     16  C   UNL     1       6.169   3.800  13.572  0.00  0.00    +0.000 C 
ATOM     17  C   UNL     1       6.552   4.596  14.763  0.00  0.00    +0.000 A 
ATOM     18  N   UNL     1       7.508   5.525  14.670  0.00  0.00    +0.000 NA
ATOM     19  O   UNL     1       7.631   6.067  15.930  0.00  0.00    +0.000 OA
ATOM     20  C   UNL     1       6.743   5.469  16.773  0.00  0.00    +0.000 A 
ATOM     21  C   UNL     1       6.758   5.968  18.160  0.00  0.00    +0.000 C 
ATOM     22  C   UNL     1       6.020   4.513  16.083  0.00  0.00    +0.000 A 
ENDBRANCH  15  22
ENDBRANCH  13  15
ENDBRANCH   1  13
TORSDOF 7
ENDMDL
MODEL 7
REMARK VINA RESULT:      -6.0      1.954      5.978
REMARK  Name = 
REMARK  11 active torsions:
REMARK  status: ('A' for Active; 'I' for Inactive)
REMARK    1  A    between atoms: C_1  and  C_2
REMARK    2  A    between atoms: C_5  and  C_6
REMARK    3  A    between atoms: C_7  and  C_8
REMARK    4  A    between atoms: C_8  and  N_9
REMARK    5  A    between atoms: N_9  and  C_10
REMARK    6  A    between atoms: C_10  and  C_11
REMARK    7  A    between atoms: C_12  and  C_13
REMARK    8  A    between atoms: N_15  and  C_16
REMARK    9  A    between atoms: C_16  and  C_17
REMARK   10  A    between atoms: C_17  and  O_18
REMARK   11  A    between atoms: C_19  and  C_20
REMARK                            x       y       z     vdW  Elec       q    Type
REMARK                         _______ _______ _______ _____ _____    ______ ____
ROOT
ATOM      1  C   UNL     1       3.730   3.761  16.894  0.00  0.00    +0.000 C 
ENDROOT
BRANCH   1   2
ATOM      2  C   UNL     1       5.099   4.345  17.038  0.00  0.00    +0.000 A 
ATOM      3  C   UNL     1       6.144   4.403  16.071  0.00  0.00    +0.000 A 
ATOM      4  C   UNL     1       6.153   3.896  14.676  0.00  0.00    +0.000 C 
ATOM      5  N   UNL     1       7.235   5.010  16.551  0.00  0.00    +0.000 NA
ATOM      6  N   UNL     1       6.905   5.352  17.810  0.00  0.00    +0.000 N 
ATOM      7  C   UNL     1       5.615   5.019  18.138  0.00  0.00    +0.000 A 
ATOM      8  C   UNL     1       4.964   5.363  19.429  0.00  0.00    +0.000 C 
BRANCH   6   9
ATOM      9  C   UNL     1       7.928   5.954  18.650  0.00  0.00    +0.000 C 
BRANCH   9  10
ATOM     10  C   UNL     1       8.094   7.446  18.397  0.00  0.00    +0.000 C 
BRANCH  10  11
ATOM     11  O   UNL     1       7.711   7.791  17.066  0.00  0.00    +0.000 OA
ATOM     12  H   UNL     1       6.899   8.325  17.137  0.00  0.00    +0.000 HD
ENDBRANCH  10  11
ENDBRANCH   9  10
ENDBRANCH   6   9
ENDBRANCH   1   2
BRANCH   1  13
ATOM     13  N   UNL     1       3.638   2.419  17.475  0.00  0.00    +0.000 NA
ATOM     14  H   UNL     1       3.693   1.742  16.715  0.00  0.00    +0.000 HD
BRANCH  13  15
ATOM     15  C   UNL     1       2.391   2.189  18.202  0.00  0.00    +0.000 C 
BRANCH  15  22
ATOM     16  C   UNL     1       0.560   3.878  20.286  0.00  0.00    +0.000 C 
ATOM     17  C   UNL     1       1.837   3.177  20.561  0.00  0.00    +0.000 A 
ATOM     18  N   UNL     1       2.360   3.191  21.790  0.00  0.00    +0.000 NA
ATOM     19  O   UNL     1       3.531   2.472  21.711  0.00  0.00    +0.000 OA
ATOM     20  C   UNL     1       3.705   2.022  20.437  0.00  0.00    +0.000 A 
ATOM     21  C   UNL     1       4.921   1.219  20.215  0.00  0.00    +0.000 C 
ATOM     22  C   UNL     1       2.650   2.442  19.648  0.00  0.00    +0.000 A 
ENDBRANCH  15  22
ENDBRANCH  13  15
ENDBRANCH   1  13
TORSDOF 7
ENDMDL
MODEL 8
REMARK VINA RESULT:      -6.0      1.889      6.581
REMARK  Name = 
REMARK  11 active torsions:
REMARK  status: ('A' for Active; 'I' for Inactive)
REMARK    1  A    between atoms: C_1  and  C_2
REMARK    2  A    between atoms: C_5  and  C_6
REMARK    3  A    between atoms: C_7  and  C_8
REMARK    4  A    between atoms: C_8  and  N_9
REMARK    5  A    between atoms: N_9  and  C_10
REMARK    6  A    between atoms: C_10  and  C_11
REMARK    7  A    between atoms: C_12  and  C_13
REMARK    8  A    between atoms: N_15  and  C_16
REMARK    9  A    between atoms: C_16  and  C_17
REMARK   10  A    between atoms: C_17  and  O_18
REMARK   11  A    between atoms: C_19  and  C_20
REMARK                            x       y       z     vdW  Elec       q    Type
REMARK                         _______ _______ _______ _____ _____    ______ ____
ROOT
ATOM      1  C   UNL     1       4.444   6.408  18.204  0.00  0.00    +0.000 C 
ENDROOT
BRANCH   1   2
ATOM      2  C   UNL     1       5.492   6.038  17.204  0.00  0.00    +0.000 A 
ATOM      3  C   UNL     1       6.761   6.647  16.981  0.00  0.00    +0.000 A 
ATOM      4  C   UNL     1       7.373   7.808  17.675  0.00  0.00    +0.000 C 
ATOM      5  N   UNL     1       7.441   6.039  16.003  0.00  0.00    +0.000 NA
ATOM      6  N   UNL     1       6.634   5.042  15.598  0.00  0.00    +0.000 N 
ATOM      7  C   UNL     1       5.469   4.965  16.320  0.00  0.00    +0.000 A 
ATOM      8  C   UNL     1       4.443   3.905  16.144  0.00  0.00    +0.000 C 
BRANCH   6   9
ATOM      9  C   UNL     1       7.050   4.240  14.459  0.00  0.00    +0.000 C 
BRANCH   9  10
ATOM     10  C   UNL     1       7.350   5.081  13.226  0.00  0.00    +0.000 C 
BRANCH  10  11
ATOM     11  O   UNL     1       8.574   5.799  13.374  0.00  0.00    +0.000 OA
ATOM     12  H   UNL     1       9.001   5.462  14.183  0.00  0.00    +0.000 HD
ENDBRANCH  10  11
ENDBRANCH   9  10
ENDBRANCH   6   9
ENDBRANCH   1   2
BRANCH   1  13
ATOM     13  N   UNL     1       4.295   5.392  19.249  0.00  0.00    +0.000 NA
ATOM     14  H   UNL     1       4.390   4.475  18.814  0.00  0.00    +0.000 HD
BRANCH  13  15
ATOM     15  C   UNL     1       2.999   5.444  19.923  0.00  0.00    +0.000 C 
BRANCH  15  22
ATOM     16  C   UNL     1       1.243   4.783  17.273  0.00  0.00    +0.000 C 
ATOM     17  C   UNL     1       1.503   3.899  18.434  0.00  0.00    +0.000 A 
ATOM     18  N   UNL     1       0.992   2.664  18.466  0.00  0.00    +0.000 NA
ATOM     19  O   UNL     1       1.401   2.117  19.661  0.00  0.00    +0.000 OA
ATOM     20  C   UNL     1       2.163   3.020  20.339  0.00  0.00    +0.000 A 
ATOM     21  C   UNL     1       2.682   2.554  21.639  0.00  0.00    +0.000 C 
ATOM     22  C   UNL     1       2.265   4.187  19.604  0.00  0.00    +0.000 A 
ENDBRANCH  15  22
ENDBRANCH  13  15
ENDBRANCH   1  13
TORSDOF 7
ENDMDL
MODEL 9
REMARK VINA RESULT:      -5.9      1.259      2.207
REMARK  Name = 
REMARK  11 active torsions:
REMARK  status: ('A' for Active; 'I' for Inactive)
REMARK    1  A    between atoms: C_1  and  C_2
REMARK    2  A    between atoms: C_5  and  C_6
REMARK    3  A    between atoms: C_7  and  C_8
REMARK    4  A    between atoms: C_8  and  N_9
REMARK    5  A    between atoms: N_9  and  C_10
REMARK    6  A    between atoms: C_10  and  C_11
REMARK    7  A    between atoms: C_12  and  C_13
REMARK    8  A    between atoms: N_15  and  C_16
REMARK    9  A    between atoms: C_16  and  C_17
REMARK   10  A    between atoms: C_17  and  O_18
REMARK   11  A    between atoms: C_19  and  C_20
REMARK                            x       y       z     vdW  Elec       q    Type
REMARK                         _______ _______ _______ _____ _____    ______ ____
ROOT
ATOM      1  C   UNL     1       4.216   6.521  17.102  0.00  0.00    +0.000 C 
ENDROOT
BRANCH   1   2
ATOM      2  C   UNL     1       3.510   5.686  18.122  0.00  0.00    +0.000 A 
ATOM      3  C   UNL     1       2.629   6.109  19.159  0.00  0.00    +0.000 A 
ATOM      4  C   UNL     1       2.187   7.483  19.504  0.00  0.00    +0.000 C 
ATOM      5  N   UNL     1       2.175   5.077  19.879  0.00  0.00    +0.000 NA
ATOM      6  N   UNL     1       2.743   3.995  19.316  0.00  0.00    +0.000 N 
ATOM      7  C   UNL     1       3.517   4.300  18.225  0.00  0.00    +0.000 A 
ATOM      8  C   UNL     1       4.183   3.289  17.363  0.00  0.00    +0.000 C 
BRANCH   6   9
ATOM      9  C   UNL     1       2.522   2.700  19.940  0.00  0.00    +0.000 C 
BRANCH   9  10
ATOM     10  C   UNL     1       1.107   2.180  19.731  0.00  0.00    +0.000 C 
BRANCH  10  11
ATOM     11  O   UNL     1       0.852   1.916  18.352  0.00  0.00    +0.000 OA
ATOM     12  H   UNL     1      -0.004   2.331  18.141  0.00  0.00    +0.000 HD
ENDBRANCH  10  11
ENDBRANCH   9  10
ENDBRANCH   6   9
ENDBRANCH   1   2
BRANCH   1  13
ATOM     13  N   UNL     1       5.225   7.395  17.707  0.00  0.00    +0.000 NA
ATOM     14  H   UNL     1       4.845   8.340  17.738  0.00  0.00    +0.000 HD
BRANCH  13  15
ATOM     15  C   UNL     1       6.479   7.432  16.958  0.00  0.00    +0.000 C 
BRANCH  15  22
ATOM     16  C   UNL     1       7.934   5.911  19.431  0.00  0.00    +0.000 C 
ATOM     17  C   UNL     1       7.691   5.394  18.064  0.00  0.00    +0.000 A 
ATOM     18  N   UNL     1       8.084   4.160  17.733  0.00  0.00    +0.000 NA
ATOM     19  O   UNL     1       7.728   3.991  16.414  0.00  0.00    +0.000 OA
ATOM     20  C   UNL     1       7.115   5.119  15.959  0.00  0.00    +0.000 A 
ATOM     21  C   UNL     1       6.666   5.068  14.555  0.00  0.00    +0.000 C 
ATOM     22  C   UNL     1       7.062   6.059  16.971  0.00  0.00    +0.000 A 
ENDBRANCH  15  22
ENDBRANCH  13  15
ENDBRANCH   1  13
TORSDOF 7
ENDMDL
