MODEL 1
REMARK VINA RESULT:      -9.7      0.000      0.000
REMARK  Name = 
REMARK  9 active torsions:
REMARK  status: ('A' for Active; 'I' for Inactive)
REMARK    1  A    between atoms: C_1  and  C_2
REMARK    2  A    between atoms: C_2  and  C_3
REMARK    3  A    between atoms: C_6  and  O_7
REMARK    4  A    between atoms: O_7  and  C_8
REMARK    5  A    between atoms: C_8  and  C_9
REMARK    6  A    between atoms: C_8  and  C_10
REMARK    7  A    between atoms: N_12  and  C_13
REMARK    8  A    between atoms: C_14  and  C_15
REMARK    9  A    between atoms: C_15  and  C_17
REMARK                            x       y       z     vdW  Elec       q    Type
REMARK                         _______ _______ _______ _____ _____    ______ ____
ROOT
ATOM      1  C   UNL     1       3.883   5.521  18.986  0.00  0.00    +0.000 A 
ATOM      2  C   UNL     1       3.138   6.439  19.716  0.00  0.00    +0.000 A 
ATOM      3  O   UNL     1       2.569   5.727  20.755  0.00  0.00    +0.000 OA
ATOM      4  C   UNL     1       2.260   4.540  20.148  0.00  0.00    +0.000 A 
ATOM      5  C   UNL     1       1.301   3.655  20.624  0.00  0.00    +0.000 A 
ATOM      6  C   UNL     1       0.667   2.909  19.634  0.00  0.00    +0.000 A 
ATOM      7  C   UNL     1       1.083   2.992  18.298  0.00  0.00    +0.000 A 
ATOM      8  C   UNL     1       2.237   3.716  17.912  0.00  0.00    +0.000 A 
ATOM      9  C   UNL     1       2.857   4.525  18.880  0.00  0.00    +0.000 A 
ENDROOT
BRANCH   1  12
ATOM     10  C   UNL     1       6.150   5.170  18.278  0.00  0.00    +0.000 C 
ATOM     11  O   UNL     1       6.206   4.045  18.775  0.00  0.00    +0.000 OA
ATOM     12  N   UNL     1       4.982   5.955  18.243  0.00  0.00    +0.000 N 
ATOM     13  H   UNL     1       4.972   6.872  17.811  0.00  0.00    +0.000 HD
BRANCH  10  14
ATOM     14  C   UNL     1       7.393   5.734  17.546  0.00  0.00    +0.000 C 
ATOM     15  C   UNL     1       7.891   6.969  18.309  0.00  0.00    +0.000 C 
BRANCH  14  16
ATOM     16  O   UNL     1       7.132   6.146  16.216  0.00  0.00    +0.000 OA
BRANCH  16  20
ATOM     17  C   UNL     1       6.028   3.644  13.061  0.00  0.00    +0.000 A 
ATOM     18  C   UNL     1       7.141   4.486  13.008  0.00  0.00    +0.000 A 
ATOM     19  C   UNL     1       7.474   5.274  14.107  0.00  0.00    +0.000 A 
ATOM     20  C   UNL     1       6.708   5.254  15.275  0.00  0.00    +0.000 A 
ATOM     21  C   UNL     1       5.640   4.365  15.358  0.00  0.00    +0.000 A 
ATOM     22  C   UNL     1       5.301   3.568  14.255  0.00  0.00    +0.000 A 
BRANCH  17  24
ATOM     23  C   UNL     1       4.244   3.220  11.324  0.00  0.00    +0.000 C 
ATOM     24  C   UNL     1       5.619   2.842  11.852  0.00  0.00    +0.000 C 
ENDBRANCH  17  24
ENDBRANCH  16  20
ENDBRANCH  14  16
ENDBRANCH  10  14
ENDBRANCH   1  12
BRANCH   2  25
ATOM     25  C   UNL     1       2.340   7.447  19.004  0.00  0.00    +0.000 C 
ATOM     26  O   UNL     1       2.132   7.399  17.781  0.00  0.00    +0.000 OA
BRANCH  25  27
ATOM     27  C   UNL     1       1.520   8.397  19.771  0.00  0.00    +0.000 A 
ATOM     28  C   UNL     1       1.196   8.110  21.104  0.00  0.00    +0.000 A 
ATOM     29  C   UNL     1       0.416   9.012  21.830  0.00  0.00    +0.000 A 
ATOM     30  C   UNL     1      -0.044  10.175  21.209  0.00  0.00    +0.000 A 
ATOM     31  C   UNL     1       0.296  10.457  19.887  0.00  0.00    +0.000 A 
ATOM     32  C   UNL     1       1.078   9.563  19.155  0.00  0.00    +0.000 A 
ENDBRANCH  25  27
ENDBRANCH   2  25
TORSDOF 7
ENDMDL
MODEL 2
REMARK VINA RESULT:      -9.7      2.222      7.542
REMARK  Name = 
REMARK  9 active torsions:
REMARK  status: ('A' for Active; 'I' for Inactive)
REMARK    1  A    between atoms: C_1  and  C_2
REMARK    2  A    between atoms: C_2  and  C_3
REMARK    3  A    between atoms: C_6  and  O_7
REMARK    4  A    between atoms: O_7  and  C_8
REMARK    5  A    between atoms: C_8  and  C_9
REMARK    6  A    between atoms: C_8  and  C_10
REMARK    7  A    between atoms: N_12  and  C_13
REMARK    8  A    between atoms: C_14  and  C_15
REMARK    9  A    between atoms: C_15  and  C_17
REMARK                            x       y       z     vdW  Elec       q    Type
REMARK                         _______ _______ _______ _____ _____    ______ ____
ROOT
ATOM      1  C   UNL     1       1.983   6.203  19.929  0.00  0.00    +0.000 A 
ATOM      2  C   UNL     1       2.580   5.970  18.696  0.00  0.00    +0.000 A 
ATOM      3  O   UNL     1       1.785   5.034  18.060  0.00  0.00    +0.000 OA
ATOM      4  C   UNL     1       1.427   4.217  19.098  0.00  0.00    +0.000 A 
ATOM      5  C   UNL     1       0.998   2.906  18.936  0.00  0.00    +0.000 A 
ATOM      6  C   UNL     1       1.306   2.066  20.003  0.00  0.00    +0.000 A 
ATOM      7  C   UNL     1       1.892   2.576  21.170  0.00  0.00    +0.000 A 
ATOM      8  C   UNL     1       2.068   3.965  21.379  0.00  0.00    +0.000 A 
ATOM      9  C   UNL     1       1.822   4.826  20.296  0.00  0.00    +0.000 A 
ENDROOT
BRANCH   1  12
ATOM     10  C   UNL     1       1.061   8.030  21.183  0.00  0.00    +0.000 C 
ATOM     11  O   UNL     1      -0.024   7.468  21.341  0.00  0.00    +0.000 OA
ATOM     12  N   UNL     1       2.175   7.428  20.571  0.00  0.00    +0.000 N 
ATOM     13  H   UNL     1       3.056   7.919  20.473  0.00  0.00    +0.000 HD
BRANCH  10  14
ATOM     14  C   UNL     1       1.270   9.443  21.782  0.00  0.00    +0.000 C 
ATOM     15  C   UNL     1       0.131   9.729  22.771  0.00  0.00    +0.000 C 
BRANCH  14  16
ATOM     16  O   UNL     1       1.249  10.479  20.816  0.00  0.00    +0.000 OA
BRANCH  16  20
ATOM     17  C   UNL     1      -1.856  10.615  18.028  0.00  0.00    +0.000 A 
ATOM     18  C   UNL     1      -1.878  11.337  19.223  0.00  0.00    +0.000 A 
ATOM     19  C   UNL     1      -0.795  11.273  20.098  0.00  0.00    +0.000 A 
ATOM     20  C   UNL     1       0.324  10.486  19.814  0.00  0.00    +0.000 A 
ATOM     21  C   UNL     1       0.380   9.821  18.592  0.00  0.00    +0.000 A 
ATOM     22  C   UNL     1      -0.706   9.883  17.707  0.00  0.00    +0.000 A 
BRANCH  17  24
ATOM     23  C   UNL     1      -2.695  10.304  15.666  0.00  0.00    +0.000 C 
ATOM     24  C   UNL     1      -3.051  10.621  17.110  0.00  0.00    +0.000 C 
ENDBRANCH  17  24
ENDBRANCH  16  20
ENDBRANCH  14  16
ENDBRANCH  10  14
ENDBRANCH   1  12
BRANCH   2  25
ATOM     25  C   UNL     1       4.042   5.856  18.613  0.00  0.00    +0.000 C 
ATOM     26  O   UNL     1       4.774   5.860  19.616  0.00  0.00    +0.000 OA
BRANCH  25  27
ATOM     27  C   UNL     1       4.668   5.447  17.347  0.00  0.00    +0.000 A 
ATOM     28  C   UNL     1       4.907   6.406  16.353  0.00  0.00    +0.000 A 
ATOM     29  C   UNL     1       5.500   6.015  15.151  0.00  0.00    +0.000 A 
ATOM     30  C   UNL     1       5.825   4.671  14.952  0.00  0.00    +0.000 A 
ATOM     31  C   UNL     1       5.593   3.729  15.952  0.00  0.00    +0.000 A 
ATOM     32  C   UNL     1       5.006   4.110  17.158  0.00  0.00    +0.000 A 
ENDBRANCH  25  27
ENDBRANCH   2  25
TORSDOF 7
ENDMDL
MODEL 3
REMARK VINA RESULT:      -9.5      0.205      1.234
REMARK  Name = 
REMARK  9 active torsions:
REMARK  status: ('A' for Active; 'I' for Inactive)
REMARK    1  A    between atoms: C_1  and  C_2
REMARK    2  A    between atoms: C_2  and  C_3
REMARK    3  A    between atoms: C_6  and  O_7
REMARK    4  A    between atoms: O_7  and  C_8
REMARK    5  A    between atoms: C_8  and  C_9
REMARK    6  A    between atoms: C_8  and  C_10
REMARK    7  A    between atoms: N_12  and  C_13
REMARK    8  A    between atoms: C_14  and  C_15
REMARK    9  A    between atoms: C_15  and  C_17
REMARK                            x       y       z     vdW  Elec       q    Type
REMARK                         _______ _______ _______ _____ _____    ______ ____
ROOT
ATOM      1  C   UNL     1       3.815   5.467  19.061  0.00  0.00    +0.000 A 
ATOM      2  C   UNL     1       3.074   6.381  19.799  0.00  0.00    +0.000 A 
ATOM      3  O   UNL     1       2.515   5.664  20.840  0.00  0.00    +0.000 OA
ATOM      4  C   UNL     1       2.203   4.479  20.232  0.00  0.00    +0.000 A 
ATOM      5  C   UNL     1       1.250   3.591  20.712  0.00  0.00    +0.000 A 
ATOM      6  C   UNL     1       0.610   2.847  19.725  0.00  0.00    +0.000 A 
ATOM      7  C   UNL     1       1.015   2.935  18.386  0.00  0.00    +0.000 A 
ATOM      8  C   UNL     1       2.164   3.663  17.993  0.00  0.00    +0.000 A 
ATOM      9  C   UNL     1       2.790   4.469  18.959  0.00  0.00    +0.000 A 
ENDROOT
BRANCH   1  12
ATOM     10  C   UNL     1       6.037   5.069  18.243  0.00  0.00    +0.000 C 
ATOM     11  O   UNL     1       6.057   3.908  18.653  0.00  0.00    +0.000 OA
ATOM     12  N   UNL     1       4.908   5.906  18.310  0.00  0.00    +0.000 N 
ATOM     13  H   UNL     1       4.927   6.852  17.947  0.00  0.00    +0.000 HD
BRANCH  10  14
ATOM     14  C   UNL     1       7.279   5.629  17.508  0.00  0.00    +0.000 C 
ATOM     15  C   UNL     1       7.933   6.697  18.397  0.00  0.00    +0.000 C 
BRANCH  14  16
ATOM     16  O   UNL     1       6.977   6.249  16.270  0.00  0.00    +0.000 OA
BRANCH  16  20
ATOM     17  C   UNL     1       5.997   3.779  13.050  0.00  0.00    +0.000 A 
ATOM     18  C   UNL     1       5.114   4.044  14.100  0.00  0.00    +0.000 A 
ATOM     19  C   UNL     1       5.490   4.903  15.130  0.00  0.00    +0.000 A 
ATOM     20  C   UNL     1       6.750   5.507  15.150  0.00  0.00    +0.000 A 
ATOM     21  C   UNL     1       7.606   5.302  14.071  0.00  0.00    +0.000 A 
ATOM     22  C   UNL     1       7.231   4.439  13.030  0.00  0.00    +0.000 A 
BRANCH  17  24
ATOM     23  C   UNL     1       4.304   3.124  11.295  0.00  0.00    +0.000 C 
ATOM     24  C   UNL     1       5.626   2.796  11.970  0.00  0.00    +0.000 C 
ENDBRANCH  17  24
ENDBRANCH  16  20
ENDBRANCH  14  16
ENDBRANCH  10  14
ENDBRANCH   1  12
BRANCH   2  25
ATOM     25  C   UNL     1       2.268   7.390  19.097  0.00  0.00    +0.000 C 
ATOM     26  O   UNL     1       2.033   7.334  17.879  0.00  0.00    +0.000 OA
BRANCH  25  27
ATOM     27  C   UNL     1       1.473   8.352  19.874  0.00  0.00    +0.000 A 
ATOM     28  C   UNL     1       1.039   9.539  19.266  0.00  0.00    +0.000 A 
ATOM     29  C   UNL     1       0.286  10.452  20.006  0.00  0.00    +0.000 A 
ATOM     30  C   UNL     1      -0.004  10.177  21.345  0.00  0.00    +0.000 A 
ATOM     31  C   UNL     1       0.421   8.988  21.934  0.00  0.00    +0.000 A 
ATOM     32  C   UNL     1       1.171   8.068  21.202  0.00  0.00    +0.000 A 
ENDBRANCH  25  27
ENDBRANCH   2  25
TORSDOF 7
ENDMDL
MODEL 4
REMARK VINA RESULT:      -9.3      0.543      1.080
REMARK  Name = 
REMARK  9 active torsions:
REMARK  status: ('A' for Active; 'I' for Inactive)
REMARK    1  A    between atoms: C_1  and  C_2
REMARK    2  A    between atoms: C_2  and  C_3
REMARK    3  A    between atoms: C_6  and  O_7
REMARK    4  A    between atoms: O_7  and  C_8
REMARK    5  A    between atoms: C_8  and  C_9
REMARK    6  A    between atoms: C_8  and  C_10
REMARK    7  A    between atoms: N_12  and  C_13
REMARK    8  A    between atoms: C_14  and  C_15
REMARK    9  A    between atoms: C_15  and  C_17
REMARK                            x       y       z     vdW  Elec       q    Type
REMARK                         _______ _______ _______ _____ _____    ______ ____
ROOT
ATOM      1  C   UNL     1       3.770   5.627  18.922  0.00  0.00    +0.000 A 
ATOM      2  C   UNL     1       2.944   6.599  19.473  0.00  0.00    +0.000 A 
ATOM      3  O   UNL     1       2.349   6.012  20.574  0.00  0.00    +0.000 OA
ATOM      4  C   UNL     1       2.128   4.737  20.130  0.00  0.00    +0.000 A 
ATOM      5  C   UNL     1       1.185   3.879  20.680  0.00  0.00    +0.000 A 
ATOM      6  C   UNL     1       0.642   2.968  19.778  0.00  0.00    +0.000 A 
ATOM      7  C   UNL     1       1.129   2.883  18.466  0.00  0.00    +0.000 A 
ATOM      8  C   UNL     1       2.270   3.604  18.038  0.00  0.00    +0.000 A 
ATOM      9  C   UNL     1       2.797   4.573  18.909  0.00  0.00    +0.000 A 
ENDROOT
BRANCH   1  12
ATOM     10  C   UNL     1       6.021   5.174  18.223  0.00  0.00    +0.000 C 
ATOM     11  O   UNL     1       6.027   4.051  18.728  0.00  0.00    +0.000 OA
ATOM     12  N   UNL     1       4.889   6.008  18.179  0.00  0.00    +0.000 N 
ATOM     13  H   UNL     1       4.920   6.922  17.741  0.00  0.00    +0.000 HD
BRANCH  10  14
ATOM     14  C   UNL     1       7.290   5.679  17.492  0.00  0.00    +0.000 C 
ATOM     15  C   UNL     1       7.976   6.732  18.374  0.00  0.00    +0.000 C 
BRANCH  14  16
ATOM     16  O   UNL     1       7.020   6.295  16.245  0.00  0.00    +0.000 OA
BRANCH  16  20
ATOM     17  C   UNL     1       6.049   3.812  13.032  0.00  0.00    +0.000 A 
ATOM     18  C   UNL     1       5.163   4.081  14.079  0.00  0.00    +0.000 A 
ATOM     19  C   UNL     1       5.537   4.944  15.106  0.00  0.00    +0.000 A 
ATOM     20  C   UNL     1       6.796   5.548  15.127  0.00  0.00    +0.000 A 
ATOM     21  C   UNL     1       7.655   5.339  14.050  0.00  0.00    +0.000 A 
ATOM     22  C   UNL     1       7.283   4.473  13.012  0.00  0.00    +0.000 A 
BRANCH  17  24
ATOM     23  C   UNL     1       4.324   3.103  11.330  0.00  0.00    +0.000 C 
ATOM     24  C   UNL     1       5.681   2.825  11.954  0.00  0.00    +0.000 C 
ENDBRANCH  17  24
ENDBRANCH  16  20
ENDBRANCH  14  16
ENDBRANCH  10  14
ENDBRANCH   1  12
BRANCH   2  25
ATOM     25  C   UNL     1       2.143   7.452  18.584  0.00  0.00    +0.000 C 
ATOM     26  O   UNL     1       1.647   7.040  17.524  0.00  0.00    +0.000 OA
BRANCH  25  27
ATOM     27  C   UNL     1       1.665   8.756  19.068  0.00  0.00    +0.000 A 
ATOM     28  C   UNL     1       1.104   8.854  20.349  0.00  0.00    +0.000 A 
ATOM     29  C   UNL     1       0.649  10.091  20.806  0.00  0.00    +0.000 A 
ATOM     30  C   UNL     1       0.741  11.207  19.970  0.00  0.00    +0.000 A 
ATOM     31  C   UNL     1       1.312  11.100  18.704  0.00  0.00    +0.000 A 
ATOM     32  C   UNL     1       1.773   9.869  18.240  0.00  0.00    +0.000 A 
ENDBRANCH  25  27
ENDBRANCH   2  25
TORSDOF 7
ENDMDL
MODEL 5
REMARK VINA RESULT:      -9.2      2.241      7.867
REMARK  Name = 
REMARK  9 active torsions:
REMARK  status: ('A' for Active; 'I' for Inactive)
REMARK    1  A    between atoms: C_1  and  C_2
REMARK    2  A    between atoms: C_2  and  C_3
REMARK    3  A    between atoms: C_6  and  O_7
REMARK    4  A    between atoms: O_7  and  C_8
REMARK    5  A    between atoms: C_8  and  C_9
REMARK    6  A    between atoms: C_8  and  C_10
REMARK    7  A    between atoms: N_12  and  C_13
REMARK    8  A    between atoms: C_14  and  C_15
REMARK    9  A    between atoms: C_15  and  C_17
REMARK                            x       y       z     vdW  Elec       q    Type
REMARK                         _______ _______ _______ _____ _____    ______ ____
ROOT
ATOM      1  C   UNL     1       2.001   6.193  19.866  0.00  0.00    +0.000 A 
ATOM      2  C   UNL     1       2.607   5.955  18.638  0.00  0.00    +0.000 A 
ATOM      3  O   UNL     1       1.819   5.016  18.001  0.00  0.00    +0.000 OA
ATOM      4  C   UNL     1       1.454   4.203  19.039  0.00  0.00    +0.000 A 
ATOM      5  C   UNL     1       1.028   2.891  18.880  0.00  0.00    +0.000 A 
ATOM      6  C   UNL     1       1.329   2.056  19.952  0.00  0.00    +0.000 A 
ATOM      7  C   UNL     1       1.906   2.571  21.121  0.00  0.00    +0.000 A 
ATOM      8  C   UNL     1       2.079   3.961  21.325  0.00  0.00    +0.000 A 
ATOM      9  C   UNL     1       1.840   4.818  20.238  0.00  0.00    +0.000 A 
ENDROOT
BRANCH   1  12
ATOM     10  C   UNL     1       1.094   7.974  21.195  0.00  0.00    +0.000 C 
ATOM     11  O   UNL     1       0.046   7.368  21.419  0.00  0.00    +0.000 OA
ATOM     12  N   UNL     1       2.188   7.421  20.504  0.00  0.00    +0.000 N 
ATOM     13  H   UNL     1       3.040   7.948  20.352  0.00  0.00    +0.000 HD
BRANCH  10  14
ATOM     14  C   UNL     1       1.287   9.391  21.790  0.00  0.00    +0.000 C 
ATOM     15  C   UNL     1       0.150   9.662  22.785  0.00  0.00    +0.000 C 
BRANCH  14  16
ATOM     16  O   UNL     1       1.246  10.425  20.822  0.00  0.00    +0.000 OA
BRANCH  16  20
ATOM     17  C   UNL     1      -2.193  11.347  18.642  0.00  0.00    +0.000 A 
ATOM     18  C   UNL     1      -1.309  10.330  18.271  0.00  0.00    +0.000 A 
ATOM     19  C   UNL     1      -0.195  10.052  19.060  0.00  0.00    +0.000 A 
ATOM     20  C   UNL     1       0.074  10.778  20.222  0.00  0.00    +0.000 A 
ATOM     21  C   UNL     1      -0.841  11.744  20.633  0.00  0.00    +0.000 A 
ATOM     22  C   UNL     1      -1.965  12.028  19.844  0.00  0.00    +0.000 A 
BRANCH  17  24
ATOM     23  C   UNL     1      -4.382  10.584  17.641  0.00  0.00    +0.000 C 
ATOM     24  C   UNL     1      -3.361  11.703  17.759  0.00  0.00    +0.000 C 
ENDBRANCH  17  24
ENDBRANCH  16  20
ENDBRANCH  14  16
ENDBRANCH  10  14
ENDBRANCH   1  12
BRANCH   2  25
ATOM     25  C   UNL     1       4.071   5.843  18.567  0.00  0.00    +0.000 C 
ATOM     26  O   UNL     1       4.797   5.868  19.573  0.00  0.00    +0.000 OA
BRANCH  25  27
ATOM     27  C   UNL     1       4.705   5.411  17.313  0.00  0.00    +0.000 A 
ATOM     28  C   UNL     1       5.079   4.069  17.155  0.00  0.00    +0.000 A 
ATOM     29  C   UNL     1       5.682   3.660  15.965  0.00  0.00    +0.000 A 
ATOM     30  C   UNL     1       5.921   4.599  14.959  0.00  0.00    +0.000 A 
ATOM     31  C   UNL     1       5.532   5.928  15.121  0.00  0.00    +0.000 A 
ATOM     32  C   UNL     1       4.925   6.345  16.305  0.00  0.00    +0.000 A 
ENDBRANCH  25  27
ENDBRANCH   2  25
TORSDOF 7
ENDMDL
MODEL 6
REMARK VINA RESULT:      -9.1      2.600      7.752
REMARK  Name = 
REMARK  9 active torsions:
REMARK  status: ('A' for Active; 'I' for Inactive)
REMARK    1  A    between atoms: C_1  and  C_2
REMARK    2  A    between atoms: C_2  and  C_3
REMARK    3  A    between atoms: C_6  and  O_7
REMARK    4  A    between atoms: O_7  and  C_8
REMARK    5  A    between atoms: C_8  and  C_9
REMARK    6  A    between atoms: C_8  and  C_10
REMARK    7  A    between atoms: N_12  and  C_13
REMARK    8  A    between atoms: C_14  and  C_15
REMARK    9  A    between atoms: C_15  and  C_17
REMARK                            x       y       z     vdW  Elec       q    Type
REMARK                         _______ _______ _______ _____ _____    ______ ____
ROOT
ATOM      1  C   UNL     1       1.961   6.213  19.851  0.00  0.00    +0.000 A 
ATOM      2  C   UNL     1       2.565   5.938  18.631  0.00  0.00    +0.000 A 
ATOM      3  O   UNL     1       1.797   4.952  18.039  0.00  0.00    +0.000 OA
ATOM      4  C   UNL     1       1.459   4.175  19.114  0.00  0.00    +0.000 A 
ATOM      5  C   UNL     1       1.066   2.847  19.014  0.00  0.00    +0.000 A 
ATOM      6  C   UNL     1       1.395   2.067  20.119  0.00  0.00    +0.000 A 
ATOM      7  C   UNL     1       1.965   2.646  21.261  0.00  0.00    +0.000 A 
ATOM      8  C   UNL     1       2.104   4.048  21.404  0.00  0.00    +0.000 A 
ATOM      9  C   UNL     1       1.837   4.851  20.283  0.00  0.00    +0.000 A 
ENDROOT
BRANCH   1  12
ATOM     10  C   UNL     1       0.986   8.076  21.009  0.00  0.00    +0.000 C 
ATOM     11  O   UNL     1      -0.086   7.497  21.185  0.00  0.00    +0.000 OA
ATOM     12  N   UNL     1       2.120   7.471  20.435  0.00  0.00    +0.000 N 
ATOM     13  H   UNL     1       2.990   7.977  20.321  0.00  0.00    +0.000 HD
BRANCH  10  14
ATOM     14  C   UNL     1       1.159   9.520  21.541  0.00  0.00    +0.000 C 
ATOM     15  C   UNL     1       0.553   9.598  22.949  0.00  0.00    +0.000 C 
BRANCH  14  16
ATOM     16  O   UNL     1       0.503  10.498  20.753  0.00  0.00    +0.000 OA
BRANCH  16  20
ATOM     17  C   UNL     1       2.544  13.538  18.746  0.00  0.00    +0.000 A 
ATOM     18  C   UNL     1       2.155  13.640  20.084  0.00  0.00    +0.000 A 
ATOM     19  C   UNL     1       1.504  12.576  20.705  0.00  0.00    +0.000 A 
ATOM     20  C   UNL     1       1.213  11.398  20.015  0.00  0.00    +0.000 A 
ATOM     21  C   UNL     1       1.661  11.264  18.703  0.00  0.00    +0.000 A 
ATOM     22  C   UNL     1       2.319  12.331  18.073  0.00  0.00    +0.000 A 
BRANCH  17  24
ATOM     23  C   UNL     1       4.703  14.647  18.051  0.00  0.00    +0.000 C 
ATOM     24  C   UNL     1       3.184  14.708  18.045  0.00  0.00    +0.000 C 
ENDBRANCH  17  24
ENDBRANCH  16  20
ENDBRANCH  14  16
ENDBRANCH  10  14
ENDBRANCH   1  12
BRANCH   2  25
ATOM     25  C   UNL     1       4.031   5.859  18.554  0.00  0.00    +0.000 C 
ATOM     26  O   UNL     1       4.759   5.889  19.558  0.00  0.00    +0.000 OA
BRANCH  25  27
ATOM     27  C   UNL     1       4.670   5.455  17.293  0.00  0.00    +0.000 A 
ATOM     28  C   UNL     1       4.938   6.422  16.313  0.00  0.00    +0.000 A 
ATOM     29  C   UNL     1       5.543   6.037  15.116  0.00  0.00    +0.000 A 
ATOM     30  C   UNL     1       5.854   4.691  14.907  0.00  0.00    +0.000 A 
ATOM     31  C   UNL     1       5.595   3.741  15.893  0.00  0.00    +0.000 A 
ATOM     32  C   UNL     1       4.994   4.117  17.094  0.00  0.00    +0.000 A 
ENDBRANCH  25  27
ENDBRANCH   2  25
TORSDOF 7
ENDMDL
MODEL 7
REMARK VINA RESULT:      -9.0      1.758      8.150
REMARK  Name = 
REMARK  9 active torsions:
REMARK  status: ('A' for Active; 'I' for Inactive)
REMARK    1  A    between atoms: C_1  and  C_2
REMARK    2  A    between atoms: C_2  and  C_3
REMARK    3  A    between atoms: C_6  and  O_7
REMARK    4  A    between atoms: O_7  and  C_8
REMARK    5  A    between atoms: C_8  and  C_9
REMARK    6  A    between atoms: C_8  and  C_10
REMARK    7  A    between atoms: N_12  and  C_13
REMARK    8  A    between atoms: C_14  and  C_15
REMARK    9  A    between atoms: C_15  and  C_17
REMARK                            x       y       z     vdW  Elec       q    Type
REMARK                         _______ _______ _______ _____ _____    ______ ____
ROOT
ATOM      1  C   UNL     1       4.539   5.534  18.628  0.00  0.00    +0.000 A 
ATOM      2  C   UNL     1       5.207   4.580  19.385  0.00  0.00    +0.000 A 
ATOM      3  O   UNL     1       6.530   4.636  18.987  0.00  0.00    +0.000 OA
ATOM      4  C   UNL     1       6.410   4.848  17.640  0.00  0.00    +0.000 A 
ATOM      5  C   UNL     1       7.408   4.555  16.721  0.00  0.00    +0.000 A 
ATOM      6  C   UNL     1       6.940   4.205  15.458  0.00  0.00    +0.000 A 
ATOM      7  C   UNL     1       5.572   4.275  15.156  0.00  0.00    +0.000 A 
ATOM      8  C   UNL     1       4.631   4.829  16.056  0.00  0.00    +0.000 A 
ATOM      9  C   UNL     1       5.068   5.133  17.356  0.00  0.00    +0.000 A 
ENDROOT
BRANCH   1  12
ATOM     10  C   UNL     1       2.940   7.323  18.534  0.00  0.00    +0.000 C 
ATOM     11  O   UNL     1       3.422   7.794  17.503  0.00  0.00    +0.000 OA
ATOM     12  N   UNL     1       3.373   6.120  19.123  0.00  0.00    +0.000 N 
ATOM     13  H   UNL     1       2.941   5.757  19.965  0.00  0.00    +0.000 HD
BRANCH  10  14
ATOM     14  C   UNL     1       1.716   8.017  19.179  0.00  0.00    +0.000 C 
ATOM     15  C   UNL     1       1.393   9.285  18.375  0.00  0.00    +0.000 C 
BRANCH  14  16
ATOM     16  O   UNL     1       1.931   8.420  20.520  0.00  0.00    +0.000 OA
BRANCH  16  20
ATOM     17  C   UNL     1      -0.826  10.861  22.487  0.00  0.00    +0.000 A 
ATOM     18  C   UNL     1      -0.638   9.515  22.810  0.00  0.00    +0.000 A 
ATOM     19  C   UNL     1       0.321   8.762  22.137  0.00  0.00    +0.000 A 
ATOM     20  C   UNL     1       1.104   9.320  21.124  0.00  0.00    +0.000 A 
ATOM     21  C   UNL     1       0.970  10.679  20.847  0.00  0.00    +0.000 A 
ATOM     22  C   UNL     1       0.007  11.442  21.523  0.00  0.00    +0.000 A 
BRANCH  17  24
ATOM     23  C   UNL     1      -1.630  13.159  23.159  0.00  0.00    +0.000 C 
ATOM     24  C   UNL     1      -1.909  11.665  23.160  0.00  0.00    +0.000 C 
ENDBRANCH  17  24
ENDBRANCH  16  20
ENDBRANCH  14  16
ENDBRANCH  10  14
ENDBRANCH   1  12
BRANCH   2  25
ATOM     25  C   UNL     1       4.574   3.275  19.619  0.00  0.00    +0.000 C 
ATOM     26  O   UNL     1       5.203   2.287  20.032  0.00  0.00    +0.000 OA
BRANCH  25  27
ATOM     27  C   UNL     1       3.107   3.173  19.641  0.00  0.00    +0.000 A 
ATOM     28  C   UNL     1       2.411   3.474  20.820  0.00  0.00    +0.000 A 
ATOM     29  C   UNL     1       1.019   3.375  20.840  0.00  0.00    +0.000 A 
ATOM     30  C   UNL     1       0.345   2.959  19.689  0.00  0.00    +0.000 A 
ATOM     31  C   UNL     1       1.046   2.675  18.519  0.00  0.00    +0.000 A 
ATOM     32  C   UNL     1       2.437   2.775  18.488  0.00  0.00    +0.000 A 
ENDBRANCH  25  27
ENDBRANCH   2  25
TORSDOF 7
ENDMDL
MODEL 8
REMARK VINA RESULT:      -9.0      0.839      1.580
REMARK  Name = 
REMARK  9 active torsions:
REMARK  status: ('A' for Active; 'I' for Inactive)
REMARK    1  A    between atoms: C_1  and  C_2
REMARK    2  A    between atoms: C_2  and  C_3
REMARK    3  A    between atoms: C_6  and  O_7
REMARK    4  A    between atoms: O_7  and  C_8
REMARK    5  A    between atoms: C_8  and  C_9
REMARK    6  A    between atoms: C_8  and  C_10
REMARK    7  A    between atoms: N_12  and  C_13
REMARK    8  A    between atoms: C_14  and  C_15
REMARK    9  A    between atoms: C_15  and  C_17
REMARK                            x       y       z     vdW  Elec       q    Type
REMARK                         _______ _______ _______ _____ _____    ______ ____
ROOT
ATOM      1  C   UNL     1       3.720   5.626  18.999  0.00  0.00    +0.000 A 
ATOM      2  C   UNL     1       2.860   6.625  19.438  0.00  0.00    +0.000 A 
ATOM      3  O   UNL     1       2.171   6.088  20.510  0.00  0.00    +0.000 OA
ATOM      4  C   UNL     1       1.976   4.797  20.103  0.00  0.00    +0.000 A 
ATOM      5  C   UNL     1       0.983   3.968  20.608  0.00  0.00    +0.000 A 
ATOM      6  C   UNL     1       0.509   3.023  19.703  0.00  0.00    +0.000 A 
ATOM      7  C   UNL     1       1.102   2.879  18.441  0.00  0.00    +0.000 A 
ATOM      8  C   UNL     1       2.281   3.575  18.080  0.00  0.00    +0.000 A 
ATOM      9  C   UNL     1       2.742   4.578  18.950  0.00  0.00    +0.000 A 
ENDROOT
BRANCH   1  12
ATOM     10  C   UNL     1       6.055   5.217  18.621  0.00  0.00    +0.000 C 
ATOM     11  O   UNL     1       6.052   4.174  19.276  0.00  0.00    +0.000 OA
ATOM     12  N   UNL     1       4.900   5.970  18.337  0.00  0.00    +0.000 N 
ATOM     13  H   UNL     1       4.942   6.816  17.782  0.00  0.00    +0.000 HD
BRANCH  10  14
ATOM     14  C   UNL     1       7.377   5.693  17.969  0.00  0.00    +0.000 C 
ATOM     15  C   UNL     1       7.121   7.035  17.269  0.00  0.00    +0.000 C 
BRANCH  14  16
ATOM     16  O   UNL     1       7.880   4.803  16.988  0.00  0.00    +0.000 OA
BRANCH  16  20
ATOM     17  C   UNL     1       5.746   3.961  13.499  0.00  0.00    +0.000 A 
ATOM     18  C   UNL     1       5.357   3.495  14.758  0.00  0.00    +0.000 A 
ATOM     19  C   UNL     1       6.096   3.838  15.888  0.00  0.00    +0.000 A 
ATOM     20  C   UNL     1       7.238   4.637  15.797  0.00  0.00    +0.000 A 
ATOM     21  C   UNL     1       7.588   5.161  14.555  0.00  0.00    +0.000 A 
ATOM     22  C   UNL     1       6.848   4.821  13.414  0.00  0.00    +0.000 A 
BRANCH  17  24
ATOM     23  C   UNL     1       5.644   2.365  11.545  0.00  0.00    +0.000 C 
ATOM     24  C   UNL     1       4.996   3.538  12.263  0.00  0.00    +0.000 C 
ENDBRANCH  17  24
ENDBRANCH  16  20
ENDBRANCH  14  16
ENDBRANCH  10  14
ENDBRANCH   1  12
BRANCH   2  25
ATOM     25  C   UNL     1       2.143   7.444  18.451  0.00  0.00    +0.000 C 
ATOM     26  O   UNL     1       1.640   6.968  17.421  0.00  0.00    +0.000 OA
BRANCH  25  27
ATOM     27  C   UNL     1       1.753   8.819  18.796  0.00  0.00    +0.000 A 
ATOM     28  C   UNL     1       2.171   9.880  17.981  0.00  0.00    +0.000 A 
ATOM     29  C   UNL     1       1.800  11.185  18.311  0.00  0.00    +0.000 A 
ATOM     30  C   UNL     1       1.037  11.412  19.459  0.00  0.00    +0.000 A 
ATOM     31  C   UNL     1       0.617  10.348  20.254  0.00  0.00    +0.000 A 
ATOM     32  C   UNL     1       0.978   9.040  19.930  0.00  0.00    +0.000 A 
ENDBRANCH  25  27
ENDBRANCH   2  25
TORSDOF 7
ENDMDL
MODEL 9
REMARK VINA RESULT:      -8.8      2.323      8.495
REMARK  Name = 
REMARK  9 active torsions:
REMARK  status: ('A' for Active; 'I' for Inactive)
REMARK    1  A    between atoms: C_1  and  C_2
REMARK    2  A    between atoms: C_2  and  C_3
REMARK    3  A    between atoms: C_6  and  O_7
REMARK    4  A    between atoms: O_7  and  C_8
REMARK    5  A    between atoms: C_8  and  C_9
REMARK    6  A    between atoms: C_8  and  C_10
REMARK    7  A    between atoms: N_12  and  C_13
REMARK    8  A    between atoms: C_14  and  C_15
REMARK    9  A    between atoms: C_15  and  C_17
REMARK                            x       y       z     vdW  Elec       q    Type
REMARK                         _______ _______ _______ _____ _____    ______ ____
ROOT
ATOM      1  C   UNL     1       1.987   6.155  19.956  0.00  0.00    +0.000 A 
ATOM      2  C   UNL     1       2.592   6.011  18.714  0.00  0.00    +0.000 A 
ATOM      3  O   UNL     1       1.780   5.154  17.994  0.00  0.00    +0.000 OA
ATOM      4  C   UNL     1       1.389   4.262  18.955  0.00  0.00    +0.000 A 
ATOM      5  C   UNL     1       0.928   2.982  18.679  0.00  0.00    +0.000 A 
ATOM      6  C   UNL     1       1.202   2.047  19.673  0.00  0.00    +0.000 A 
ATOM      7  C   UNL     1       1.787   2.439  20.884  0.00  0.00    +0.000 A 
ATOM      8  C   UNL     1       1.997   3.801  21.212  0.00  0.00    +0.000 A 
ATOM      9  C   UNL     1       1.787   4.757  20.204  0.00  0.00    +0.000 A 
ENDROOT
BRANCH   1  12
ATOM     10  C   UNL     1       1.081   7.970  21.240  0.00  0.00    +0.000 C 
ATOM     11  O   UNL     1      -0.054   7.493  21.245  0.00  0.00    +0.000 OA
ATOM     12  N   UNL     1       2.205   7.316  20.702  0.00  0.00    +0.000 N 
ATOM     13  H   UNL     1       3.126   7.735  20.730  0.00  0.00    +0.000 HD
BRANCH  10  14
ATOM     14  C   UNL     1       1.335   9.319  21.958  0.00  0.00    +0.000 C 
ATOM     15  C   UNL     1       0.233   9.530  23.006  0.00  0.00    +0.000 C 
BRANCH  14  16
ATOM     16  O   UNL     1       1.302  10.439  21.091  0.00  0.00    +0.000 OA
BRANCH  16  20
ATOM     17  C   UNL     1      -2.332  12.390  20.445  0.00  0.00    +0.000 A 
ATOM     18  C   UNL     1      -1.447  12.753  21.464  0.00  0.00    +0.000 A 
ATOM     19  C   UNL     1      -0.235  12.081  21.607  0.00  0.00    +0.000 A 
ATOM     20  C   UNL     1       0.121  11.033  20.756  0.00  0.00    +0.000 A 
ATOM     21  C   UNL     1      -0.725  10.715  19.696  0.00  0.00    +0.000 A 
ATOM     22  C   UNL     1      -1.946  11.389  19.546  0.00  0.00    +0.000 A 
BRANCH  17  24
ATOM     23  C   UNL     1      -4.528  12.916  21.577  0.00  0.00    +0.000 C 
ATOM     24  C   UNL     1      -3.676  13.062  20.327  0.00  0.00    +0.000 C 
ENDBRANCH  17  24
ENDBRANCH  16  20
ENDBRANCH  14  16
ENDBRANCH  10  14
ENDBRANCH   1  12
BRANCH   2  25
ATOM     25  C   UNL     1       4.052   5.865  18.635  0.00  0.00    +0.000 C 
ATOM     26  O   UNL     1       4.779   5.827  19.641  0.00  0.00    +0.000 OA
BRANCH  25  27
ATOM     27  C   UNL     1       4.674   5.473  17.362  0.00  0.00    +0.000 A 
ATOM     28  C   UNL     1       5.032   4.134  17.152  0.00  0.00    +0.000 A 
ATOM     29  C   UNL     1       5.624   3.763  15.943  0.00  0.00    +0.000 A 
ATOM     30  C   UNL     1       5.869   4.738  14.972  0.00  0.00    +0.000 A 
ATOM     31  C   UNL     1       5.498   6.064  15.188  0.00  0.00    +0.000 A 
ATOM     32  C   UNL     1       4.901   6.442  16.390  0.00  0.00    +0.000 A 
ENDBRANCH  25  27
ENDBRANCH   2  25
TORSDOF 7
ENDMDL
