MODEL 1
REMARK VINA RESULT:      -8.8      0.000      0.000
REMARK  Name = 
REMARK  10 active torsions:
REMARK  status: ('A' for Active; 'I' for Inactive)
REMARK    1  A    between atoms: C_1  and  C_2
REMARK    2  A    between atoms: N_4  and  C_5
REMARK    3  A    between atoms: C_5  and  C_6
REMARK    4  A    between atoms: C_6  and  C_7
REMARK    5  A    between atoms: C_7  and  N_8
REMARK    6  A    between atoms: C_22  and  C_23
REMARK    7  A    between atoms: N_24  and  C_25
REMARK    8  A    between atoms: C_25  and  C_26
REMARK    9  A    between atoms: C_26  and  C_27
REMARK   10  A    between atoms: C_27  and  C_28
REMARK                            x       y       z     vdW  Elec       q    Type
REMARK                         _______ _______ _______ _____ _____    ______ ____
ROOT
ATOM      1  C   UNL     1      -0.124   8.871  21.956  0.00  0.00    +0.000 C 
ATOM      2  C   UNL     1       0.461   9.885  20.970  0.00  0.00    +0.000 C 
ATOM      3  C   UNL     1      -0.177   9.685  19.568  0.00  0.00    +0.000 C 
ATOM      4  N   UNL     1       0.514  10.411  18.478  0.00  0.00    +0.000 NA
ATOM      5  C   UNL     1       0.664  11.830  18.875  0.00  0.00    +0.000 C 
ATOM      6  C   UNL     1       1.288  12.029  20.293  0.00  0.00    +0.000 C 
ATOM      7  C   UNL     1       1.585  13.511  20.538  0.00  0.00    +0.000 C 
ATOM      8  N   UNL     1       0.519  11.324  21.379  0.00  0.00    +0.000 NA
ENDROOT
BRANCH   4   9
ATOM      9  C   UNL     1       1.834   9.840  18.150  0.00  0.00    +0.000 C 
BRANCH   9  10
ATOM     10  C   UNL     1       1.818   8.332  17.908  0.00  0.00    +0.000 C 
BRANCH  10  11
ATOM     11  C   UNL     1       2.641   7.592  18.954  0.00  0.00    +0.000 C 
BRANCH  11  12
ATOM     12  N   UNL     1       2.910   6.225  18.540  0.00  0.00    +0.000 N 
ATOM     13  C   UNL     1       2.327   5.110  19.110  0.00  0.00    +0.000 A 
ATOM     14  C   UNL     1       1.388   4.987  20.150  0.00  0.00    +0.000 A 
ATOM     15  C   UNL     1       0.973   3.703  20.517  0.00  0.00    +0.000 A 
ATOM     16  C   UNL     1       1.480   2.579  19.873  0.00  0.00    +0.000 A 
ATOM     17  C   UNL     1       2.417   2.714  18.842  0.00  0.00    +0.000 A 
ATOM     18  C   UNL     1       2.851   3.999  18.450  0.00  0.00    +0.000 A 
ATOM     19  C   UNL     1       3.767   4.478  17.459  0.00  0.00    +0.000 A 
ATOM     20  C   UNL     1       4.583   3.845  16.495  0.00  0.00    +0.000 A 
ATOM     21  C   UNL     1       5.380   4.617  15.644  0.00  0.00    +0.000 A 
ATOM     22  C   UNL     1       5.386   6.004  15.744  0.00  0.00    +0.000 A 
ATOM     23  C   UNL     1       4.590   6.657  16.698  0.00  0.00    +0.000 A 
ATOM     24  C   UNL     1       3.787   5.872  17.537  0.00  0.00    +0.000 A 
ENDBRANCH  11  12
ENDBRANCH  10  11
ENDBRANCH   9  10
ENDBRANCH   4   9
BRANCH   8  25
ATOM     25  C   UNL     1      -0.784  11.975  21.620  0.00  0.00    +0.000 C 
BRANCH  25  26
ATOM     26  C   UNL     1      -1.222  12.169  23.076  0.00  0.00    +0.000 C 
BRANCH  26  27
ATOM     27  C   UNL     1      -1.927  13.501  23.355  0.00  0.00    +0.000 C 
BRANCH  27  28
ATOM     28  C   UNL     1      -3.425  13.318  23.463  0.00  0.00    +0.000 A 
ATOM     29  C   UNL     1      -4.293  14.004  22.602  0.00  0.00    +0.000 A 
ATOM     30  C   UNL     1      -5.677  13.857  22.725  0.00  0.00    +0.000 A 
ATOM     31  C   UNL     1      -6.207  13.025  23.710  0.00  0.00    +0.000 A 
ATOM     32  C   UNL     1      -5.353  12.332  24.566  0.00  0.00    +0.000 A 
ATOM     33  C   UNL     1      -3.971  12.473  24.439  0.00  0.00    +0.000 A 
ENDBRANCH  27  28
ENDBRANCH  26  27
ENDBRANCH  25  26
ENDBRANCH   8  25
TORSDOF 8
ENDMDL
MODEL 2
REMARK VINA RESULT:      -8.8      0.218      2.798
REMARK  Name = 
REMARK  10 active torsions:
REMARK  status: ('A' for Active; 'I' for Inactive)
REMARK    1  A    between atoms: C_1  and  C_2
REMARK    2  A    between atoms: N_4  and  C_5
REMARK    3  A    between atoms: C_5  and  C_6
REMARK    4  A    between atoms: C_6  and  C_7
REMARK    5  A    between atoms: C_7  and  N_8
REMARK    6  A    between atoms: C_22  and  C_23
REMARK    7  A    between atoms: N_24  and  C_25
REMARK    8  A    between atoms: C_25  and  C_26
REMARK    9  A    between atoms: C_26  and  C_27
REMARK   10  A    between atoms: C_27  and  C_28
REMARK                            x       y       z     vdW  Elec       q    Type
REMARK                         _______ _______ _______ _____ _____    ______ ____
ROOT
ATOM      1  C   UNL     1      -0.320   8.908  22.045  0.00  0.00    +0.000 C 
ATOM      2  C   UNL     1       0.310   9.898  21.061  0.00  0.00    +0.000 C 
ATOM      3  C   UNL     1      -0.322   9.715  19.654  0.00  0.00    +0.000 C 
ATOM      4  N   UNL     1       0.404  10.412  18.568  0.00  0.00    +0.000 NA
ATOM      5  C   UNL     1       0.600  11.826  18.961  0.00  0.00    +0.000 C 
ATOM      6  C   UNL     1       1.218  12.008  20.385  0.00  0.00    +0.000 C 
ATOM      7  C   UNL     1       1.565  13.480  20.627  0.00  0.00    +0.000 C 
ATOM      8  N   UNL     1       0.415  11.335  21.466  0.00  0.00    +0.000 NA
ENDROOT
BRANCH   4   9
ATOM      9  C   UNL     1       1.706   9.793  18.253  0.00  0.00    +0.000 C 
BRANCH   9  10
ATOM     10  C   UNL     1       1.652   8.276  18.094  0.00  0.00    +0.000 C 
BRANCH  10  11
ATOM     11  C   UNL     1       2.568   7.578  19.091  0.00  0.00    +0.000 C 
BRANCH  11  12
ATOM     12  N   UNL     1       2.876   6.225  18.662  0.00  0.00    +0.000 N 
ATOM     13  C   UNL     1       3.751   5.913  17.640  0.00  0.00    +0.000 A 
ATOM     14  C   UNL     1       4.530   6.735  16.805  0.00  0.00    +0.000 A 
ATOM     15  C   UNL     1       5.339   6.123  15.843  0.00  0.00    +0.000 A 
ATOM     16  C   UNL     1       5.367   4.738  15.713  0.00  0.00    +0.000 A 
ATOM     17  C   UNL     1       4.585   3.930  16.545  0.00  0.00    +0.000 A 
ATOM     18  C   UNL     1       3.761   4.522  17.528  0.00  0.00    +0.000 A 
ATOM     19  C   UNL     1       2.867   4.003  18.518  0.00  0.00    +0.000 A 
ATOM     20  C   UNL     1       2.470   2.699  18.889  0.00  0.00    +0.000 A 
ATOM     21  C   UNL     1       1.559   2.521  19.934  0.00  0.00    +0.000 A 
ATOM     22  C   UNL     1       1.030   3.616  20.608  0.00  0.00    +0.000 A 
ATOM     23  C   UNL     1       1.402   4.922  20.254  0.00  0.00    +0.000 A 
ATOM     24  C   UNL     1       2.325   5.087  19.211  0.00  0.00    +0.000 A 
ENDBRANCH  11  12
ENDBRANCH  10  11
ENDBRANCH   9  10
ENDBRANCH   4   9
BRANCH   8  25
ATOM     25  C   UNL     1      -0.867  12.033  21.692  0.00  0.00    +0.000 C 
BRANCH  25  26
ATOM     26  C   UNL     1      -1.076  12.708  23.052  0.00  0.00    +0.000 C 
BRANCH  26  27
ATOM     27  C   UNL     1      -1.991  13.936  23.017  0.00  0.00    +0.000 C 
BRANCH  27  28
ATOM     28  C   UNL     1      -3.427  13.561  23.318  0.00  0.00    +0.000 A 
ATOM     29  C   UNL     1      -4.482  14.132  22.594  0.00  0.00    +0.000 A 
ATOM     30  C   UNL     1      -5.807  13.807  22.895  0.00  0.00    +0.000 A 
ATOM     31  C   UNL     1      -6.089  12.910  23.924  0.00  0.00    +0.000 A 
ATOM     32  C   UNL     1      -5.048  12.331  24.645  0.00  0.00    +0.000 A 
ATOM     33  C   UNL     1      -3.724  12.650  24.340  0.00  0.00    +0.000 A 
ENDBRANCH  27  28
ENDBRANCH  26  27
ENDBRANCH  25  26
ENDBRANCH   8  25
TORSDOF 8
ENDMDL
MODEL 3
REMARK VINA RESULT:      -8.6      0.797      2.952
REMARK  Name = 
REMARK  10 active torsions:
REMARK  status: ('A' for Active; 'I' for Inactive)
REMARK    1  A    between atoms: C_1  and  C_2
REMARK    2  A    between atoms: N_4  and  C_5
REMARK    3  A    between atoms: C_5  and  C_6
REMARK    4  A    between atoms: C_6  and  C_7
REMARK    5  A    between atoms: C_7  and  N_8
REMARK    6  A    between atoms: C_22  and  C_23
REMARK    7  A    between atoms: N_24  and  C_25
REMARK    8  A    between atoms: C_25  and  C_26
REMARK    9  A    between atoms: C_26  and  C_27
REMARK   10  A    between atoms: C_27  and  C_28
REMARK                            x       y       z     vdW  Elec       q    Type
REMARK                         _______ _______ _______ _____ _____    ______ ____
ROOT
ATOM      1  C   UNL     1       0.191   9.354  22.628  0.00  0.00    +0.000 C 
ATOM      2  C   UNL     1       0.596  10.154  21.387  0.00  0.00    +0.000 C 
ATOM      3  C   UNL     1      -0.056   9.531  20.122  0.00  0.00    +0.000 C 
ATOM      4  N   UNL     1       0.491  10.042  18.844  0.00  0.00    +0.000 NA
ATOM      5  C   UNL     1       0.456  11.522  18.873  0.00  0.00    +0.000 C 
ATOM      6  C   UNL     1       1.096  12.147  20.154  0.00  0.00    +0.000 C 
ATOM      7  C   UNL     1       1.193  13.668  20.010  0.00  0.00    +0.000 C 
ATOM      8  N   UNL     1       0.469  11.646  21.428  0.00  0.00    +0.000 NA
ENDROOT
BRANCH   4   9
ATOM      9  C   UNL     1       1.865   9.576  18.577  0.00  0.00    +0.000 C 
BRANCH   9  10
ATOM     10  C   UNL     1       1.947   8.146  18.049  0.00  0.00    +0.000 C 
BRANCH  10  11
ATOM     11  C   UNL     1       2.578   7.210  19.071  0.00  0.00    +0.000 C 
BRANCH  11  12
ATOM     12  N   UNL     1       2.909   5.927  18.475  0.00  0.00    +0.000 N 
ATOM     13  C   UNL     1       3.880   5.745  17.509  0.00  0.00    +0.000 A 
ATOM     14  C   UNL     1       4.753   6.659  16.891  0.00  0.00    +0.000 A 
ATOM     15  C   UNL     1       5.647   6.173  15.933  0.00  0.00    +0.000 A 
ATOM     16  C   UNL     1       5.668   4.824  15.597  0.00  0.00    +0.000 A 
ATOM     17  C   UNL     1       4.792   3.924  16.215  0.00  0.00    +0.000 A 
ATOM     18  C   UNL     1       3.880   4.388  17.189  0.00  0.00    +0.000 A 
ATOM     19  C   UNL     1       2.881   3.754  17.995  0.00  0.00    +0.000 A 
ATOM     20  C   UNL     1       2.428   2.421  18.122  0.00  0.00    +0.000 A 
ATOM     21  C   UNL     1       1.412   2.117  19.032  0.00  0.00    +0.000 A 
ATOM     22  C   UNL     1       0.833   3.114  19.808  0.00  0.00    +0.000 A 
ATOM     23  C   UNL     1       1.259   4.447  19.695  0.00  0.00    +0.000 A 
ATOM     24  C   UNL     1       2.287   4.737  18.787  0.00  0.00    +0.000 A 
ENDBRANCH  11  12
ENDBRANCH  10  11
ENDBRANCH   9  10
ENDBRANCH   4   9
BRANCH   8  25
ATOM     25  C   UNL     1      -0.903  12.168  21.591  0.00  0.00    +0.000 C 
BRANCH  25  26
ATOM     26  C   UNL     1      -1.335  12.602  22.996  0.00  0.00    +0.000 C 
BRANCH  26  27
ATOM     27  C   UNL     1      -2.662  11.998  23.467  0.00  0.00    +0.000 C 
BRANCH  27  28
ATOM     28  C   UNL     1      -3.833  12.879  23.088  0.00  0.00    +0.000 A 
ATOM     29  C   UNL     1      -4.243  13.923  23.927  0.00  0.00    +0.000 A 
ATOM     30  C   UNL     1      -5.344  14.714  23.589  0.00  0.00    +0.000 A 
ATOM     31  C   UNL     1      -6.046  14.467  22.410  0.00  0.00    +0.000 A 
ATOM     32  C   UNL     1      -5.642  13.437  21.565  0.00  0.00    +0.000 A 
ATOM     33  C   UNL     1      -4.538  12.650  21.899  0.00  0.00    +0.000 A 
ENDBRANCH  27  28
ENDBRANCH  26  27
ENDBRANCH  25  26
ENDBRANCH   8  25
TORSDOF 8
ENDMDL
MODEL 4
REMARK VINA RESULT:      -8.6      0.787      1.008
REMARK  Name = 
REMARK  10 active torsions:
REMARK  status: ('A' for Active; 'I' for Inactive)
REMARK    1  A    between atoms: C_1  and  C_2
REMARK    2  A    between atoms: N_4  and  C_5
REMARK    3  A    between atoms: C_5  and  C_6
REMARK    4  A    between atoms: C_6  and  C_7
REMARK    5  A    between atoms: C_7  and  N_8
REMARK    6  A    between atoms: C_22  and  C_23
REMARK    7  A    between atoms: N_24  and  C_25
REMARK    8  A    between atoms: C_25  and  C_26
REMARK    9  A    between atoms: C_26  and  C_27
REMARK   10  A    between atoms: C_27  and  C_28
REMARK                            x       y       z     vdW  Elec       q    Type
REMARK                         _______ _______ _______ _____ _____    ______ ____
ROOT
ATOM      1  C   UNL     1      -0.352   9.134  22.015  0.00  0.00    +0.000 C 
ATOM      2  C   UNL     1       0.376  10.047  21.026  0.00  0.00    +0.000 C 
ATOM      3  C   UNL     1      -0.224   9.869  19.604  0.00  0.00    +0.000 C 
ATOM      4  N   UNL     1       0.583  10.481  18.524  0.00  0.00    +0.000 NA
ATOM      5  C   UNL     1       0.869  11.888  18.885  0.00  0.00    +0.000 C 
ATOM      6  C   UNL     1       1.455  12.067  20.323  0.00  0.00    +0.000 C 
ATOM      7  C   UNL     1       1.900  13.516  20.536  0.00  0.00    +0.000 C 
ATOM      8  N   UNL     1       0.573  11.485  21.395  0.00  0.00    +0.000 NA
ENDROOT
BRANCH   4   9
ATOM      9  C   UNL     1       1.845   9.762  18.268  0.00  0.00    +0.000 C 
BRANCH   9  10
ATOM     10  C   UNL     1       1.681   8.253  18.105  0.00  0.00    +0.000 C 
BRANCH  10  11
ATOM     11  C   UNL     1       2.514   7.489  19.127  0.00  0.00    +0.000 C 
BRANCH  11  12
ATOM     12  N   UNL     1       2.843   6.158  18.645  0.00  0.00    +0.000 N 
ATOM     13  C   UNL     1       2.306   4.991  19.154  0.00  0.00    +0.000 A 
ATOM     14  C   UNL     1       1.368   4.774  20.179  0.00  0.00    +0.000 A 
ATOM     15  C   UNL     1       1.007   3.457  20.477  0.00  0.00    +0.000 A 
ATOM     16  C   UNL     1       1.566   2.391  19.780  0.00  0.00    +0.000 A 
ATOM     17  C   UNL     1       2.502   2.618  18.765  0.00  0.00    +0.000 A 
ATOM     18  C   UNL     1       2.882   3.939  18.442  0.00  0.00    +0.000 A 
ATOM     19  C   UNL     1       3.782   4.507  17.483  0.00  0.00    +0.000 A 
ATOM     20  C   UNL     1       4.629   3.960  16.495  0.00  0.00    +0.000 A 
ATOM     21  C   UNL     1       5.397   4.808  15.691  0.00  0.00    +0.000 A 
ATOM     22  C   UNL     1       5.343   6.186  15.861  0.00  0.00    +0.000 A 
ATOM     23  C   UNL     1       4.514   6.755  16.841  0.00  0.00    +0.000 A 
ATOM     24  C   UNL     1       3.740   5.894  17.633  0.00  0.00    +0.000 A 
ENDBRANCH  11  12
ENDBRANCH  10  11
ENDBRANCH   9  10
ENDBRANCH   4   9
BRANCH   8  25
ATOM     25  C   UNL     1      -0.661  12.278  21.561  0.00  0.00    +0.000 C 
BRANCH  25  26
ATOM     26  C   UNL     1      -1.181  12.490  22.987  0.00  0.00    +0.000 C 
BRANCH  26  27
ATOM     27  C   UNL     1      -2.621  12.016  23.214  0.00  0.00    +0.000 C 
BRANCH  27  28
ATOM     28  C   UNL     1      -3.620  13.083  22.821  0.00  0.00    +0.000 A 
ATOM     29  C   UNL     1      -3.476  14.400  23.275  0.00  0.00    +0.000 A 
ATOM     30  C   UNL     1      -4.417  15.375  22.937  0.00  0.00    +0.000 A 
ATOM     31  C   UNL     1      -5.512  15.042  22.141  0.00  0.00    +0.000 A 
ATOM     32  C   UNL     1      -5.661  13.737  21.677  0.00  0.00    +0.000 A 
ATOM     33  C   UNL     1      -4.718  12.764  22.010  0.00  0.00    +0.000 A 
ENDBRANCH  27  28
ENDBRANCH  26  27
ENDBRANCH  25  26
ENDBRANCH   8  25
TORSDOF 8
ENDMDL
MODEL 5
REMARK VINA RESULT:      -8.4      1.389      3.461
REMARK  Name = 
REMARK  10 active torsions:
REMARK  status: ('A' for Active; 'I' for Inactive)
REMARK    1  A    between atoms: C_1  and  C_2
REMARK    2  A    between atoms: N_4  and  C_5
REMARK    3  A    between atoms: C_5  and  C_6
REMARK    4  A    between atoms: C_6  and  C_7
REMARK    5  A    between atoms: C_7  and  N_8
REMARK    6  A    between atoms: C_22  and  C_23
REMARK    7  A    between atoms: N_24  and  C_25
REMARK    8  A    between atoms: C_25  and  C_26
REMARK    9  A    between atoms: C_26  and  C_27
REMARK   10  A    between atoms: C_27  and  C_28
REMARK                            x       y       z     vdW  Elec       q    Type
REMARK                         _______ _______ _______ _____ _____    ______ ____
ROOT
ATOM      1  C   UNL     1      -2.163  10.277  17.811  0.00  0.00    +0.000 C 
ATOM      2  C   UNL     1      -1.263  10.276  19.050  0.00  0.00    +0.000 C 
ATOM      3  C   UNL     1       0.217  10.480  18.626  0.00  0.00    +0.000 C 
ATOM      4  N   UNL     1       1.199  10.210  19.701  0.00  0.00    +0.000 NA
ATOM      5  C   UNL     1       0.805  10.978  20.905  0.00  0.00    +0.000 C 
ATOM      6  C   UNL     1      -0.689  10.786  21.319  0.00  0.00    +0.000 C 
ATOM      7  C   UNL     1      -0.953  11.452  22.671  0.00  0.00    +0.000 C 
ATOM      8  N   UNL     1      -1.654  11.129  20.216  0.00  0.00    +0.000 NA
ENDROOT
BRANCH   4   9
ATOM      9  C   UNL     1       1.312   8.777  20.033  0.00  0.00    +0.000 C 
BRANCH   9  10
ATOM     10  C   UNL     1       2.054   7.951  18.986  0.00  0.00    +0.000 C 
BRANCH  10  11
ATOM     11  C   UNL     1       2.975   6.927  19.636  0.00  0.00    +0.000 C 
BRANCH  11  12
ATOM     12  N   UNL     1       3.109   5.741  18.807  0.00  0.00    +0.000 N 
ATOM     13  C   UNL     1       4.009   5.615  17.767  0.00  0.00    +0.000 A 
ATOM     14  C   UNL     1       4.971   6.508  17.263  0.00  0.00    +0.000 A 
ATOM     15  C   UNL     1       5.755   6.095  16.182  0.00  0.00    +0.000 A 
ATOM     16  C   UNL     1       5.583   4.836  15.618  0.00  0.00    +0.000 A 
ATOM     17  C   UNL     1       4.619   3.957  16.124  0.00  0.00    +0.000 A 
ATOM     18  C   UNL     1       3.816   4.348  17.218  0.00  0.00    +0.000 A 
ATOM     19  C   UNL     1       2.772   3.709  17.962  0.00  0.00    +0.000 A 
ATOM     20  C   UNL     1       2.151   2.442  17.884  0.00  0.00    +0.000 A 
ATOM     21  C   UNL     1       1.139   2.109  18.790  0.00  0.00    +0.000 A 
ATOM     22  C   UNL     1       0.729   3.015  19.760  0.00  0.00    +0.000 A 
ATOM     23  C   UNL     1       1.324   4.282  19.853  0.00  0.00    +0.000 A 
ATOM     24  C   UNL     1       2.346   4.601  18.948  0.00  0.00    +0.000 A 
ENDBRANCH  11  12
ENDBRANCH  10  11
ENDBRANCH   9  10
ENDBRANCH   4   9
BRANCH   8  25
ATOM     25  C   UNL     1      -1.682  12.584  19.964  0.00  0.00    +0.000 C 
BRANCH  25  26
ATOM     26  C   UNL     1      -2.873  13.377  20.514  0.00  0.00    +0.000 C 
BRANCH  26  27
ATOM     27  C   UNL     1      -4.241  12.752  20.221  0.00  0.00    +0.000 C 
BRANCH  27  28
ATOM     28  C   UNL     1      -5.132  12.781  21.444  0.00  0.00    +0.000 A 
ATOM     29  C   UNL     1      -4.626  13.172  22.690  0.00  0.00    +0.000 A 
ATOM     30  C   UNL     1      -5.443  13.167  23.822  0.00  0.00    +0.000 A 
ATOM     31  C   UNL     1      -6.776  12.770  23.720  0.00  0.00    +0.000 A 
ATOM     32  C   UNL     1      -7.293  12.387  22.485  0.00  0.00    +0.000 A 
ATOM     33  C   UNL     1      -6.477  12.397  21.352  0.00  0.00    +0.000 A 
ENDBRANCH  27  28
ENDBRANCH  26  27
ENDBRANCH  25  26
ENDBRANCH   8  25
TORSDOF 8
ENDMDL
MODEL 6
REMARK VINA RESULT:      -8.3      1.083      3.249
REMARK  Name = 
REMARK  10 active torsions:
REMARK  status: ('A' for Active; 'I' for Inactive)
REMARK    1  A    between atoms: C_1  and  C_2
REMARK    2  A    between atoms: N_4  and  C_5
REMARK    3  A    between atoms: C_5  and  C_6
REMARK    4  A    between atoms: C_6  and  C_7
REMARK    5  A    between atoms: C_7  and  N_8
REMARK    6  A    between atoms: C_22  and  C_23
REMARK    7  A    between atoms: N_24  and  C_25
REMARK    8  A    between atoms: C_25  and  C_26
REMARK    9  A    between atoms: C_26  and  C_27
REMARK   10  A    between atoms: C_27  and  C_28
REMARK                            x       y       z     vdW  Elec       q    Type
REMARK                         _______ _______ _______ _____ _____    ______ ____
ROOT
ATOM      1  C   UNL     1      -0.279   8.500  21.721  0.00  0.00    +0.000 C 
ATOM      2  C   UNL     1       0.312   9.606  20.843  0.00  0.00    +0.000 C 
ATOM      3  C   UNL     1      -0.265   9.502  19.405  0.00  0.00    +0.000 C 
ATOM      4  N   UNL     1       0.445  10.332  18.404  0.00  0.00    +0.000 NA
ATOM      5  C   UNL     1       0.535  11.718  18.919  0.00  0.00    +0.000 C 
ATOM      6  C   UNL     1       1.099  11.819  20.372  0.00  0.00    +0.000 C 
ATOM      7  C   UNL     1       1.341  13.284  20.745  0.00  0.00    +0.000 C 
ATOM      8  N   UNL     1       0.311  11.009  21.367  0.00  0.00    +0.000 NA
ENDROOT
BRANCH   4   9
ATOM      9  C   UNL     1       1.793   9.825  18.086  0.00  0.00    +0.000 C 
BRANCH   9  10
ATOM     10  C   UNL     1       1.854   8.317  17.855  0.00  0.00    +0.000 C 
BRANCH  10  11
ATOM     11  C   UNL     1       2.789   7.639  18.849  0.00  0.00    +0.000 C 
BRANCH  11  12
ATOM     12  N   UNL     1       3.024   6.252  18.485  0.00  0.00    +0.000 N 
ATOM     13  C   UNL     1       3.868   5.847  17.470  0.00  0.00    +0.000 A 
ATOM     14  C   UNL     1       4.674   6.586  16.585  0.00  0.00    +0.000 A 
ATOM     15  C   UNL     1       5.437   5.887  15.646  0.00  0.00    +0.000 A 
ATOM     16  C   UNL     1       5.396   4.498  15.585  0.00  0.00    +0.000 A 
ATOM     17  C   UNL     1       4.587   3.773  16.467  0.00  0.00    +0.000 A 
ATOM     18  C   UNL     1       3.808   4.454  17.428  0.00  0.00    +0.000 A 
ATOM     19  C   UNL     1       2.903   4.029  18.454  0.00  0.00    +0.000 A 
ATOM     20  C   UNL     1       2.449   2.767  18.895  0.00  0.00    +0.000 A 
ATOM     21  C   UNL     1       1.546   2.688  19.960  0.00  0.00    +0.000 A 
ATOM     22  C   UNL     1       1.081   3.839  20.583  0.00  0.00    +0.000 A 
ATOM     23  C   UNL     1       1.511   5.106  20.159  0.00  0.00    +0.000 A 
ATOM     24  C   UNL     1       2.426   5.172  19.098  0.00  0.00    +0.000 A 
ENDBRANCH  11  12
ENDBRANCH  10  11
ENDBRANCH   9  10
ENDBRANCH   4   9
BRANCH   8  25
ATOM     25  C   UNL     1      -1.020  11.602  21.605  0.00  0.00    +0.000 C 
BRANCH  25  26
ATOM     26  C   UNL     1      -1.415  11.898  23.056  0.00  0.00    +0.000 C 
BRANCH  26  27
ATOM     27  C   UNL     1      -2.817  12.495  23.224  0.00  0.00    +0.000 C 
BRANCH  27  28
ATOM     28  C   UNL     1      -2.750  13.956  23.612  0.00  0.00    +0.000 A 
ATOM     29  C   UNL     1      -3.291  14.400  24.825  0.00  0.00    +0.000 A 
ATOM     30  C   UNL     1      -3.256  15.755  25.165  0.00  0.00    +0.000 A 
ATOM     31  C   UNL     1      -2.679  16.679  24.294  0.00  0.00    +0.000 A 
ATOM     32  C   UNL     1      -2.131  16.247  23.089  0.00  0.00    +0.000 A 
ATOM     33  C   UNL     1      -2.161  14.893  22.752  0.00  0.00    +0.000 A 
ENDBRANCH  27  28
ENDBRANCH  26  27
ENDBRANCH  25  26
ENDBRANCH   8  25
TORSDOF 8
ENDMDL
MODEL 7
REMARK VINA RESULT:      -8.3      0.573      1.026
REMARK  Name = 
REMARK  10 active torsions:
REMARK  status: ('A' for Active; 'I' for Inactive)
REMARK    1  A    between atoms: C_1  and  C_2
REMARK    2  A    between atoms: N_4  and  C_5
REMARK    3  A    between atoms: C_5  and  C_6
REMARK    4  A    between atoms: C_6  and  C_7
REMARK    5  A    between atoms: C_7  and  N_8
REMARK    6  A    between atoms: C_22  and  C_23
REMARK    7  A    between atoms: N_24  and  C_25
REMARK    8  A    between atoms: C_25  and  C_26
REMARK    9  A    between atoms: C_26  and  C_27
REMARK   10  A    between atoms: C_27  and  C_28
REMARK                            x       y       z     vdW  Elec       q    Type
REMARK                         _______ _______ _______ _____ _____    ______ ____
ROOT
ATOM      1  C   UNL     1       0.479   9.459  22.756  0.00  0.00    +0.000 C 
ATOM      2  C   UNL     1       0.732  10.247  21.468  0.00  0.00    +0.000 C 
ATOM      3  C   UNL     1      -0.087   9.629  20.302  0.00  0.00    +0.000 C 
ATOM      4  N   UNL     1       0.296  10.126  18.961  0.00  0.00    +0.000 NA
ATOM      5  C   UNL     1       0.289  11.606  18.984  0.00  0.00    +0.000 C 
ATOM      6  C   UNL     1       1.098  12.226  20.168  0.00  0.00    +0.000 C 
ATOM      7  C   UNL     1       1.200  13.745  20.003  0.00  0.00    +0.000 C 
ATOM      8  N   UNL     1       0.635  11.741  21.516  0.00  0.00    +0.000 NA
ENDROOT
BRANCH   4   9
ATOM      9  C   UNL     1       1.617   9.637  18.521  0.00  0.00    +0.000 C 
BRANCH   9  10
ATOM     10  C   UNL     1       1.652   8.147  18.190  0.00  0.00    +0.000 C 
BRANCH  10  11
ATOM     11  C   UNL     1       2.589   7.392  19.124  0.00  0.00    +0.000 C 
BRANCH  11  12
ATOM     12  N   UNL     1       2.893   6.069  18.605  0.00  0.00    +0.000 N 
ATOM     13  C   UNL     1       2.326   4.900  19.073  0.00  0.00    +0.000 A 
ATOM     14  C   UNL     1       1.373   4.673  20.083  0.00  0.00    +0.000 A 
ATOM     15  C   UNL     1       0.980   3.356  20.336  0.00  0.00    +0.000 A 
ATOM     16  C   UNL     1       1.521   2.299  19.612  0.00  0.00    +0.000 A 
ATOM     17  C   UNL     1       2.471   2.536  18.613  0.00  0.00    +0.000 A 
ATOM     18  C   UNL     1       2.884   3.857  18.334  0.00  0.00    +0.000 A 
ATOM     19  C   UNL     1       3.805   4.433  17.401  0.00  0.00    +0.000 A 
ATOM     20  C   UNL     1       4.650   3.897  16.404  0.00  0.00    +0.000 A 
ATOM     21  C   UNL     1       5.443   4.752  15.633  0.00  0.00    +0.000 A 
ATOM     22  C   UNL     1       5.419   6.125  15.844  0.00  0.00    +0.000 A 
ATOM     23  C   UNL     1       4.594   6.682  16.834  0.00  0.00    +0.000 A 
ATOM     24  C   UNL     1       3.794   5.816  17.592  0.00  0.00    +0.000 A 
ENDBRANCH  11  12
ENDBRANCH  10  11
ENDBRANCH   9  10
ENDBRANCH   4   9
BRANCH   8  25
ATOM     25  C   UNL     1      -0.697  12.285  21.851  0.00  0.00    +0.000 C 
BRANCH  25  26
ATOM     26  C   UNL     1      -0.755  13.692  22.457  0.00  0.00    +0.000 C 
BRANCH  26  27
ATOM     27  C   UNL     1      -1.486  13.774  23.802  0.00  0.00    +0.000 C 
BRANCH  27  28
ATOM     28  C   UNL     1      -2.987  13.756  23.614  0.00  0.00    +0.000 A 
ATOM     29  C   UNL     1      -3.780  12.807  24.273  0.00  0.00    +0.000 A 
ATOM     30  C   UNL     1      -5.162  12.774  24.072  0.00  0.00    +0.000 A 
ATOM     31  C   UNL     1      -5.765  13.689  23.210  0.00  0.00    +0.000 A 
ATOM     32  C   UNL     1      -4.988  14.641  22.556  0.00  0.00    +0.000 A 
ATOM     33  C   UNL     1      -3.608  14.679  22.761  0.00  0.00    +0.000 A 
ENDBRANCH  27  28
ENDBRANCH  26  27
ENDBRANCH  25  26
ENDBRANCH   8  25
TORSDOF 8
ENDMDL
MODEL 8
REMARK VINA RESULT:      -8.1      1.461      3.404
REMARK  Name = 
REMARK  10 active torsions:
REMARK  status: ('A' for Active; 'I' for Inactive)
REMARK    1  A    between atoms: C_1  and  C_2
REMARK    2  A    between atoms: N_4  and  C_5
REMARK    3  A    between atoms: C_5  and  C_6
REMARK    4  A    between atoms: C_6  and  C_7
REMARK    5  A    between atoms: C_7  and  N_8
REMARK    6  A    between atoms: C_22  and  C_23
REMARK    7  A    between atoms: N_24  and  C_25
REMARK    8  A    between atoms: C_25  and  C_26
REMARK    9  A    between atoms: C_26  and  C_27
REMARK   10  A    between atoms: C_27  and  C_28
REMARK                            x       y       z     vdW  Elec       q    Type
REMARK                         _______ _______ _______ _____ _____    ______ ____
ROOT
ATOM      1  C   UNL     1       0.121   9.767  22.404  0.00  0.00    +0.000 C 
ATOM      2  C   UNL     1       0.675  10.474  21.164  0.00  0.00    +0.000 C 
ATOM      3  C   UNL     1      -0.081   9.985  19.898  0.00  0.00    +0.000 C 
ATOM      4  N   UNL     1       0.555  10.380  18.621  0.00  0.00    +0.000 NA
ATOM      5  C   UNL     1       0.806  11.840  18.648  0.00  0.00    +0.000 C 
ATOM      6  C   UNL     1       1.550  12.331  19.930  0.00  0.00    +0.000 C 
ATOM      7  C   UNL     1       1.938  13.805  19.785  0.00  0.00    +0.000 C 
ATOM      8  N   UNL     1       0.837  11.962  21.203  0.00  0.00    +0.000 NA
ENDROOT
BRANCH   4   9
ATOM      9  C   UNL     1       1.815   9.659  18.357  0.00  0.00    +0.000 C 
BRANCH   9  10
ATOM     10  C   UNL     1       1.639   8.160  18.129  0.00  0.00    +0.000 C 
BRANCH  10  11
ATOM     11  C   UNL     1       2.461   7.346  19.120  0.00  0.00    +0.000 C 
BRANCH  11  12
ATOM     12  N   UNL     1       2.820   6.052  18.566  0.00  0.00    +0.000 N 
ATOM     13  C   UNL     1       3.753   5.865  17.565  0.00  0.00    +0.000 A 
ATOM     14  C   UNL     1       4.557   6.784  16.867  0.00  0.00    +0.000 A 
ATOM     15  C   UNL     1       5.428   6.292  15.890  0.00  0.00    +0.000 A 
ATOM     16  C   UNL     1       5.491   4.930  15.614  0.00  0.00    +0.000 A 
ATOM     17  C   UNL     1       4.683   4.025  16.312  0.00  0.00    +0.000 A 
ATOM     18  C   UNL     1       3.798   4.495  17.306  0.00  0.00    +0.000 A 
ATOM     19  C   UNL     1       2.864   3.859  18.185  0.00  0.00    +0.000 A 
ATOM     20  C   UNL     1       2.476   2.516  18.392  0.00  0.00    +0.000 A 
ATOM     21  C   UNL     1       1.515   2.213  19.362  0.00  0.00    +0.000 A 
ATOM     22  C   UNL     1       0.929   3.220  20.119  0.00  0.00    +0.000 A 
ATOM     23  C   UNL     1       1.292   4.563  19.927  0.00  0.00    +0.000 A 
ATOM     24  C   UNL     1       2.265   4.853  18.960  0.00  0.00    +0.000 A 
ENDBRANCH  11  12
ENDBRANCH  10  11
ENDBRANCH   9  10
ENDBRANCH   4   9
BRANCH   8  25
ATOM     25  C   UNL     1      -0.410  12.737  21.362  0.00  0.00    +0.000 C 
BRANCH  25  26
ATOM     26  C   UNL     1      -0.454  13.788  22.477  0.00  0.00    +0.000 C 
BRANCH  26  27
ATOM     27  C   UNL     1      -1.562  13.569  23.513  0.00  0.00    +0.000 C 
BRANCH  27  28
ATOM     28  C   UNL     1      -1.978  14.873  24.158  0.00  0.00    +0.000 A 
ATOM     29  C   UNL     1      -3.314  15.100  24.517  0.00  0.00    +0.000 A 
ATOM     30  C   UNL     1      -3.699  16.318  25.083  0.00  0.00    +0.000 A 
ATOM     31  C   UNL     1      -2.754  17.320  25.296  0.00  0.00    +0.000 A 
ATOM     32  C   UNL     1      -1.422  17.102  24.951  0.00  0.00    +0.000 A 
ATOM     33  C   UNL     1      -1.035  15.884  24.391  0.00  0.00    +0.000 A 
ENDBRANCH  27  28
ENDBRANCH  26  27
ENDBRANCH  25  26
ENDBRANCH   8  25
TORSDOF 8
ENDMDL
MODEL 9
REMARK VINA RESULT:      -8.1      1.569      3.707
REMARK  Name = 
REMARK  10 active torsions:
REMARK  status: ('A' for Active; 'I' for Inactive)
REMARK    1  A    between atoms: C_1  and  C_2
REMARK    2  A    between atoms: N_4  and  C_5
REMARK    3  A    between atoms: C_5  and  C_6
REMARK    4  A    between atoms: C_6  and  C_7
REMARK    5  A    between atoms: C_7  and  N_8
REMARK    6  A    between atoms: C_22  and  C_23
REMARK    7  A    between atoms: N_24  and  C_25
REMARK    8  A    between atoms: C_25  and  C_26
REMARK    9  A    between atoms: C_26  and  C_27
REMARK   10  A    between atoms: C_27  and  C_28
REMARK                            x       y       z     vdW  Elec       q    Type
REMARK                         _______ _______ _______ _____ _____    ______ ____
ROOT
ATOM      1  C   UNL     1       1.388  13.984  18.832  0.00  0.00    +0.000 C 
ATOM      2  C   UNL     1       0.782  12.589  18.661  0.00  0.00    +0.000 C 
ATOM      3  C   UNL     1       1.560  11.567  19.535  0.00  0.00    +0.000 C 
ATOM      4  N   UNL     1       1.250  10.151  19.233  0.00  0.00    +0.000 NA
ATOM      5  C   UNL     1      -0.220   9.972  19.261  0.00  0.00    +0.000 C 
ATOM      6  C   UNL     1      -1.002  11.012  18.396  0.00  0.00    +0.000 C 
ATOM      7  C   UNL     1      -2.484  10.635  18.326  0.00  0.00    +0.000 C 
ATOM      8  N   UNL     1      -0.703  12.437  18.778  0.00  0.00    +0.000 NA
ENDROOT
BRANCH   4   9
ATOM      9  C   UNL     1       1.785   9.707  17.931  0.00  0.00    +0.000 C 
BRANCH   9  10
ATOM     10  C   UNL     1       1.833   8.191  17.761  0.00  0.00    +0.000 C 
BRANCH  10  11
ATOM     11  C   UNL     1       2.611   7.528  18.890  0.00  0.00    +0.000 C 
BRANCH  11  12
ATOM     12  N   UNL     1       2.945   6.153  18.560  0.00  0.00    +0.000 N 
ATOM     13  C   UNL     1       3.833   5.785  17.568  0.00  0.00    +0.000 A 
ATOM     14  C   UNL     1       4.605   6.559  16.683  0.00  0.00    +0.000 A 
ATOM     15  C   UNL     1       5.431   5.894  15.772  0.00  0.00    +0.000 A 
ATOM     16  C   UNL     1       5.483   4.505  15.740  0.00  0.00    +0.000 A 
ATOM     17  C   UNL     1       4.708   3.744  16.623  0.00  0.00    +0.000 A 
ATOM     18  C   UNL     1       3.867   4.390  17.555  0.00  0.00    +0.000 A 
ATOM     19  C   UNL     1       2.973   3.927  18.574  0.00  0.00    +0.000 A 
ATOM     20  C   UNL     1       2.596   2.646  19.033  0.00  0.00    +0.000 A 
ATOM     21  C   UNL     1       1.680   2.527  20.083  0.00  0.00    +0.000 A 
ATOM     22  C   UNL     1       1.127   3.657  20.673  0.00  0.00    +0.000 A 
ATOM     23  C   UNL     1       1.480   4.941  20.230  0.00  0.00    +0.000 A 
ATOM     24  C   UNL     1       2.409   5.048  19.185  0.00  0.00    +0.000 A 
ENDBRANCH  11  12
ENDBRANCH  10  11
ENDBRANCH   9  10
ENDBRANCH   4   9
BRANCH   8  25
ATOM     25  C   UNL     1      -1.279  12.770  20.096  0.00  0.00    +0.000 C 
BRANCH  25  26
ATOM     26  C   UNL     1      -2.714  13.309  20.128  0.00  0.00    +0.000 C 
BRANCH  26  27
ATOM     27  C   UNL     1      -3.452  13.073  21.450  0.00  0.00    +0.000 C 
BRANCH  27  28
ATOM     28  C   UNL     1      -4.904  12.720  21.214  0.00  0.00    +0.000 A 
ATOM     29  C   UNL     1      -5.331  12.242  19.968  0.00  0.00    +0.000 A 
ATOM     30  C   UNL     1      -6.678  11.947  19.744  0.00  0.00    +0.000 A 
ATOM     31  C   UNL     1      -7.612  12.127  20.763  0.00  0.00    +0.000 A 
ATOM     32  C   UNL     1      -7.197  12.594  22.009  0.00  0.00    +0.000 A 
ATOM     33  C   UNL     1      -5.851  12.883  22.235  0.00  0.00    +0.000 A 
ENDBRANCH  27  28
ENDBRANCH  26  27
ENDBRANCH  25  26
ENDBRANCH   8  25
TORSDOF 8
ENDMDL
