MODEL 1
REMARK VINA RESULT:      -8.1      0.000      0.000
REMARK  Name = 
REMARK  6 active torsions:
REMARK  status: ('A' for Active; 'I' for Inactive)
REMARK    1  A    between atoms: C_1  and  C_2
REMARK    2  A    between atoms: N_4  and  C_5
REMARK    3  A    between atoms: C_6  and  C_7
REMARK    4  A    between atoms: C_9  and  C_10
REMARK    5  A    between atoms: C_18  and  C_19
REMARK    6  A    between atoms: C_22  and  C_23
REMARK                            x       y       z     vdW  Elec       q    Type
REMARK                         _______ _______ _______ _____ _____    ______ ____
ROOT
ATOM      1  C   UNL     1       3.915   4.542  17.683  0.00  0.00    +0.000 A 
ATOM      2  C   UNL     1       3.744   3.291  18.294  0.00  0.00    +0.000 A 
ATOM      3  C   UNL     1       4.366   2.019  17.782  0.00  0.00    +0.000 C 
ATOM      4  C   UNL     1       2.958   3.203  19.462  0.00  0.00    +0.000 A 
ATOM      5  C   UNL     1       2.349   4.326  20.050  0.00  0.00    +0.000 A 
ATOM      6  C   UNL     1       1.507   4.114  21.280  0.00  0.00    +0.000 C 
ATOM      7  C   UNL     1       2.541   5.585  19.458  0.00  0.00    +0.000 A 
ATOM      8  C   UNL     1       3.342   5.681  18.285  0.00  0.00    +0.000 A 
ATOM      9  C   UNL     1       3.527   7.019  17.635  0.00  0.00    +0.000 C 
ATOM     10  O   UNL     1       4.471   7.247  16.886  0.00  0.00    +0.000 OA
ATOM     11  C   UNL     1       2.519   8.119  17.956  0.00  0.00    +0.000 C 
ATOM     12  O   UNL     1       2.301   8.996  17.132  0.00  0.00    +0.000 OA
ATOM     13  C   UNL     1       1.888   8.030  19.244  0.00  0.00    +0.000 A 
ATOM     14  C   UNL     1       1.169   8.937  20.068  0.00  0.00    +0.000 A 
ATOM     15  C   UNL     1       0.850   8.209  21.203  0.00  0.00    +0.000 A 
ATOM     16  O   UNL     1       1.303   6.926  21.109  0.00  0.00    +0.000 OA
ATOM     17  C   UNL     1       1.928   6.828  19.912  0.00  0.00    +0.000 A 
ENDROOT
BRANCH  14  18
ATOM     18  C   UNL     1       0.893  10.354  19.904  0.00  0.00    +0.000 A 
ATOM     19  C   UNL     1       1.549  11.322  20.675  0.00  0.00    +0.000 A 
ATOM     20  C   UNL     1       1.307  12.684  20.459  0.00  0.00    +0.000 A 
ATOM     21  C   UNL     1       0.402  13.098  19.475  0.00  0.00    +0.000 A 
ATOM     22  C   UNL     1       0.166  14.550  19.189  0.00  0.00    +0.000 C 
ATOM     23  C   UNL     1      -0.280  12.133  18.733  0.00  0.00    +0.000 A 
ATOM     24  C   UNL     1      -0.031  10.777  18.940  0.00  0.00    +0.000 A 
ENDBRANCH  14  18
BRANCH   1  28
ATOM     25  C   UNL     1       6.595   4.729  15.066  0.00  0.00    +0.000 C 
ATOM     26  C   UNL     1       6.041   4.648  16.464  0.00  0.00    +0.000 C 
ATOM     27  O   UNL     1       6.762   4.511  17.444  0.00  0.00    +0.000 OA
ATOM     28  N   UNL     1       4.655   4.695  16.483  0.00  0.00    +0.000 N 
ATOM     29  H   UNL     1       4.231   4.266  15.655  0.00  0.00    +0.000 HD
ENDBRANCH   1  28
TORSDOF 2
ENDMDL
MODEL 2
REMARK VINA RESULT:      -7.7      4.536      9.411
REMARK  Name = 
REMARK  6 active torsions:
REMARK  status: ('A' for Active; 'I' for Inactive)
REMARK    1  A    between atoms: C_1  and  C_2
REMARK    2  A    between atoms: N_4  and  C_5
REMARK    3  A    between atoms: C_6  and  C_7
REMARK    4  A    between atoms: C_9  and  C_10
REMARK    5  A    between atoms: C_18  and  C_19
REMARK    6  A    between atoms: C_22  and  C_23
REMARK                            x       y       z     vdW  Elec       q    Type
REMARK                         _______ _______ _______ _____ _____    ______ ____
ROOT
ATOM      1  C   UNL     1      -4.102  13.089  19.914  0.00  0.00    +0.000 A 
ATOM      2  C   UNL     1      -4.292  14.042  20.927  0.00  0.00    +0.000 A 
ATOM      3  C   UNL     1      -5.473  14.975  20.983  0.00  0.00    +0.000 C 
ATOM      4  C   UNL     1      -3.342  14.135  21.964  0.00  0.00    +0.000 A 
ATOM      5  C   UNL     1      -2.213  13.298  22.034  0.00  0.00    +0.000 A 
ATOM      6  C   UNL     1      -1.247  13.504  23.169  0.00  0.00    +0.000 C 
ATOM      7  C   UNL     1      -2.033  12.325  21.038  0.00  0.00    +0.000 A 
ATOM      8  C   UNL     1      -2.996  12.219  19.995  0.00  0.00    +0.000 A 
ATOM      9  C   UNL     1      -2.793  11.198  18.915  0.00  0.00    +0.000 C 
ATOM     10  O   UNL     1      -3.724  10.793  18.228  0.00  0.00    +0.000 OA
ATOM     11  C   UNL     1      -1.387  10.641  18.709  0.00  0.00    +0.000 C 
ATOM     12  O   UNL     1      -1.053  10.243  17.603  0.00  0.00    +0.000 OA
ATOM     13  C   UNL     1      -0.543  10.630  19.873  0.00  0.00    +0.000 A 
ATOM     14  C   UNL     1       0.655   9.956  20.230  0.00  0.00    +0.000 A 
ATOM     15  C   UNL     1       0.932  10.384  21.519  0.00  0.00    +0.000 A 
ATOM     16  O   UNL     1       0.002  11.283  21.950  0.00  0.00    +0.000 OA
ATOM     17  C   UNL     1      -0.887  11.428  20.939  0.00  0.00    +0.000 A 
ENDROOT
BRANCH  14  18
ATOM     18  C   UNL     1       1.419   8.939  19.527  0.00  0.00    +0.000 A 
ATOM     19  C   UNL     1       1.890   9.147  18.226  0.00  0.00    +0.000 A 
ATOM     20  C   UNL     1       2.673   8.175  17.590  0.00  0.00    +0.000 A 
ATOM     21  C   UNL     1       2.988   6.979  18.244  0.00  0.00    +0.000 A 
ATOM     22  C   UNL     1       3.867   5.946  17.607  0.00  0.00    +0.000 C 
ATOM     23  C   UNL     1       2.487   6.755  19.527  0.00  0.00    +0.000 A 
ATOM     24  C   UNL     1       1.719   7.728  20.164  0.00  0.00    +0.000 A 
ENDBRANCH  14  18
BRANCH   1  28
ATOM     25  C   UNL     1      -7.035  12.428  17.672  0.00  0.00    +0.000 C 
ATOM     26  C   UNL     1      -6.221  12.335  18.936  0.00  0.00    +0.000 C 
ATOM     27  O   UNL     1      -6.647  11.790  19.947  0.00  0.00    +0.000 OA
ATOM     28  N   UNL     1      -4.994  12.971  18.819  0.00  0.00    +0.000 N 
ATOM     29  H   UNL     1      -5.026  13.784  18.196  0.00  0.00    +0.000 HD
ENDBRANCH   1  28
TORSDOF 2
ENDMDL
MODEL 3
REMARK VINA RESULT:      -7.6      2.933      7.899
REMARK  Name = 
REMARK  6 active torsions:
REMARK  status: ('A' for Active; 'I' for Inactive)
REMARK    1  A    between atoms: C_1  and  C_2
REMARK    2  A    between atoms: N_4  and  C_5
REMARK    3  A    between atoms: C_6  and  C_7
REMARK    4  A    between atoms: C_9  and  C_10
REMARK    5  A    between atoms: C_18  and  C_19
REMARK    6  A    between atoms: C_22  and  C_23
REMARK                            x       y       z     vdW  Elec       q    Type
REMARK                         _______ _______ _______ _____ _____    ______ ____
ROOT
ATOM      1  C   UNL     1      -0.706  12.257  20.565  0.00  0.00    +0.000 A 
ATOM      2  C   UNL     1      -1.193  12.428  21.870  0.00  0.00    +0.000 A 
ATOM      3  C   UNL     1      -1.937  13.655  22.329  0.00  0.00    +0.000 C 
ATOM      4  C   UNL     1      -0.997  11.399  22.813  0.00  0.00    +0.000 A 
ATOM      5  C   UNL     1      -0.342  10.196  22.495  0.00  0.00    +0.000 A 
ATOM      6  C   UNL     1      -0.160   9.176  23.587  0.00  0.00    +0.000 C 
ATOM      7  C   UNL     1       0.123  10.008  21.183  0.00  0.00    +0.000 A 
ATOM      8  C   UNL     1      -0.083  11.039  20.224  0.00  0.00    +0.000 A 
ATOM      9  C   UNL     1       0.435  10.854  18.829  0.00  0.00    +0.000 C 
ATOM     10  O   UNL     1      -0.017  11.488  17.883  0.00  0.00    +0.000 OA
ATOM     11  C   UNL     1       1.532   9.815  18.603  0.00  0.00    +0.000 C 
ATOM     12  O   UNL     1       2.319   9.963  17.680  0.00  0.00    +0.000 OA
ATOM     13  C   UNL     1       1.548   8.714  19.527  0.00  0.00    +0.000 A 
ATOM     14  C   UNL     1       2.137   7.421  19.527  0.00  0.00    +0.000 A 
ATOM     15  C   UNL     1       1.740   6.851  20.726  0.00  0.00    +0.000 A 
ATOM     16  O   UNL     1       0.977   7.715  21.453  0.00  0.00    +0.000 OA
ATOM     17  C   UNL     1       0.872   8.846  20.716  0.00  0.00    +0.000 A 
ENDROOT
BRANCH  14  18
ATOM     18  C   UNL     1       2.891   6.720  18.501  0.00  0.00    +0.000 A 
ATOM     19  C   UNL     1       3.918   7.351  17.789  0.00  0.00    +0.000 A 
ATOM     20  C   UNL     1       4.668   6.638  16.845  0.00  0.00    +0.000 A 
ATOM     21  C   UNL     1       4.398   5.288  16.595  0.00  0.00    +0.000 A 
ATOM     22  C   UNL     1       5.220   4.490  15.630  0.00  0.00    +0.000 C 
ATOM     23  C   UNL     1       3.349   4.670  17.278  0.00  0.00    +0.000 A 
ATOM     24  C   UNL     1       2.610   5.376  18.226  0.00  0.00    +0.000 A 
ENDBRANCH  14  18
BRANCH   1  28
ATOM     25  C   UNL     1      -0.248  15.251  18.355  0.00  0.00    +0.000 C 
ATOM     26  C   UNL     1       0.007  14.373  19.552  0.00  0.00    +0.000 C 
ATOM     27  O   UNL     1       0.892  14.616  20.363  0.00  0.00    +0.000 OA
ATOM     28  N   UNL     1      -0.830  13.268  19.579  0.00  0.00    +0.000 N 
ATOM     29  H   UNL     1      -1.077  12.933  18.644  0.00  0.00    +0.000 HD
ENDBRANCH   1  28
TORSDOF 2
ENDMDL
MODEL 4
REMARK VINA RESULT:      -7.6      2.012      7.408
REMARK  Name = 
REMARK  6 active torsions:
REMARK  status: ('A' for Active; 'I' for Inactive)
REMARK    1  A    between atoms: C_1  and  C_2
REMARK    2  A    between atoms: N_4  and  C_5
REMARK    3  A    between atoms: C_6  and  C_7
REMARK    4  A    between atoms: C_9  and  C_10
REMARK    5  A    between atoms: C_18  and  C_19
REMARK    6  A    between atoms: C_22  and  C_23
REMARK                            x       y       z     vdW  Elec       q    Type
REMARK                         _______ _______ _______ _____ _____    ______ ____
ROOT
ATOM      1  C   UNL     1       1.595   8.490  19.872  0.00  0.00    +0.000 A 
ATOM      2  C   UNL     1       1.040   8.042  21.079  0.00  0.00    +0.000 A 
ATOM      3  C   UNL     1       0.284   8.932  22.031  0.00  0.00    +0.000 C 
ATOM      4  C   UNL     1       1.175   6.684  21.432  0.00  0.00    +0.000 A 
ATOM      5  C   UNL     1       1.836   5.752  20.611  0.00  0.00    +0.000 A 
ATOM      6  C   UNL     1       1.948   4.332  21.097  0.00  0.00    +0.000 C 
ATOM      7  C   UNL     1       2.369   6.189  19.388  0.00  0.00    +0.000 A 
ATOM      8  C   UNL     1       2.225   7.558  19.022  0.00  0.00    +0.000 A 
ATOM      9  C   UNL     1       2.817   8.035  17.730  0.00  0.00    +0.000 C 
ATOM     10  O   UNL     1       2.423   9.056  17.178  0.00  0.00    +0.000 OA
ATOM     11  C   UNL     1       3.914   7.189  17.088  0.00  0.00    +0.000 C 
ATOM     12  O   UNL     1       4.752   7.729  16.379  0.00  0.00    +0.000 OA
ATOM     13  C   UNL     1       3.870   5.783  17.380  0.00  0.00    +0.000 A 
ATOM     14  C   UNL     1       4.446   4.624  16.794  0.00  0.00    +0.000 A 
ATOM     15  C   UNL     1       3.979   3.569  17.562  0.00  0.00    +0.000 A 
ATOM     16  O   UNL     1       3.186   4.013  18.578  0.00  0.00    +0.000 OA
ATOM     17  C   UNL     1       3.131   5.361  18.460  0.00  0.00    +0.000 A 
ENDROOT
BRANCH  14  18
ATOM     18  C   UNL     1       5.248   4.465  15.593  0.00  0.00    +0.000 A 
ATOM     19  C   UNL     1       4.744   3.820  14.457  0.00  0.00    +0.000 A 
ATOM     20  C   UNL     1       5.515   3.730  13.292  0.00  0.00    +0.000 A 
ATOM     21  C   UNL     1       6.803   4.277  13.247  0.00  0.00    +0.000 A 
ATOM     22  C   UNL     1       7.627   4.240  11.997  0.00  0.00    +0.000 C 
ATOM     23  C   UNL     1       7.320   4.886  14.392  0.00  0.00    +0.000 A 
ATOM     24  C   UNL     1       6.548   4.987  15.548  0.00  0.00    +0.000 A 
ENDBRANCH  14  18
BRANCH   1  28
ATOM     25  C   UNL     1       0.517  11.904  18.755  0.00  0.00    +0.000 C 
ATOM     26  C   UNL     1       0.363  10.428  19.011  0.00  0.00    +0.000 C 
ATOM     27  O   UNL     1      -0.704   9.848  18.855  0.00  0.00    +0.000 OA
ATOM     28  N   UNL     1       1.534   9.851  19.477  0.00  0.00    +0.000 N 
ATOM     29  H   UNL     1       2.095  10.492  20.046  0.00  0.00    +0.000 HD
ENDBRANCH   1  28
TORSDOF 2
ENDMDL
MODEL 5
REMARK VINA RESULT:      -7.4      3.777      9.276
REMARK  Name = 
REMARK  6 active torsions:
REMARK  status: ('A' for Active; 'I' for Inactive)
REMARK    1  A    between atoms: C_1  and  C_2
REMARK    2  A    between atoms: N_4  and  C_5
REMARK    3  A    between atoms: C_6  and  C_7
REMARK    4  A    between atoms: C_9  and  C_10
REMARK    5  A    between atoms: C_18  and  C_19
REMARK    6  A    between atoms: C_22  and  C_23
REMARK                            x       y       z     vdW  Elec       q    Type
REMARK                         _______ _______ _______ _____ _____    ______ ____
ROOT
ATOM      1  C   UNL     1      -1.526  13.098  22.004  0.00  0.00    +0.000 A 
ATOM      2  C   UNL     1      -1.615  14.341  21.361  0.00  0.00    +0.000 A 
ATOM      3  C   UNL     1      -2.387  15.511  21.910  0.00  0.00    +0.000 C 
ATOM      4  C   UNL     1      -0.940  14.528  20.137  0.00  0.00    +0.000 A 
ATOM      5  C   UNL     1      -0.164  13.517  19.540  0.00  0.00    +0.000 A 
ATOM      6  C   UNL     1       0.491  13.814  18.218  0.00  0.00    +0.000 C 
ATOM      7  C   UNL     1      -0.049  12.280  20.194  0.00  0.00    +0.000 A 
ATOM      8  C   UNL     1      -0.720  12.091  21.435  0.00  0.00    +0.000 A 
ATOM      9  C   UNL     1      -0.621  10.762  22.123  0.00  0.00    +0.000 C 
ATOM     10  O   UNL     1      -0.832  10.641  23.324  0.00  0.00    +0.000 OA
ATOM     11  C   UNL     1      -0.212   9.551  21.289  0.00  0.00    +0.000 C 
ATOM     12  O   UNL     1      -0.593   8.437  21.619  0.00  0.00    +0.000 OA
ATOM     13  C   UNL     1       0.615   9.830  20.147  0.00  0.00    +0.000 A 
ATOM     14  C   UNL     1       1.458   9.049  19.311  0.00  0.00    +0.000 A 
ATOM     15  C   UNL     1       1.985   9.949  18.399  0.00  0.00    +0.000 A 
ATOM     16  O   UNL     1       1.501  11.206  18.612  0.00  0.00    +0.000 OA
ATOM     17  C   UNL     1       0.666  11.120  19.674  0.00  0.00    +0.000 A 
ENDROOT
BRANCH  14  18
ATOM     18  C   UNL     1       1.844   7.650  19.392  0.00  0.00    +0.000 A 
ATOM     19  C   UNL     1       1.759   6.936  20.593  0.00  0.00    +0.000 A 
ATOM     20  C   UNL     1       2.082   5.574  20.633  0.00  0.00    +0.000 A 
ATOM     21  C   UNL     1       2.500   4.908  19.475  0.00  0.00    +0.000 A 
ATOM     22  C   UNL     1       2.800   3.441  19.480  0.00  0.00    +0.000 C 
ATOM     23  C   UNL     1       2.621   5.629  18.286  0.00  0.00    +0.000 A 
ATOM     24  C   UNL     1       2.288   6.982  18.243  0.00  0.00    +0.000 A 
ENDBRANCH  14  18
BRANCH   1  28
ATOM     25  C   UNL     1      -4.046  12.158  24.617  0.00  0.00    +0.000 C 
ATOM     26  C   UNL     1      -3.564  12.505  23.234  0.00  0.00    +0.000 C 
ATOM     27  O   UNL     1      -4.298  12.454  22.255  0.00  0.00    +0.000 OA
ATOM     28  N   UNL     1      -2.215  12.828  23.214  0.00  0.00    +0.000 N 
ATOM     29  H   UNL     1      -1.673  12.315  23.915  0.00  0.00    +0.000 HD
ENDBRANCH   1  28
TORSDOF 2
ENDMDL
MODEL 6
REMARK VINA RESULT:      -7.4      1.994      3.888
REMARK  Name = 
REMARK  6 active torsions:
REMARK  status: ('A' for Active; 'I' for Inactive)
REMARK    1  A    between atoms: C_1  and  C_2
REMARK    2  A    between atoms: N_4  and  C_5
REMARK    3  A    between atoms: C_6  and  C_7
REMARK    4  A    between atoms: C_9  and  C_10
REMARK    5  A    between atoms: C_18  and  C_19
REMARK    6  A    between atoms: C_22  and  C_23
REMARK                            x       y       z     vdW  Elec       q    Type
REMARK                         _______ _______ _______ _____ _____    ______ ____
ROOT
ATOM      1  C   UNL     1       3.133   4.726  19.671  0.00  0.00    +0.000 A 
ATOM      2  C   UNL     1       4.059   4.239  18.737  0.00  0.00    +0.000 A 
ATOM      3  C   UNL     1       4.657   2.859  18.796  0.00  0.00    +0.000 C 
ATOM      4  C   UNL     1       4.452   5.070  17.667  0.00  0.00    +0.000 A 
ATOM      5  C   UNL     1       3.940   6.369  17.491  0.00  0.00    +0.000 A 
ATOM      6  C   UNL     1       4.450   7.181  16.331  0.00  0.00    +0.000 C 
ATOM      7  C   UNL     1       2.992   6.850  18.408  0.00  0.00    +0.000 A 
ATOM      8  C   UNL     1       2.583   6.011  19.483  0.00  0.00    +0.000 A 
ATOM      9  C   UNL     1       1.591   6.531  20.479  0.00  0.00    +0.000 C 
ATOM     10  O   UNL     1       0.922   5.778  21.177  0.00  0.00    +0.000 OA
ATOM     11  C   UNL     1       1.405   8.043  20.584  0.00  0.00    +0.000 C 
ATOM     12  O   UNL     1       1.046   8.533  21.645  0.00  0.00    +0.000 OA
ATOM     13  C   UNL     1       1.677   8.790  19.387  0.00  0.00    +0.000 A 
ATOM     14  C   UNL     1       1.356  10.097  18.931  0.00  0.00    +0.000 A 
ATOM     15  C   UNL     1       1.912  10.178  17.665  0.00  0.00    +0.000 A 
ATOM     16  O   UNL     1       2.562   9.025  17.338  0.00  0.00    +0.000 OA
ATOM     17  C   UNL     1       2.417   8.191  18.394  0.00  0.00    +0.000 A 
ENDROOT
BRANCH  14  18
ATOM     18  C   UNL     1       0.533  11.135  19.528  0.00  0.00    +0.000 A 
ATOM     19  C   UNL     1      -0.832  11.245  19.236  0.00  0.00    +0.000 A 
ATOM     20  C   UNL     1      -1.617  12.218  19.867  0.00  0.00    +0.000 A 
ATOM     21  C   UNL     1      -1.047  13.099  20.794  0.00  0.00    +0.000 A 
ATOM     22  C   UNL     1      -1.876  14.113  21.522  0.00  0.00    +0.000 C 
ATOM     23  C   UNL     1       0.321  13.014  21.057  0.00  0.00    +0.000 A 
ATOM     24  C   UNL     1       1.099  12.037  20.438  0.00  0.00    +0.000 A 
ENDBRANCH  14  18
BRANCH   1  28
ATOM     25  C   UNL     1       1.559   2.241  21.997  0.00  0.00    +0.000 C 
ATOM     26  C   UNL     1       1.742   2.990  20.703  0.00  0.00    +0.000 C 
ATOM     27  O   UNL     1       1.104   2.714  19.695  0.00  0.00    +0.000 OA
ATOM     28  N   UNL     1       2.727   3.961  20.794  0.00  0.00    +0.000 N 
ATOM     29  H   UNL     1       3.481   3.704  21.437  0.00  0.00    +0.000 HD
ENDBRANCH   1  28
TORSDOF 2
ENDMDL
MODEL 7
REMARK VINA RESULT:      -7.2      9.274     10.876
REMARK  Name = 
REMARK  6 active torsions:
REMARK  status: ('A' for Active; 'I' for Inactive)
REMARK    1  A    between atoms: C_1  and  C_2
REMARK    2  A    between atoms: N_4  and  C_5
REMARK    3  A    between atoms: C_6  and  C_7
REMARK    4  A    between atoms: C_9  and  C_10
REMARK    5  A    between atoms: C_18  and  C_19
REMARK    6  A    between atoms: C_22  and  C_23
REMARK                            x       y       z     vdW  Elec       q    Type
REMARK                         _______ _______ _______ _____ _____    ______ ____
ROOT
ATOM      1  C   UNL     1      11.205  14.083  18.699  0.00  0.00    +0.000 A 
ATOM      2  C   UNL     1      11.244  13.080  17.719  0.00  0.00    +0.000 A 
ATOM      3  C   UNL     1      11.952  13.230  16.399  0.00  0.00    +0.000 C 
ATOM      4  C   UNL     1      10.600  11.851  17.973  0.00  0.00    +0.000 A 
ATOM      5  C   UNL     1       9.930  11.584  19.180  0.00  0.00    +0.000 A 
ATOM      6  C   UNL     1       9.251  10.249  19.335  0.00  0.00    +0.000 C 
ATOM      7  C   UNL     1       9.912  12.574  20.176  0.00  0.00    +0.000 A 
ATOM      8  C   UNL     1      10.570  13.812  19.929  0.00  0.00    +0.000 A 
ATOM      9  C   UNL     1      10.531  14.882  20.978  0.00  0.00    +0.000 C 
ATOM     10  O   UNL     1      11.358  15.786  21.009  0.00  0.00    +0.000 OA
ATOM     11  C   UNL     1       9.441  14.802  22.045  0.00  0.00    +0.000 C 
ATOM     12  O   UNL     1       9.039  15.828  22.573  0.00  0.00    +0.000 OA
ATOM     13  C   UNL     1       8.962  13.481  22.349  0.00  0.00    +0.000 A 
ATOM     14  C   UNL     1       8.234  12.908  23.426  0.00  0.00    +0.000 A 
ATOM     15  C   UNL     1       8.121  11.565  23.102  0.00  0.00    +0.000 A 
ATOM     16  O   UNL     1       8.707  11.297  21.900  0.00  0.00    +0.000 OA
ATOM     17  C   UNL     1       9.210  12.471  21.450  0.00  0.00    +0.000 A 
ENDROOT
BRANCH  14  18
ATOM     18  C   UNL     1       7.780  13.485  24.680  0.00  0.00    +0.000 A 
ATOM     19  C   UNL     1       6.588  14.217  24.759  0.00  0.00    +0.000 A 
ATOM     20  C   UNL     1       6.142  14.714  25.990  0.00  0.00    +0.000 A 
ATOM     21  C   UNL     1       6.884  14.494  27.156  0.00  0.00    +0.000 A 
ATOM     22  C   UNL     1       6.402  14.970  28.492  0.00  0.00    +0.000 C 
ATOM     23  C   UNL     1       8.090  13.798  27.071  0.00  0.00    +0.000 A 
ATOM     24  C   UNL     1       8.528  13.292  25.848  0.00  0.00    +0.000 A 
ENDBRANCH  14  18
BRANCH   1  28
ATOM     25  C   UNL     1      11.935  17.636  17.747  0.00  0.00    +0.000 C 
ATOM     26  C   UNL     1      11.171  16.338  17.735  0.00  0.00    +0.000 C 
ATOM     27  O   UNL     1      10.104  16.215  17.148  0.00  0.00    +0.000 OA
ATOM     28  N   UNL     1      11.793  15.357  18.493  0.00  0.00    +0.000 N 
ATOM     29  H   UNL     1      12.297  15.736  19.299  0.00  0.00    +0.000 HD
ENDBRANCH   1  28
TORSDOF 2
ENDMDL
MODEL 8
REMARK VINA RESULT:      -7.1      4.925      9.731
REMARK  Name = 
REMARK  6 active torsions:
REMARK  status: ('A' for Active; 'I' for Inactive)
REMARK    1  A    between atoms: C_1  and  C_2
REMARK    2  A    between atoms: N_4  and  C_5
REMARK    3  A    between atoms: C_6  and  C_7
REMARK    4  A    between atoms: C_9  and  C_10
REMARK    5  A    between atoms: C_18  and  C_19
REMARK    6  A    between atoms: C_22  and  C_23
REMARK                            x       y       z     vdW  Elec       q    Type
REMARK                         _______ _______ _______ _____ _____    ______ ____
ROOT
ATOM      1  C   UNL     1      -4.564  13.469  20.085  0.00  0.00    +0.000 A 
ATOM      2  C   UNL     1      -4.843  14.358  21.134  0.00  0.00    +0.000 A 
ATOM      3  C   UNL     1      -6.042  15.268  21.161  0.00  0.00    +0.000 C 
ATOM      4  C   UNL     1      -3.969  14.406  22.239  0.00  0.00    +0.000 A 
ATOM      5  C   UNL     1      -2.831  13.584  22.340  0.00  0.00    +0.000 A 
ATOM      6  C   UNL     1      -1.950  13.738  23.550  0.00  0.00    +0.000 C 
ATOM      7  C   UNL     1      -2.563  12.673  21.305  0.00  0.00    +0.000 A 
ATOM      8  C   UNL     1      -3.449  12.613  20.192  0.00  0.00    +0.000 A 
ATOM      9  C   UNL     1      -3.153  11.661  19.073  0.00  0.00    +0.000 C 
ATOM     10  O   UNL     1      -4.025  11.282  18.300  0.00  0.00    +0.000 OA
ATOM     11  C   UNL     1      -1.725  11.138  18.935  0.00  0.00    +0.000 C 
ATOM     12  O   UNL     1      -1.307  10.811  17.833  0.00  0.00    +0.000 OA
ATOM     13  C   UNL     1      -0.964  11.073  20.152  0.00  0.00    +0.000 A 
ATOM     14  C   UNL     1       0.220  10.398  20.554  0.00  0.00    +0.000 A 
ATOM     15  C   UNL     1       0.399  10.754  21.881  0.00  0.00    +0.000 A 
ATOM     16  O   UNL     1      -0.576  11.611  22.296  0.00  0.00    +0.000 OA
ATOM     17  C   UNL     1      -1.396  11.801  21.235  0.00  0.00    +0.000 A 
ENDROOT
BRANCH  14  18
ATOM     18  C   UNL     1       1.050   9.436  19.849  0.00  0.00    +0.000 A 
ATOM     19  C   UNL     1       1.445   8.233  20.447  0.00  0.00    +0.000 A 
ATOM     20  C   UNL     1       2.197   7.296  19.728  0.00  0.00    +0.000 A 
ATOM     21  C   UNL     1       2.571   7.551  18.404  0.00  0.00    +0.000 A 
ATOM     22  C   UNL     1       3.330   6.542  17.597  0.00  0.00    +0.000 C 
ATOM     23  C   UNL     1       2.211   8.766  17.820  0.00  0.00    +0.000 A 
ATOM     24  C   UNL     1       1.452   9.693  18.532  0.00  0.00    +0.000 A 
ENDBRANCH  14  18
BRANCH   1  28
ATOM     25  C   UNL     1      -7.321  12.894  17.608  0.00  0.00    +0.000 C 
ATOM     26  C   UNL     1      -6.595  12.740  18.919  0.00  0.00    +0.000 C 
ATOM     27  O   UNL     1      -7.078  12.130  19.864  0.00  0.00    +0.000 OA
ATOM     28  N   UNL     1      -5.376  13.401  18.924  0.00  0.00    +0.000 N 
ATOM     29  H   UNL     1      -5.381  14.249  18.349  0.00  0.00    +0.000 HD
ENDBRANCH   1  28
TORSDOF 2
ENDMDL
MODEL 9
REMARK VINA RESULT:      -7.0      5.212     10.342
REMARK  Name = 
REMARK  6 active torsions:
REMARK  status: ('A' for Active; 'I' for Inactive)
REMARK    1  A    between atoms: C_1  and  C_2
REMARK    2  A    between atoms: N_4  and  C_5
REMARK    3  A    between atoms: C_6  and  C_7
REMARK    4  A    between atoms: C_9  and  C_10
REMARK    5  A    between atoms: C_18  and  C_19
REMARK    6  A    between atoms: C_22  and  C_23
REMARK                            x       y       z     vdW  Elec       q    Type
REMARK                         _______ _______ _______ _____ _____    ______ ____
ROOT
ATOM      1  C   UNL     1      -2.802  14.987  22.776  0.00  0.00    +0.000 A 
ATOM      2  C   UNL     1      -4.117  15.427  22.564  0.00  0.00    +0.000 A 
ATOM      3  C   UNL     1      -4.770  16.522  23.365  0.00  0.00    +0.000 C 
ATOM      4  C   UNL     1      -4.880  14.831  21.540  0.00  0.00    +0.000 A 
ATOM      5  C   UNL     1      -4.369  13.818  20.708  0.00  0.00    +0.000 A 
ATOM      6  C   UNL     1      -5.281  13.230  19.664  0.00  0.00    +0.000 C 
ATOM      7  C   UNL     1      -3.044  13.394  20.897  0.00  0.00    +0.000 A 
ATOM      8  C   UNL     1      -2.266  14.000  21.923  0.00  0.00    +0.000 A 
ATOM      9  C   UNL     1      -0.859  13.532  22.147  0.00  0.00    +0.000 C 
ATOM     10  O   UNL     1      -0.030  14.230  22.718  0.00  0.00    +0.000 OA
ATOM     11  C   UNL     1      -0.467  12.158  21.609  0.00  0.00    +0.000 C 
ATOM     12  O   UNL     1       0.421  11.526  22.163  0.00  0.00    +0.000 OA
ATOM     13  C   UNL     1      -1.198  11.707  20.457  0.00  0.00    +0.000 A 
ATOM     14  C   UNL     1      -0.987  10.706  19.470  0.00  0.00    +0.000 A 
ATOM     15  C   UNL     1      -2.077  10.810  18.621  0.00  0.00    +0.000 A 
ATOM     16  O   UNL     1      -2.937  11.782  19.040  0.00  0.00    +0.000 OA
ATOM     17  C   UNL     1      -2.394  12.317  20.159  0.00  0.00    +0.000 A 
ENDROOT
BRANCH  14  18
ATOM     18  C   UNL     1       0.140   9.817  19.245  0.00  0.00    +0.000 A 
ATOM     19  C   UNL     1       0.631   8.986  20.259  0.00  0.00    +0.000 A 
ATOM     20  C   UNL     1       1.681   8.096  20.002  0.00  0.00    +0.000 A 
ATOM     21  C   UNL     1       2.260   8.029  18.729  0.00  0.00    +0.000 A 
ATOM     22  C   UNL     1       3.348   7.049  18.415  0.00  0.00    +0.000 C 
ATOM     23  C   UNL     1       1.795   8.884  17.728  0.00  0.00    +0.000 A 
ATOM     24  C   UNL     1       0.742   9.761  17.981  0.00  0.00    +0.000 A 
ENDBRANCH  14  18
BRANCH   1  28
ATOM     25  C   UNL     1      -1.153  15.770  26.052  0.00  0.00    +0.000 C 
ATOM     26  C   UNL     1      -2.198  15.174  25.146  0.00  0.00    +0.000 C 
ATOM     27  O   UNL     1      -3.085  14.442  25.566  0.00  0.00    +0.000 OA
ATOM     28  N   UNL     1      -1.994  15.512  23.817  0.00  0.00    +0.000 N 
ATOM     29  H   UNL     1      -1.003  15.622  23.582  0.00  0.00    +0.000 HD
ENDBRANCH   1  28
TORSDOF 2
ENDMDL
