MODEL 1
REMARK VINA RESULT:      -9.2      0.000      0.000
REMARK  Name = 
REMARK  8 active torsions:
REMARK  status: ('A' for Active; 'I' for Inactive)
REMARK    1  A    between atoms: C_1  and  N_2
REMARK    2  A    between atoms: C_3  and  C_5
REMARK    3  A    between atoms: C_7  and  O_8
REMARK    4  A    between atoms: O_8  and  C_9
REMARK    5  A    between atoms: C_12  and  N_13
REMARK    6  A    between atoms: C_14  and  C_16
REMARK    7  A    between atoms: C_18  and  C_19
REMARK    8  A    between atoms: C_24  and  C_25
REMARK                            x       y       z     vdW  Elec       q    Type
REMARK                         _______ _______ _______ _____ _____    ______ ____
ROOT
ATOM      1  C   UNL     1       3.248   5.593  18.553  0.00  0.00    +0.000 A 
ATOM      2  C   UNL     1       2.543   5.512  19.749  0.00  0.00    +0.000 A 
ATOM      3  C   UNL     1       1.877   6.632  20.252  0.00  0.00    +0.000 A 
ATOM      4  C   UNL     1       1.906   7.848  19.562  0.00  0.00    +0.000 A 
ATOM      5  C   UNL     1       2.586   7.918  18.343  0.00  0.00    +0.000 A 
ATOM      6  C   UNL     1       3.290   6.807  17.863  0.00  0.00    +0.000 A 
ENDROOT
BRANCH   4   7
ATOM      7  N   UNL     1       1.271   9.017  20.040  0.00  0.00    +0.000 N 
ATOM      8  C   UNL     1       0.518   9.876  19.261  0.00  0.00    +0.000 C 
ATOM      9  O   UNL     1       0.190   9.679  18.092  0.00  0.00    +0.000 OA
ATOM     10  H   UNL     1       1.346   9.188  21.032  0.00  0.00    +0.000 HD
BRANCH   8  11
ATOM     11  C   UNL     1       0.082  11.158  19.876  0.00  0.00    +0.000 A 
ATOM     12  C   UNL     1       0.482  12.330  19.211  0.00  0.00    +0.000 A 
ATOM     13  C   UNL     1       0.189  13.596  19.727  0.00  0.00    +0.000 A 
ATOM     14  C   UNL     1      -0.555  13.681  20.913  0.00  0.00    +0.000 A 
ATOM     15  C   UNL     1      -0.981  12.524  21.588  0.00  0.00    +0.000 A 
ATOM     16  C   UNL     1      -0.662  11.257  21.056  0.00  0.00    +0.000 A 
BRANCH  13  17
ATOM     17  C   UNL     1       0.711  14.840  19.048  0.00  0.00    +0.000 C 
ATOM     18  F   UNL     1      -0.216  15.472  18.276  0.00  0.00    +0.000 F 
ATOM     19  F   UNL     1       1.165  15.768  19.931  0.00  0.00    +0.000 F 
ATOM     20  F   UNL     1       1.756  14.563  18.220  0.00  0.00    +0.000 F 
ENDBRANCH  13  17
BRANCH  15  21
ATOM     21  C   UNL     1      -1.743  12.625  22.891  0.00  0.00    +0.000 C 
ATOM     22  F   UNL     1      -1.137  13.420  23.816  0.00  0.00    +0.000 F 
ATOM     23  F   UNL     1      -2.996  13.126  22.725  0.00  0.00    +0.000 F 
ATOM     24  F   UNL     1      -1.900  11.411  23.485  0.00  0.00    +0.000 F 
ENDBRANCH  15  21
ENDBRANCH   8  11
ENDBRANCH   4   7
BRANCH   1  25
ATOM     25  O   UNL     1       3.918   4.447  18.188  0.00  0.00    +0.000 OA
BRANCH  25  28
ATOM     26  C   UNL     1       6.692   4.553  15.796  0.00  0.00    +0.000 A 
ATOM     27  C   UNL     1       5.388   4.429  16.241  0.00  0.00    +0.000 A 
ATOM     28  C   UNL     1       5.161   4.527  17.608  0.00  0.00    +0.000 A 
ATOM     29  C   UNL     1       6.239   4.648  18.479  0.00  0.00    +0.000 A 
ATOM     30  C   UNL     1       7.512   4.729  17.943  0.00  0.00    +0.000 A 
ATOM     31  N   UNL     1       7.771   4.700  16.616  0.00  0.00    +0.000 NA
BRANCH  26  34
ATOM     32  C   UNL     1       6.439   3.463  12.188  0.00  0.00    +0.000 C 
ATOM     33  N   UNL     1       6.283   3.596  13.609  0.00  0.00    +0.000 N 
ATOM     34  C   UNL     1       6.955   4.566  14.322  0.00  0.00    +0.000 C 
ATOM     35  O   UNL     1       7.720   5.375  13.815  0.00  0.00    +0.000 OA
ATOM     36  H   UNL     1       5.688   2.964  14.139  0.00  0.00    +0.000 HD
ENDBRANCH  26  34
ENDBRANCH  25  28
ENDBRANCH   1  25
TORSDOF 7
ENDMDL
MODEL 2
REMARK VINA RESULT:      -9.2      5.539     11.016
REMARK  Name = 
REMARK  8 active torsions:
REMARK  status: ('A' for Active; 'I' for Inactive)
REMARK    1  A    between atoms: C_1  and  N_2
REMARK    2  A    between atoms: C_3  and  C_5
REMARK    3  A    between atoms: C_7  and  O_8
REMARK    4  A    between atoms: O_8  and  C_9
REMARK    5  A    between atoms: C_12  and  N_13
REMARK    6  A    between atoms: C_14  and  C_16
REMARK    7  A    between atoms: C_18  and  C_19
REMARK    8  A    between atoms: C_24  and  C_25
REMARK                            x       y       z     vdW  Elec       q    Type
REMARK                         _______ _______ _______ _____ _____    ______ ____
ROOT
ATOM      1  C   UNL     1      -0.756  11.357  22.465  0.00  0.00    +0.000 A 
ATOM      2  C   UNL     1       0.009  11.487  21.311  0.00  0.00    +0.000 A 
ATOM      3  C   UNL     1       0.744  10.403  20.828  0.00  0.00    +0.000 A 
ATOM      4  C   UNL     1       0.723   9.173  21.492  0.00  0.00    +0.000 A 
ATOM      5  C   UNL     1      -0.074   9.035  22.632  0.00  0.00    +0.000 A 
ATOM      6  C   UNL     1      -0.775  10.135  23.141  0.00  0.00    +0.000 A 
ENDROOT
BRANCH   4   7
ATOM      7  N   UNL     1       1.468   8.053  21.060  0.00  0.00    +0.000 N 
ATOM      8  C   UNL     1       1.903   7.851  19.763  0.00  0.00    +0.000 C 
ATOM      9  O   UNL     1       1.818   8.666  18.846  0.00  0.00    +0.000 OA
ATOM     10  H   UNL     1       1.733   7.393  21.777  0.00  0.00    +0.000 HD
BRANCH   8  11
ATOM     11  C   UNL     1       2.506   6.531  19.437  0.00  0.00    +0.000 A 
ATOM     12  C   UNL     1       3.414   6.515  18.364  0.00  0.00    +0.000 A 
ATOM     13  C   UNL     1       3.997   5.324  17.921  0.00  0.00    +0.000 A 
ATOM     14  C   UNL     1       3.689   4.135  18.599  0.00  0.00    +0.000 A 
ATOM     15  C   UNL     1       2.797   4.127  19.686  0.00  0.00    +0.000 A 
ATOM     16  C   UNL     1       2.211   5.339  20.105  0.00  0.00    +0.000 A 
BRANCH  13  17
ATOM     17  C   UNL     1       4.894   5.314  16.707  0.00  0.00    +0.000 C 
ATOM     18  F   UNL     1       4.736   6.400  15.901  0.00  0.00    +0.000 F 
ATOM     19  F   UNL     1       6.213   5.270  17.029  0.00  0.00    +0.000 F 
ATOM     20  F   UNL     1       4.662   4.229  15.916  0.00  0.00    +0.000 F 
ENDBRANCH  13  17
BRANCH  15  21
ATOM     21  C   UNL     1       2.435   2.833  20.380  0.00  0.00    +0.000 C 
ATOM     22  F   UNL     1       2.937   2.732  21.641  0.00  0.00    +0.000 F 
ATOM     23  F   UNL     1       1.091   2.660  20.492  0.00  0.00    +0.000 F 
ATOM     24  F   UNL     1       2.898   1.746  19.703  0.00  0.00    +0.000 F 
ENDBRANCH  15  21
ENDBRANCH   8  11
ENDBRANCH   4   7
BRANCH   1  25
ATOM     25  O   UNL     1      -1.386  12.507  22.884  0.00  0.00    +0.000 OA
BRANCH  25  28
ATOM     26  C   UNL     1      -4.879  12.701  21.795  0.00  0.00    +0.000 A 
ATOM     27  C   UNL     1      -3.502  12.632  21.677  0.00  0.00    +0.000 A 
ATOM     28  C   UNL     1      -2.756  12.598  22.848  0.00  0.00    +0.000 A 
ATOM     29  C   UNL     1      -3.395  12.728  24.078  0.00  0.00    +0.000 A 
ATOM     30  C   UNL     1      -4.775  12.827  24.093  0.00  0.00    +0.000 A 
ATOM     31  N   UNL     1      -5.543  12.802  22.981  0.00  0.00    +0.000 NA
BRANCH  26  34
ATOM     32  C   UNL     1      -5.654  12.331  18.116  0.00  0.00    +0.000 C 
ATOM     33  N   UNL     1      -5.003  12.413  19.394  0.00  0.00    +0.000 N 
ATOM     34  C   UNL     1      -5.715  12.624  20.555  0.00  0.00    +0.000 C 
ATOM     35  O   UNL     1      -6.931  12.755  20.593  0.00  0.00    +0.000 OA
ATOM     36  H   UNL     1      -3.992  12.339  19.480  0.00  0.00    +0.000 HD
ENDBRANCH  26  34
ENDBRANCH  25  28
ENDBRANCH   1  25
TORSDOF 7
ENDMDL
MODEL 3
REMARK VINA RESULT:      -9.2      5.587     11.138
REMARK  Name = 
REMARK  8 active torsions:
REMARK  status: ('A' for Active; 'I' for Inactive)
REMARK    1  A    between atoms: C_1  and  N_2
REMARK    2  A    between atoms: C_3  and  C_5
REMARK    3  A    between atoms: C_7  and  O_8
REMARK    4  A    between atoms: O_8  and  C_9
REMARK    5  A    between atoms: C_12  and  N_13
REMARK    6  A    between atoms: C_14  and  C_16
REMARK    7  A    between atoms: C_18  and  C_19
REMARK    8  A    between atoms: C_24  and  C_25
REMARK                            x       y       z     vdW  Elec       q    Type
REMARK                         _______ _______ _______ _____ _____    ______ ____
ROOT
ATOM      1  C   UNL     1      -0.138  11.433  20.883  0.00  0.00    +0.000 A 
ATOM      2  C   UNL     1       0.393  11.413  19.598  0.00  0.00    +0.000 A 
ATOM      3  C   UNL     1       1.067  10.282  19.132  0.00  0.00    +0.000 A 
ATOM      4  C   UNL     1       1.216   9.154  19.946  0.00  0.00    +0.000 A 
ATOM      5  C   UNL     1       0.650   9.164  21.224  0.00  0.00    +0.000 A 
ATOM      6  C   UNL     1       0.015  10.315  21.706  0.00  0.00    +0.000 A 
ENDROOT
BRANCH   4   7
ATOM      7  N   UNL     1       1.910   7.995  19.532  0.00  0.00    +0.000 N 
ATOM      8  C   UNL     1       2.426   7.798  18.265  0.00  0.00    +0.000 C 
ATOM      9  O   UNL     1       2.470   8.643  17.372  0.00  0.00    +0.000 OA
ATOM     10  H   UNL     1       2.071   7.298  20.244  0.00  0.00    +0.000 HD
BRANCH   8  11
ATOM     11  C   UNL     1       2.957   6.448  17.940  0.00  0.00    +0.000 A 
ATOM     12  C   UNL     1       4.163   6.414  17.220  0.00  0.00    +0.000 A 
ATOM     13  C   UNL     1       4.728   5.206  16.799  0.00  0.00    +0.000 A 
ATOM     14  C   UNL     1       4.084   4.009  17.147  0.00  0.00    +0.000 A 
ATOM     15  C   UNL     1       2.885   4.015  17.882  0.00  0.00    +0.000 A 
ATOM     16  C   UNL     1       2.327   5.247  18.283  0.00  0.00    +0.000 A 
BRANCH  13  17
ATOM     17  C   UNL     1       5.972   5.197  15.945  0.00  0.00    +0.000 C 
ATOM     18  F   UNL     1       7.017   5.878  16.491  0.00  0.00    +0.000 F 
ATOM     19  F   UNL     1       6.427   3.941  15.693  0.00  0.00    +0.000 F 
ATOM     20  F   UNL     1       5.753   5.769  14.728  0.00  0.00    +0.000 F 
ENDBRANCH  13  17
BRANCH  15  21
ATOM     21  C   UNL     1       2.174   2.721  18.212  0.00  0.00    +0.000 C 
ATOM     22  F   UNL     1       2.360   1.745  17.282  0.00  0.00    +0.000 F 
ATOM     23  F   UNL     1       2.575   2.194  19.400  0.00  0.00    +0.000 F 
ATOM     24  F   UNL     1       0.827   2.892  18.313  0.00  0.00    +0.000 F 
ENDBRANCH  15  21
ENDBRANCH   8  11
ENDBRANCH   4   7
BRANCH   1  25
ATOM     25  O   UNL     1      -0.723  12.622  21.258  0.00  0.00    +0.000 OA
BRANCH  25  28
ATOM     26  C   UNL     1      -4.367  12.647  21.649  0.00  0.00    +0.000 A 
ATOM     27  C   UNL     1      -3.148  12.661  20.993  0.00  0.00    +0.000 A 
ATOM     28  C   UNL     1      -1.997  12.636  21.771  0.00  0.00    +0.000 A 
ATOM     29  C   UNL     1      -2.100  12.693  23.158  0.00  0.00    +0.000 A 
ATOM     30  C   UNL     1      -3.363  12.712  23.723  0.00  0.00    +0.000 A 
ATOM     31  N   UNL     1      -4.508  12.675  23.005  0.00  0.00    +0.000 NA
BRANCH  26  34
ATOM     32  C   UNL     1      -7.711  11.306  20.516  0.00  0.00    +0.000 C 
ATOM     33  N   UNL     1      -6.472  11.538  21.205  0.00  0.00    +0.000 N 
ATOM     34  C   UNL     1      -5.622  12.559  20.838  0.00  0.00    +0.000 C 
ATOM     35  O   UNL     1      -5.847  13.334  19.919  0.00  0.00    +0.000 OA
ATOM     36  H   UNL     1      -6.172  10.942  21.972  0.00  0.00    +0.000 HD
ENDBRANCH  26  34
ENDBRANCH  25  28
ENDBRANCH   1  25
TORSDOF 7
ENDMDL
MODEL 4
REMARK VINA RESULT:      -9.1      5.545     11.032
REMARK  Name = 
REMARK  8 active torsions:
REMARK  status: ('A' for Active; 'I' for Inactive)
REMARK    1  A    between atoms: C_1  and  N_2
REMARK    2  A    between atoms: C_3  and  C_5
REMARK    3  A    between atoms: C_7  and  O_8
REMARK    4  A    between atoms: O_8  and  C_9
REMARK    5  A    between atoms: C_12  and  N_13
REMARK    6  A    between atoms: C_14  and  C_16
REMARK    7  A    between atoms: C_18  and  C_19
REMARK    8  A    between atoms: C_24  and  C_25
REMARK                            x       y       z     vdW  Elec       q    Type
REMARK                         _______ _______ _______ _____ _____    ______ ____
ROOT
ATOM      1  C   UNL     1      -0.491  11.308  22.094  0.00  0.00    +0.000 A 
ATOM      2  C   UNL     1       0.112  11.495  20.855  0.00  0.00    +0.000 A 
ATOM      3  C   UNL     1       0.800  10.446  20.240  0.00  0.00    +0.000 A 
ATOM      4  C   UNL     1       0.892   9.195  20.857  0.00  0.00    +0.000 A 
ATOM      5  C   UNL     1       0.256   8.999  22.086  0.00  0.00    +0.000 A 
ATOM      6  C   UNL     1      -0.395  10.063  22.722  0.00  0.00    +0.000 A 
ENDROOT
BRANCH   4   7
ATOM      7  N   UNL     1       1.597   8.109  20.291  0.00  0.00    +0.000 N 
ATOM      8  C   UNL     1       2.052   8.062  18.986  0.00  0.00    +0.000 C 
ATOM      9  O   UNL     1       2.025   8.996  18.186  0.00  0.00    +0.000 OA
ATOM     10  H   UNL     1       1.815   7.348  20.917  0.00  0.00    +0.000 HD
BRANCH   8  11
ATOM     11  C   UNL     1       2.604   6.771  18.496  0.00  0.00    +0.000 A 
ATOM     12  C   UNL     1       3.715   6.860  17.639  0.00  0.00    +0.000 A 
ATOM     13  C   UNL     1       4.282   5.720  17.061  0.00  0.00    +0.000 A 
ATOM     14  C   UNL     1       3.744   4.466  17.386  0.00  0.00    +0.000 A 
ATOM     15  C   UNL     1       2.644   4.349  18.254  0.00  0.00    +0.000 A 
ATOM     16  C   UNL     1       2.080   5.514  18.814  0.00  0.00    +0.000 A 
BRANCH  13  17
ATOM     17  C   UNL     1       5.412   5.844  16.068  0.00  0.00    +0.000 C 
ATOM     18  F   UNL     1       5.111   6.620  14.990  0.00  0.00    +0.000 F 
ATOM     19  F   UNL     1       6.536   6.377  16.617  0.00  0.00    +0.000 F 
ATOM     20  F   UNL     1       5.777   4.633  15.563  0.00  0.00    +0.000 F 
ENDBRANCH  13  17
BRANCH  15  21
ATOM     21  C   UNL     1       2.041   2.996  18.562  0.00  0.00    +0.000 C 
ATOM     22  F   UNL     1       2.529   1.992  17.783  0.00  0.00    +0.000 F 
ATOM     23  F   UNL     1       2.251   2.612  19.850  0.00  0.00    +0.000 F 
ATOM     24  F   UNL     1       0.692   2.987  18.383  0.00  0.00    +0.000 F 
ENDBRANCH  15  21
ENDBRANCH   8  11
ENDBRANCH   4   7
BRANCH   1  25
ATOM     25  O   UNL     1      -1.084  12.427  22.633  0.00  0.00    +0.000 OA
BRANCH  25  28
ATOM     26  C   UNL     1      -4.676  12.643  21.941  0.00  0.00    +0.000 A 
ATOM     27  C   UNL     1      -3.319  12.606  21.672  0.00  0.00    +0.000 A 
ATOM     28  C   UNL     1      -2.451  12.497  22.751  0.00  0.00    +0.000 A 
ATOM     29  C   UNL     1      -2.955  12.524  24.048  0.00  0.00    +0.000 A 
ATOM     30  C   UNL     1      -4.326  12.598  24.218  0.00  0.00    +0.000 A 
ATOM     31  N   UNL     1      -5.209  12.643  23.196  0.00  0.00    +0.000 NA
BRANCH  26  34
ATOM     32  C   UNL     1      -7.430  11.379  19.685  0.00  0.00    +0.000 C 
ATOM     33  N   UNL     1      -6.461  11.539  20.733  0.00  0.00    +0.000 N 
ATOM     34  C   UNL     1      -5.640  12.645  20.795  0.00  0.00    +0.000 C 
ATOM     35  O   UNL     1      -5.668  13.560  19.984  0.00  0.00    +0.000 OA
ATOM     36  H   UNL     1      -6.334  10.830  21.451  0.00  0.00    +0.000 HD
ENDBRANCH  26  34
ENDBRANCH  25  28
ENDBRANCH   1  25
TORSDOF 7
ENDMDL
MODEL 5
REMARK VINA RESULT:      -9.1      5.643     11.481
REMARK  Name = 
REMARK  8 active torsions:
REMARK  status: ('A' for Active; 'I' for Inactive)
REMARK    1  A    between atoms: C_1  and  N_2
REMARK    2  A    between atoms: C_3  and  C_5
REMARK    3  A    between atoms: C_7  and  O_8
REMARK    4  A    between atoms: O_8  and  C_9
REMARK    5  A    between atoms: C_12  and  N_13
REMARK    6  A    between atoms: C_14  and  C_16
REMARK    7  A    between atoms: C_18  and  C_19
REMARK    8  A    between atoms: C_24  and  C_25
REMARK                            x       y       z     vdW  Elec       q    Type
REMARK                         _______ _______ _______ _____ _____    ______ ____
ROOT
ATOM      1  C   UNL     1      -0.286  11.224  21.512  0.00  0.00    +0.000 A 
ATOM      2  C   UNL     1       0.261  11.304  20.236  0.00  0.00    +0.000 A 
ATOM      3  C   UNL     1       0.938  10.210  19.691  0.00  0.00    +0.000 A 
ATOM      4  C   UNL     1       1.076   9.023  20.416  0.00  0.00    +0.000 A 
ATOM      5  C   UNL     1       0.495   8.934  21.684  0.00  0.00    +0.000 A 
ATOM      6  C   UNL     1      -0.144  10.045  22.247  0.00  0.00    +0.000 A 
ENDROOT
BRANCH   4   7
ATOM      7  N   UNL     1       1.773   7.897  19.921  0.00  0.00    +0.000 N 
ATOM      8  C   UNL     1       2.303   7.799  18.648  0.00  0.00    +0.000 C 
ATOM      9  O   UNL     1       2.357   8.710  17.823  0.00  0.00    +0.000 OA
ATOM     10  H   UNL     1       1.926   7.147  20.579  0.00  0.00    +0.000 HD
BRANCH   8  11
ATOM     11  C   UNL     1       2.836   6.476  18.225  0.00  0.00    +0.000 A 
ATOM     12  C   UNL     1       4.034   6.498  17.491  0.00  0.00    +0.000 A 
ATOM     13  C   UNL     1       4.599   5.325  16.982  0.00  0.00    +0.000 A 
ATOM     14  C   UNL     1       3.964   4.103  17.254  0.00  0.00    +0.000 A 
ATOM     15  C   UNL     1       2.774   4.053  18.001  0.00  0.00    +0.000 A 
ATOM     16  C   UNL     1       2.216   5.251  18.492  0.00  0.00    +0.000 A 
BRANCH  13  17
ATOM     17  C   UNL     1       5.832   5.381  16.114  0.00  0.00    +0.000 C 
ATOM     18  F   UNL     1       6.725   6.338  16.492  0.00  0.00    +0.000 F 
ATOM     19  F   UNL     1       6.518   4.208  16.100  0.00  0.00    +0.000 F 
ATOM     20  F   UNL     1       5.525   5.654  14.815  0.00  0.00    +0.000 F 
ENDBRANCH  13  17
BRANCH  15  21
ATOM     21  C   UNL     1       2.073   2.735  18.249  0.00  0.00    +0.000 C 
ATOM     22  F   UNL     1       0.716   2.840  18.293  0.00  0.00    +0.000 F 
ATOM     23  F   UNL     1       2.350   1.809  17.293  0.00  0.00    +0.000 F 
ATOM     24  F   UNL     1       2.444   2.176  19.433  0.00  0.00    +0.000 F 
ENDBRANCH  15  21
ENDBRANCH   8  11
ENDBRANCH   4   7
BRANCH   1  25
ATOM     25  O   UNL     1      -0.873  12.381  21.972  0.00  0.00    +0.000 OA
BRANCH  25  28
ATOM     26  C   UNL     1      -4.474  12.729  22.557  0.00  0.00    +0.000 A 
ATOM     27  C   UNL     1      -3.146  12.477  22.853  0.00  0.00    +0.000 A 
ATOM     28  C   UNL     1      -2.224  12.580  21.820  0.00  0.00    +0.000 A 
ATOM     29  C   UNL     1      -2.665  12.834  20.524  0.00  0.00    +0.000 A 
ATOM     30  C   UNL     1      -4.018  13.038  20.319  0.00  0.00    +0.000 A 
ATOM     31  N   UNL     1      -4.941  13.008  21.307  0.00  0.00    +0.000 NA
BRANCH  26  34
ATOM     32  C   UNL     1      -7.652  13.612  24.398  0.00  0.00    +0.000 C 
ATOM     33  N   UNL     1      -6.604  13.487  23.424  0.00  0.00    +0.000 N 
ATOM     34  C   UNL     1      -5.474  12.738  23.671  0.00  0.00    +0.000 C 
ATOM     35  O   UNL     1      -5.274  12.132  24.715  0.00  0.00    +0.000 OA
ATOM     36  H   UNL     1      -6.653  13.965  22.528  0.00  0.00    +0.000 HD
ENDBRANCH  26  34
ENDBRANCH  25  28
ENDBRANCH   1  25
TORSDOF 7
ENDMDL
MODEL 6
REMARK VINA RESULT:      -9.1      0.360      3.021
REMARK  Name = 
REMARK  8 active torsions:
REMARK  status: ('A' for Active; 'I' for Inactive)
REMARK    1  A    between atoms: C_1  and  N_2
REMARK    2  A    between atoms: C_3  and  C_5
REMARK    3  A    between atoms: C_7  and  O_8
REMARK    4  A    between atoms: O_8  and  C_9
REMARK    5  A    between atoms: C_12  and  N_13
REMARK    6  A    between atoms: C_14  and  C_16
REMARK    7  A    between atoms: C_18  and  C_19
REMARK    8  A    between atoms: C_24  and  C_25
REMARK                            x       y       z     vdW  Elec       q    Type
REMARK                         _______ _______ _______ _____ _____    ______ ____
ROOT
ATOM      1  C   UNL     1       3.123   5.859  18.490  0.00  0.00    +0.000 A 
ATOM      2  C   UNL     1       2.480   5.834  19.723  0.00  0.00    +0.000 A 
ATOM      3  C   UNL     1       1.884   6.992  20.229  0.00  0.00    +0.000 A 
ATOM      4  C   UNL     1       1.922   8.189  19.507  0.00  0.00    +0.000 A 
ATOM      5  C   UNL     1       2.539   8.202  18.253  0.00  0.00    +0.000 A 
ATOM      6  C   UNL     1       3.175   7.053  17.767  0.00  0.00    +0.000 A 
ENDROOT
BRANCH   4   7
ATOM      7  N   UNL     1       1.358   9.393  19.986  0.00  0.00    +0.000 N 
ATOM      8  C   UNL     1       0.469  10.180  19.277  0.00  0.00    +0.000 C 
ATOM      9  O   UNL     1      -0.049   9.883  18.202  0.00  0.00    +0.000 OA
ATOM     10  H   UNL     1       1.596   9.648  20.933  0.00  0.00    +0.000 HD
BRANCH   8  11
ATOM     11  C   UNL     1       0.122  11.509  19.847  0.00  0.00    +0.000 A 
ATOM     12  C   UNL     1      -0.588  11.496  21.059  0.00  0.00    +0.000 A 
ATOM     13  C   UNL     1      -1.028  12.680  21.659  0.00  0.00    +0.000 A 
ATOM     14  C   UNL     1      -0.709  13.900  21.046  0.00  0.00    +0.000 A 
ATOM     15  C   UNL     1       0.015  13.941  19.841  0.00  0.00    +0.000 A 
ATOM     16  C   UNL     1       0.436  12.734  19.247  0.00  0.00    +0.000 A 
BRANCH  13  17
ATOM     17  C   UNL     1      -1.873  12.638  22.909  0.00  0.00    +0.000 C 
ATOM     18  F   UNL     1      -1.377  13.390  23.931  0.00  0.00    +0.000 F 
ATOM     19  F   UNL     1      -3.143  13.073  22.700  0.00  0.00    +0.000 F 
ATOM     20  F   UNL     1      -1.984  11.373  23.402  0.00  0.00    +0.000 F 
ENDBRANCH  13  17
BRANCH  15  21
ATOM     21  C   UNL     1       0.313  15.260  19.163  0.00  0.00    +0.000 C 
ATOM     22  F   UNL     1       1.543  15.309  18.581  0.00  0.00    +0.000 F 
ATOM     23  F   UNL     1      -0.582  15.556  18.183  0.00  0.00    +0.000 F 
ATOM     24  F   UNL     1       0.270  16.303  20.037  0.00  0.00    +0.000 F 
ENDBRANCH  15  21
ENDBRANCH   8  11
ENDBRANCH   4   7
BRANCH   1  25
ATOM     25  O   UNL     1       3.730   4.679  18.121  0.00  0.00    +0.000 OA
BRANCH  25  28
ATOM     26  C   UNL     1       6.588   4.624  15.829  0.00  0.00    +0.000 A 
ATOM     27  C   UNL     1       5.264   4.573  16.228  0.00  0.00    +0.000 A 
ATOM     28  C   UNL     1       4.995   4.689  17.585  0.00  0.00    +0.000 A 
ATOM     29  C   UNL     1       6.046   4.756  18.494  0.00  0.00    +0.000 A 
ATOM     30  C   UNL     1       7.340   4.765  18.003  0.00  0.00    +0.000 A 
ATOM     31  N   UNL     1       7.644   4.717  16.687  0.00  0.00    +0.000 NA
BRANCH  26  34
ATOM     32  C   UNL     1       6.424   3.514  12.222  0.00  0.00    +0.000 C 
ATOM     33  N   UNL     1       6.223   3.664  13.636  0.00  0.00    +0.000 N 
ATOM     34  C   UNL     1       6.903   4.616  14.365  0.00  0.00    +0.000 C 
ATOM     35  O   UNL     1       7.714   5.394  13.880  0.00  0.00    +0.000 OA
ATOM     36  H   UNL     1       5.588   3.058  14.148  0.00  0.00    +0.000 HD
ENDBRANCH  26  34
ENDBRANCH  25  28
ENDBRANCH   1  25
TORSDOF 7
ENDMDL
MODEL 7
REMARK VINA RESULT:      -9.0      5.658     11.825
REMARK  Name = 
REMARK  8 active torsions:
REMARK  status: ('A' for Active; 'I' for Inactive)
REMARK    1  A    between atoms: C_1  and  N_2
REMARK    2  A    between atoms: C_3  and  C_5
REMARK    3  A    between atoms: C_7  and  O_8
REMARK    4  A    between atoms: O_8  and  C_9
REMARK    5  A    between atoms: C_12  and  N_13
REMARK    6  A    between atoms: C_14  and  C_16
REMARK    7  A    between atoms: C_18  and  C_19
REMARK    8  A    between atoms: C_24  and  C_25
REMARK                            x       y       z     vdW  Elec       q    Type
REMARK                         _______ _______ _______ _____ _____    ______ ____
ROOT
ATOM      1  C   UNL     1      -0.308  10.840  22.023  0.00  0.00    +0.000 A 
ATOM      2  C   UNL     1       0.493  11.130  20.924  0.00  0.00    +0.000 A 
ATOM      3  C   UNL     1       1.187  10.110  20.270  0.00  0.00    +0.000 A 
ATOM      4  C   UNL     1       1.088   8.785  20.706  0.00  0.00    +0.000 A 
ATOM      5  C   UNL     1       0.255   8.492  21.789  0.00  0.00    +0.000 A 
ATOM      6  C   UNL     1      -0.405   9.521  22.472  0.00  0.00    +0.000 A 
ENDROOT
BRANCH   4   7
ATOM      7  N   UNL     1       1.789   7.721  20.096  0.00  0.00    +0.000 N 
ATOM      8  C   UNL     1       2.241   7.724  18.789  0.00  0.00    +0.000 C 
ATOM      9  O   UNL     1       2.214   8.688  18.026  0.00  0.00    +0.000 OA
ATOM     10  H   UNL     1       2.007   6.935  20.691  0.00  0.00    +0.000 HD
BRANCH   8  11
ATOM     11  C   UNL     1       2.789   6.452  18.248  0.00  0.00    +0.000 A 
ATOM     12  C   UNL     1       2.127   5.277  18.641  0.00  0.00    +0.000 A 
ATOM     13  C   UNL     1       2.588   4.015  18.250  0.00  0.00    +0.000 A 
ATOM     14  C   UNL     1       3.712   3.942  17.415  0.00  0.00    +0.000 A 
ATOM     15  C   UNL     1       4.382   5.104  16.994  0.00  0.00    +0.000 A 
ATOM     16  C   UNL     1       3.908   6.365  17.412  0.00  0.00    +0.000 A 
BRANCH  13  17
ATOM     17  C   UNL     1       1.919   2.763  18.762  0.00  0.00    +0.000 C 
ATOM     18  F   UNL     1       0.627   2.625  18.354  0.00  0.00    +0.000 F 
ATOM     19  F   UNL     1       2.562   1.629  18.376  0.00  0.00    +0.000 F 
ATOM     20  F   UNL     1       1.882   2.730  20.124  0.00  0.00    +0.000 F 
ENDBRANCH  13  17
BRANCH  15  21
ATOM     21  C   UNL     1       5.622   5.012  16.132  0.00  0.00    +0.000 C 
ATOM     22  F   UNL     1       5.360   4.714  14.830  0.00  0.00    +0.000 F 
ATOM     23  F   UNL     1       6.335   6.171  16.118  0.00  0.00    +0.000 F 
ATOM     24  F   UNL     1       6.478   4.050  16.572  0.00  0.00    +0.000 F 
ENDBRANCH  15  21
ENDBRANCH   8  11
ENDBRANCH   4   7
BRANCH   1  25
ATOM     25  O   UNL     1      -0.892  11.931  22.627  0.00  0.00    +0.000 OA
BRANCH  25  28
ATOM     26  C   UNL     1      -4.474  12.694  22.761  0.00  0.00    +0.000 A 
ATOM     27  C   UNL     1      -3.233  12.283  23.216  0.00  0.00    +0.000 A 
ATOM     28  C   UNL     1      -2.180  12.290  22.311  0.00  0.00    +0.000 A 
ATOM     29  C   UNL     1      -2.417  12.613  20.978  0.00  0.00    +0.000 A 
ATOM     30  C   UNL     1      -3.700  12.979  20.609  0.00  0.00    +0.000 A 
ATOM     31  N   UNL     1      -4.739  13.045  21.471  0.00  0.00    +0.000 NA
BRANCH  26  34
ATOM     32  C   UNL     1      -7.670  14.018  24.279  0.00  0.00    +0.000 C 
ATOM     33  N   UNL     1      -6.536  13.772  23.433  0.00  0.00    +0.000 N 
ATOM     34  C   UNL     1      -5.602  12.806  23.740  0.00  0.00    +0.000 C 
ATOM     35  O   UNL     1      -5.660  12.094  24.733  0.00  0.00    +0.000 OA
ATOM     36  H   UNL     1      -6.374  14.318  22.591  0.00  0.00    +0.000 HD
ENDBRANCH  26  34
ENDBRANCH  25  28
ENDBRANCH   1  25
TORSDOF 7
ENDMDL
MODEL 8
REMARK VINA RESULT:      -9.0      5.502     11.233
REMARK  Name = 
REMARK  8 active torsions:
REMARK  status: ('A' for Active; 'I' for Inactive)
REMARK    1  A    between atoms: C_1  and  N_2
REMARK    2  A    between atoms: C_3  and  C_5
REMARK    3  A    between atoms: C_7  and  O_8
REMARK    4  A    between atoms: O_8  and  C_9
REMARK    5  A    between atoms: C_12  and  N_13
REMARK    6  A    between atoms: C_14  and  C_16
REMARK    7  A    between atoms: C_18  and  C_19
REMARK    8  A    between atoms: C_24  and  C_25
REMARK                            x       y       z     vdW  Elec       q    Type
REMARK                         _______ _______ _______ _____ _____    ______ ____
ROOT
ATOM      1  C   UNL     1      -0.361  11.247  21.486  0.00  0.00    +0.000 A 
ATOM      2  C   UNL     1       0.379  11.449  20.326  0.00  0.00    +0.000 A 
ATOM      3  C   UNL     1       1.097  10.395  19.756  0.00  0.00    +0.000 A 
ATOM      4  C   UNL     1       1.082   9.124  20.339  0.00  0.00    +0.000 A 
ATOM      5  C   UNL     1       0.309   8.916  21.485  0.00  0.00    +0.000 A 
ATOM      6  C   UNL     1      -0.373   9.983  22.081  0.00  0.00    +0.000 A 
ENDROOT
BRANCH   4   7
ATOM      7  N   UNL     1       1.810   8.031  19.818  0.00  0.00    +0.000 N 
ATOM      8  C   UNL     1       2.248   7.930  18.510  0.00  0.00    +0.000 C 
ATOM      9  O   UNL     1       2.181   8.820  17.664  0.00  0.00    +0.000 OA
ATOM     10  H   UNL     1       2.060   7.310  20.479  0.00  0.00    +0.000 HD
BRANCH   8  11
ATOM     11  C   UNL     1       2.831   6.632  18.078  0.00  0.00    +0.000 A 
ATOM     12  C   UNL     1       2.164   5.477  18.520  0.00  0.00    +0.000 A 
ATOM     13  C   UNL     1       2.652   4.198  18.234  0.00  0.00    +0.000 A 
ATOM     14  C   UNL     1       3.813   4.084  17.454  0.00  0.00    +0.000 A 
ATOM     15  C   UNL     1       4.489   5.224  16.985  0.00  0.00    +0.000 A 
ATOM     16  C   UNL     1       3.985   6.503  17.299  0.00  0.00    +0.000 A 
BRANCH  13  17
ATOM     17  C   UNL     1       1.974   2.974  18.799  0.00  0.00    +0.000 C 
ATOM     18  F   UNL     1       2.680   2.366  19.793  0.00  0.00    +0.000 F 
ATOM     19  F   UNL     1       0.747   3.245  19.316  0.00  0.00    +0.000 F 
ATOM     20  F   UNL     1       1.780   2.019  17.846  0.00  0.00    +0.000 F 
ENDBRANCH  13  17
BRANCH  15  21
ATOM     21  C   UNL     1       5.766   5.091  16.185  0.00  0.00    +0.000 C 
ATOM     22  F   UNL     1       6.868   5.555  16.835  0.00  0.00    +0.000 F 
ATOM     23  F   UNL     1       6.039   3.801  15.850  0.00  0.00    +0.000 F 
ATOM     24  F   UNL     1       5.705   5.778  15.011  0.00  0.00    +0.000 F 
ENDBRANCH  15  21
ENDBRANCH   8  11
ENDBRANCH   4   7
BRANCH   1  25
ATOM     25  O   UNL     1      -0.975  12.370  21.993  0.00  0.00    +0.000 OA
BRANCH  25  28
ATOM     26  C   UNL     1      -4.519  12.553  21.078  0.00  0.00    +0.000 A 
ATOM     27  C   UNL     1      -3.148  12.491  20.892  0.00  0.00    +0.000 A 
ATOM     28  C   UNL     1      -2.345  12.456  22.025  0.00  0.00    +0.000 A 
ATOM     29  C   UNL     1      -2.924  12.579  23.285  0.00  0.00    +0.000 A 
ATOM     30  C   UNL     1      -4.302  12.672  23.369  0.00  0.00    +0.000 A 
ATOM     31  N   UNL     1      -5.123  12.647  22.296  0.00  0.00    +0.000 NA
BRANCH  26  34
ATOM     32  C   UNL     1      -5.468  12.288  17.431  0.00  0.00    +0.000 C 
ATOM     33  N   UNL     1      -4.755  12.357  18.676  0.00  0.00    +0.000 N 
ATOM     34  C   UNL     1      -5.414  12.477  19.881  0.00  0.00    +0.000 C 
ATOM     35  O   UNL     1      -6.632  12.532  19.987  0.00  0.00    +0.000 OA
ATOM     36  H   UNL     1      -3.739  12.341  18.707  0.00  0.00    +0.000 HD
ENDBRANCH  26  34
ENDBRANCH  25  28
ENDBRANCH   1  25
TORSDOF 7
ENDMDL
MODEL 9
REMARK VINA RESULT:      -9.0      5.743     11.636
REMARK  Name = 
REMARK  8 active torsions:
REMARK  status: ('A' for Active; 'I' for Inactive)
REMARK    1  A    between atoms: C_1  and  N_2
REMARK    2  A    between atoms: C_3  and  C_5
REMARK    3  A    between atoms: C_7  and  O_8
REMARK    4  A    between atoms: O_8  and  C_9
REMARK    5  A    between atoms: C_12  and  N_13
REMARK    6  A    between atoms: C_14  and  C_16
REMARK    7  A    between atoms: C_18  and  C_19
REMARK    8  A    between atoms: C_24  and  C_25
REMARK                            x       y       z     vdW  Elec       q    Type
REMARK                         _______ _______ _______ _____ _____    ______ ____
ROOT
ATOM      1  C   UNL     1      -0.181   9.707  22.700  0.00  0.00    +0.000 A 
ATOM      2  C   UNL     1       1.207   9.718  22.797  0.00  0.00    +0.000 A 
ATOM      3  C   UNL     1       1.974   8.835  22.033  0.00  0.00    +0.000 A 
ATOM      4  C   UNL     1       1.362   7.930  21.161  0.00  0.00    +0.000 A 
ATOM      5  C   UNL     1      -0.030   7.945  21.039  0.00  0.00    +0.000 A 
ATOM      6  C   UNL     1      -0.800   8.799  21.838  0.00  0.00    +0.000 A 
ENDROOT
BRANCH   4   7
ATOM      7  N   UNL     1       2.090   6.999  20.386  0.00  0.00    +0.000 N 
ATOM      8  C   UNL     1       2.456   7.191  19.066  0.00  0.00    +0.000 C 
ATOM      9  O   UNL     1       2.319   8.235  18.431  0.00  0.00    +0.000 OA
ATOM     10  H   UNL     1       2.395   6.166  20.866  0.00  0.00    +0.000 HD
BRANCH   8  11
ATOM     11  C   UNL     1       3.049   6.035  18.342  0.00  0.00    +0.000 A 
ATOM     12  C   UNL     1       2.547   4.768  18.684  0.00  0.00    +0.000 A 
ATOM     13  C   UNL     1       3.070   3.601  18.119  0.00  0.00    +0.000 A 
ATOM     14  C   UNL     1       4.090   3.718  17.163  0.00  0.00    +0.000 A 
ATOM     15  C   UNL     1       4.597   4.975  16.791  0.00  0.00    +0.000 A 
ATOM     16  C   UNL     1       4.064   6.138  17.385  0.00  0.00    +0.000 A 
BRANCH  13  17
ATOM     17  C   UNL     1       2.583   2.246  18.571  0.00  0.00    +0.000 C 
ATOM     18  F   UNL     1       2.574   2.090  19.924  0.00  0.00    +0.000 F 
ATOM     19  F   UNL     1       1.320   1.974  18.150  0.00  0.00    +0.000 F 
ATOM     20  F   UNL     1       3.366   1.240  18.089  0.00  0.00    +0.000 F 
ENDBRANCH  13  17
BRANCH  15  21
ATOM     21  C   UNL     1       5.729   5.088  15.794  0.00  0.00    +0.000 C 
ATOM     22  F   UNL     1       6.067   3.903  15.216  0.00  0.00    +0.000 F 
ATOM     23  F   UNL     1       5.441   5.939  14.772  0.00  0.00    +0.000 F 
ATOM     24  F   UNL     1       6.868   5.563  16.368  0.00  0.00    +0.000 F 
ENDBRANCH  15  21
ENDBRANCH   8  11
ENDBRANCH   4   7
BRANCH   1  25
ATOM     25  O   UNL     1      -0.835  10.574  23.545  0.00  0.00    +0.000 OA
BRANCH  25  28
ATOM     26  C   UNL     1      -3.344  13.117  22.727  0.00  0.00    +0.000 A 
ATOM     27  C   UNL     1      -2.825  11.960  23.282  0.00  0.00    +0.000 A 
ATOM     28  C   UNL     1      -1.488  11.672  23.041  0.00  0.00    +0.000 A 
ATOM     29  C   UNL     1      -0.750  12.487  22.188  0.00  0.00    +0.000 A 
ATOM     30  C   UNL     1      -1.365  13.605  21.651  0.00  0.00    +0.000 A 
ATOM     31  N   UNL     1      -2.644  13.955  21.910  0.00  0.00    +0.000 NA
BRANCH  26  34
ATOM     32  C   UNL     1      -6.892  12.714  23.959  0.00  0.00    +0.000 C 
ATOM     33  N   UNL     1      -5.518  12.503  23.598  0.00  0.00    +0.000 N 
ATOM     34  C   UNL     1      -4.748  13.513  23.063  0.00  0.00    +0.000 C 
ATOM     35  O   UNL     1      -5.160  14.647  22.857  0.00  0.00    +0.000 OA
ATOM     36  H   UNL     1      -5.075  11.594  23.706  0.00  0.00    +0.000 HD
ENDBRANCH  26  34
ENDBRANCH  25  28
ENDBRANCH   1  25
TORSDOF 7
ENDMDL
