MODEL 1
REMARK VINA RESULT:      -6.2      0.000      0.000
REMARK  Name = 
REMARK  10 active torsions:
REMARK  status: ('A' for Active; 'I' for Inactive)
REMARK    1  A    between atoms: C_1  and  O_2
REMARK    2  A    between atoms: O_2  and  N_3
REMARK    3  A    between atoms: N_3  and  C_4
REMARK    4  A    between atoms: C_4  and  C_5
REMARK    5  A    between atoms: C_5  and  C_6
REMARK    6  A    between atoms: C_6  and  C_7
REMARK    7  A    between atoms: C_10  and  O_11
REMARK    8  A    between atoms: C_17  and  O_18
REMARK    9  A    between atoms: C_21  and  C_22
REMARK   10  A    between atoms: C_26  and  C_27
REMARK                            x       y       z     vdW  Elec       q    Type
REMARK                         _______ _______ _______ _____ _____    ______ ____
ROOT
ATOM      1  C   UNL     1      -0.011  10.064  19.381  0.00  0.00    +0.000 C 
ATOM      2  C   UNL     1      -0.011   9.434  20.803  0.00  0.00    +0.000 C 
ATOM      3  C   UNL     1      -0.736  10.407  21.730  0.00  0.00    +0.000 C 
ATOM      4  C   UNL     1      -0.389  11.786  21.115  0.00  0.00    +0.000 C 
ATOM      5  C   UNL     1      -1.232  13.000  21.653  0.00  0.00    +0.000 C 
ATOM      6  C   UNL     1      -1.051  13.187  23.183  0.00  0.00    +0.000 C 
ATOM      7  C   UNL     1      -1.841  14.394  23.712  0.00  0.00    +0.000 C 
ATOM      8  C   UNL     1      -3.347  14.304  23.374  0.00  0.00    +0.000 C 
ATOM      9  C   UNL     1      -4.034  13.160  24.181  0.00  0.00    +0.000 C 
ATOM     10  C   UNL     1      -5.538  13.034  23.863  0.00  0.00    +0.000 C 
ATOM     11  C   UNL     1      -5.761  12.867  22.349  0.00  0.00    +0.000 C 
ATOM     12  C   UNL     1      -5.114  14.020  21.565  0.00  0.00    +0.000 C 
ATOM     13  C   UNL     1      -3.574  14.150  21.825  0.00  0.00    +0.000 C 
ATOM     14  C   UNL     1      -3.132  15.457  21.099  0.00  0.00    +0.000 C 
ATOM     15  C   UNL     1      -2.757  12.889  21.299  0.00  0.00    +0.000 C 
ATOM     16  C   UNL     1      -2.950  12.639  19.780  0.00  0.00    +0.000 C 
ATOM     17  C   UNL     1      -2.167  11.409  19.307  0.00  0.00    +0.000 C 
ATOM     18  C   UNL     1      -0.633  11.504  19.594  0.00  0.00    +0.000 C 
ATOM     19  C   UNL     1      -0.033  12.618  18.687  0.00  0.00    +0.000 C 
ENDROOT
BRANCH   4  20
ATOM     20  O   UNL     1       0.985  12.058  21.302  0.00  0.00    +0.000 OA
ATOM     21  H   UNL     1       1.105  13.031  21.449  0.00  0.00    +0.000 HD
ENDBRANCH   4  20
BRANCH  10  22
ATOM     22  O   UNL     1      -6.288  14.105  24.389  0.00  0.00    +0.000 OA
ATOM     23  H   UNL     1      -5.684  14.846  24.635  0.00  0.00    +0.000 HD
ENDBRANCH  10  22
BRANCH   1  24
ATOM     24  C   UNL     1       1.422  10.025  18.766  0.00  0.00    +0.000 C 
BRANCH  24  25
ATOM     25  C   UNL     1       1.689   8.897  17.741  0.00  0.00    +0.000 C 
BRANCH  25  26
ATOM     26  C   UNL     1       2.777   7.867  18.088  0.00  0.00    +0.000 C 
BRANCH  26  27
ATOM     27  N   UNL     1       2.403   7.237  19.359  0.00  0.00    +0.000 NA
ATOM     28  H   UNL     1       3.173   7.419  20.051  0.00  0.00    +0.000 HD
BRANCH  27  30
ATOM     29  C   UNL     1       1.954   5.358  20.461  0.00  0.00    +0.000 C 
ATOM     30  O   UNL     1       2.280   5.890  19.196  0.00  0.00    +0.000 OA
ENDBRANCH  27  30
ENDBRANCH  26  27
ENDBRANCH  25  26
ENDBRANCH  24  25
ENDBRANCH   1  24
TORSDOF 7
ENDMDL
MODEL 2
REMARK VINA RESULT:      -6.1      8.125     10.683
REMARK  Name = 
REMARK  10 active torsions:
REMARK  status: ('A' for Active; 'I' for Inactive)
REMARK    1  A    between atoms: C_1  and  O_2
REMARK    2  A    between atoms: O_2  and  N_3
REMARK    3  A    between atoms: N_3  and  C_4
REMARK    4  A    between atoms: C_4  and  C_5
REMARK    5  A    between atoms: C_5  and  C_6
REMARK    6  A    between atoms: C_6  and  C_7
REMARK    7  A    between atoms: C_10  and  O_11
REMARK    8  A    between atoms: C_17  and  O_18
REMARK    9  A    between atoms: C_21  and  C_22
REMARK   10  A    between atoms: C_26  and  C_27
REMARK                            x       y       z     vdW  Elec       q    Type
REMARK                         _______ _______ _______ _____ _____    ______ ____
ROOT
ATOM      1  C   UNL     1       6.967   4.567  15.762  0.00  0.00    +0.000 C 
ATOM      2  C   UNL     1       7.517   5.128  17.104  0.00  0.00    +0.000 C 
ATOM      3  C   UNL     1       6.343   5.207  18.077  0.00  0.00    +0.000 C 
ATOM      4  C   UNL     1       5.146   5.511  17.143  0.00  0.00    +0.000 C 
ATOM      5  C   UNL     1       3.722   5.355  17.792  0.00  0.00    +0.000 C 
ATOM      6  C   UNL     1       3.538   6.309  19.002  0.00  0.00    +0.000 C 
ATOM      7  C   UNL     1       2.136   6.191  19.619  0.00  0.00    +0.000 C 
ATOM      8  C   UNL     1       1.803   4.742  20.045  0.00  0.00    +0.000 C 
ATOM      9  C   UNL     1       2.670   4.304  21.264  0.00  0.00    +0.000 C 
ATOM     10  C   UNL     1       2.371   2.858  21.712  0.00  0.00    +0.000 C 
ATOM     11  C   UNL     1       2.523   1.882  20.532  0.00  0.00    +0.000 C 
ATOM     12  C   UNL     1       1.634   2.301  19.350  0.00  0.00    +0.000 C 
ATOM     13  C   UNL     1       1.942   3.748  18.835  0.00  0.00    +0.000 C 
ATOM     14  C   UNL     1       0.845   4.060  17.772  0.00  0.00    +0.000 C 
ATOM     15  C   UNL     1       3.404   3.878  18.215  0.00  0.00    +0.000 C 
ATOM     16  C   UNL     1       3.643   2.904  17.032  0.00  0.00    +0.000 C 
ATOM     17  C   UNL     1       5.063   3.039  16.471  0.00  0.00    +0.000 C 
ATOM     18  C   UNL     1       5.402   4.487  15.987  0.00  0.00    +0.000 C 
ATOM     19  C   UNL     1       4.542   4.796  14.727  0.00  0.00    +0.000 C 
ENDROOT
BRANCH   4  20
ATOM     20  O   UNL     1       5.273   6.816  16.616  0.00  0.00    +0.000 OA
ATOM     21  H   UNL     1       5.284   6.766  15.626  0.00  0.00    +0.000 HD
ENDBRANCH   4  20
BRANCH  10  22
ATOM     22  O   UNL     1       1.111   2.741  22.333  0.00  0.00    +0.000 OA
ATOM     23  H   UNL     1       1.200   2.242  23.180  0.00  0.00    +0.000 HD
ENDBRANCH  10  22
BRANCH   1  24
ATOM     24  C   UNL     1       7.438   5.452  14.566  0.00  0.00    +0.000 C 
BRANCH  24  25
ATOM     25  C   UNL     1       7.902   4.689  13.302  0.00  0.00    +0.000 C 
BRANCH  25  26
ATOM     26  C   UNL     1       6.818   4.240  12.307  0.00  0.00    +0.000 C 
BRANCH  26  27
ATOM     27  N   UNL     1       6.469   2.853  12.627  0.00  0.00    +0.000 NA
ATOM     28  H   UNL     1       7.359   2.295  12.668  0.00  0.00    +0.000 HD
BRANCH  27  30
ATOM     29  C   UNL     1       4.559   3.182  11.536  0.00  0.00    +0.000 C 
ATOM     30  O   UNL     1       5.678   2.330  11.648  0.00  0.00    +0.000 OA
ENDBRANCH  27  30
ENDBRANCH  26  27
ENDBRANCH  25  26
ENDBRANCH  24  25
ENDBRANCH   1  24
TORSDOF 7
ENDMDL
MODEL 3
REMARK VINA RESULT:      -5.7      1.006      1.006
REMARK  Name = 
REMARK  10 active torsions:
REMARK  status: ('A' for Active; 'I' for Inactive)
REMARK    1  A    between atoms: C_1  and  O_2
REMARK    2  A    between atoms: O_2  and  N_3
REMARK    3  A    between atoms: N_3  and  C_4
REMARK    4  A    between atoms: C_4  and  C_5
REMARK    5  A    between atoms: C_5  and  C_6
REMARK    6  A    between atoms: C_6  and  C_7
REMARK    7  A    between atoms: C_10  and  O_11
REMARK    8  A    between atoms: C_17  and  O_18
REMARK    9  A    between atoms: C_21  and  C_22
REMARK   10  A    between atoms: C_26  and  C_27
REMARK                            x       y       z     vdW  Elec       q    Type
REMARK                         _______ _______ _______ _____ _____    ______ ____
ROOT
ATOM      1  C   UNL     1       0.374   9.583  19.473  0.00  0.00    +0.000 C 
ATOM      2  C   UNL     1       0.243   9.025  20.917  0.00  0.00    +0.000 C 
ATOM      3  C   UNL     1      -0.521  10.063  21.737  0.00  0.00    +0.000 C 
ATOM      4  C   UNL     1      -0.083  11.399  21.088  0.00  0.00    +0.000 C 
ATOM      5  C   UNL     1      -0.925  12.662  21.500  0.00  0.00    +0.000 C 
ATOM      6  C   UNL     1      -0.858  12.918  23.029  0.00  0.00    +0.000 C 
ATOM      7  C   UNL     1      -1.647  14.173  23.436  0.00  0.00    +0.000 C 
ATOM      8  C   UNL     1      -3.125  14.109  22.984  0.00  0.00    +0.000 C 
ATOM      9  C   UNL     1      -3.909  13.026  23.787  0.00  0.00    +0.000 C 
ATOM     10  C   UNL     1      -5.387  12.927  23.356  0.00  0.00    +0.000 C 
ATOM     11  C   UNL     1      -5.496  12.692  21.838  0.00  0.00    +0.000 C 
ATOM     12  C   UNL     1      -4.753  13.786  21.055  0.00  0.00    +0.000 C 
ATOM     13  C   UNL     1      -3.235  13.885  21.431  0.00  0.00    +0.000 C 
ATOM     14  C   UNL     1      -2.695  15.142  20.682  0.00  0.00    +0.000 C 
ATOM     15  C   UNL     1      -2.420  12.577  21.031  0.00  0.00    +0.000 C 
ATOM     16  C   UNL     1      -2.502  12.258  19.514  0.00  0.00    +0.000 C 
ATOM     17  C   UNL     1      -1.725  10.984  19.164  0.00  0.00    +0.000 C 
ATOM     18  C   UNL     1      -0.216  11.050  19.568  0.00  0.00    +0.000 C 
ATOM     19  C   UNL     1       0.489  12.100  18.660  0.00  0.00    +0.000 C 
ENDROOT
BRANCH   4  20
ATOM     20  O   UNL     1       1.281  11.640  21.371  0.00  0.00    +0.000 OA
ATOM     21  H   UNL     1       1.533  12.530  21.012  0.00  0.00    +0.000 HD
ENDBRANCH   4  20
BRANCH  10  22
ATOM     22  O   UNL     1      -6.141  14.044  23.770  0.00  0.00    +0.000 OA
ATOM     23  H   UNL     1      -5.917  14.825  23.209  0.00  0.00    +0.000 HD
ENDBRANCH  10  22
BRANCH   1  24
ATOM     24  C   UNL     1       1.849   9.474  18.975  0.00  0.00    +0.000 C 
BRANCH  24  25
ATOM     25  C   UNL     1       2.122   8.396  17.899  0.00  0.00    +0.000 C 
BRANCH  25  26
ATOM     26  C   UNL     1       2.543   6.999  18.385  0.00  0.00    +0.000 C 
BRANCH  26  27
ATOM     27  N   UNL     1       3.620   6.529  17.508  0.00  0.00    +0.000 NA
ATOM     28  H   UNL     1       3.278   5.672  17.004  0.00  0.00    +0.000 HD
BRANCH  27  30
ATOM     29  C   UNL     1       4.244   5.409  19.325  0.00  0.00    +0.000 C 
ATOM     30  O   UNL     1       4.713   6.188  18.247  0.00  0.00    +0.000 OA
ENDBRANCH  27  30
ENDBRANCH  26  27
ENDBRANCH  25  26
ENDBRANCH  24  25
ENDBRANCH   1  24
TORSDOF 7
ENDMDL
MODEL 4
REMARK VINA RESULT:      -5.7      4.023      6.644
REMARK  Name = 
REMARK  10 active torsions:
REMARK  status: ('A' for Active; 'I' for Inactive)
REMARK    1  A    between atoms: C_1  and  O_2
REMARK    2  A    between atoms: O_2  and  N_3
REMARK    3  A    between atoms: N_3  and  C_4
REMARK    4  A    between atoms: C_4  and  C_5
REMARK    5  A    between atoms: C_5  and  C_6
REMARK    6  A    between atoms: C_6  and  C_7
REMARK    7  A    between atoms: C_10  and  O_11
REMARK    8  A    between atoms: C_17  and  O_18
REMARK    9  A    between atoms: C_21  and  C_22
REMARK   10  A    between atoms: C_26  and  C_27
REMARK                            x       y       z     vdW  Elec       q    Type
REMARK                         _______ _______ _______ _____ _____    ______ ____
ROOT
ATOM      1  C   UNL     1      -0.770  10.640  19.442  0.00  0.00    +0.000 C 
ATOM      2  C   UNL     1       0.483  10.305  18.585  0.00  0.00    +0.000 C 
ATOM      3  C   UNL     1       1.406  11.521  18.637  0.00  0.00    +0.000 C 
ATOM      4  C   UNL     1       0.410  12.701  18.750  0.00  0.00    +0.000 C 
ATOM      5  C   UNL     1       1.042  14.089  19.133  0.00  0.00    +0.000 C 
ATOM      6  C   UNL     1       2.088  14.548  18.082  0.00  0.00    +0.000 C 
ATOM      7  C   UNL     1       2.683  15.921  18.427  0.00  0.00    +0.000 C 
ATOM      8  C   UNL     1       3.317  15.949  19.838  0.00  0.00    +0.000 C 
ATOM      9  C   UNL     1       4.609  15.076  19.889  0.00  0.00    +0.000 C 
ATOM     10  C   UNL     1       5.264  15.072  21.285  0.00  0.00    +0.000 C 
ATOM     11  C   UNL     1       4.249  14.641  22.360  0.00  0.00    +0.000 C 
ATOM     12  C   UNL     1       2.998  15.532  22.327  0.00  0.00    +0.000 C 
ATOM     13  C   UNL     1       2.275  15.524  20.937  0.00  0.00    +0.000 C 
ATOM     14  C   UNL     1       1.152  16.601  21.037  0.00  0.00    +0.000 C 
ATOM     15  C   UNL     1       1.677  14.095  20.567  0.00  0.00    +0.000 C 
ATOM     16  C   UNL     1       0.661  13.579  21.620  0.00  0.00    +0.000 C 
ATOM     17  C   UNL     1       0.119  12.195  21.246  0.00  0.00    +0.000 C 
ATOM     18  C   UNL     1      -0.572  12.158  19.843  0.00  0.00    +0.000 C 
ATOM     19  C   UNL     1      -1.883  12.993  19.921  0.00  0.00    +0.000 C 
ENDROOT
BRANCH   4  20
ATOM     20  O   UNL     1      -0.306  12.836  17.539  0.00  0.00    +0.000 OA
ATOM     21  H   UNL     1      -0.900  13.628  17.601  0.00  0.00    +0.000 HD
ENDBRANCH   4  20
BRANCH  10  22
ATOM     22  O   UNL     1       5.866  16.308  21.597  0.00  0.00    +0.000 OA
ATOM     23  H   UNL     1       6.269  16.697  20.785  0.00  0.00    +0.000 HD
ENDBRANCH  10  22
BRANCH   1  24
ATOM     24  C   UNL     1      -2.076  10.309  18.653  0.00  0.00    +0.000 C 
BRANCH  24  25
ATOM     25  C   UNL     1      -1.883   9.842  17.191  0.00  0.00    +0.000 C 
BRANCH  25  26
ATOM     26  C   UNL     1      -2.562  10.670  16.086  0.00  0.00    +0.000 C 
BRANCH  26  27
ATOM     27  N   UNL     1      -3.301  11.757  16.738  0.00  0.00    +0.000 NA
ATOM     28  H   UNL     1      -3.112  11.704  17.771  0.00  0.00    +0.000 HD
BRANCH  27  30
ATOM     29  C   UNL     1      -5.278  12.002  17.727  0.00  0.00    +0.000 C 
ATOM     30  O   UNL     1      -4.639  11.601  16.535  0.00  0.00    +0.000 OA
ENDBRANCH  27  30
ENDBRANCH  26  27
ENDBRANCH  25  26
ENDBRANCH  24  25
ENDBRANCH   1  24
TORSDOF 7
ENDMDL
MODEL 5
REMARK VINA RESULT:      -5.6      8.194     11.892
REMARK  Name = 
REMARK  10 active torsions:
REMARK  status: ('A' for Active; 'I' for Inactive)
REMARK    1  A    between atoms: C_1  and  O_2
REMARK    2  A    between atoms: O_2  and  N_3
REMARK    3  A    between atoms: N_3  and  C_4
REMARK    4  A    between atoms: C_4  and  C_5
REMARK    5  A    between atoms: C_5  and  C_6
REMARK    6  A    between atoms: C_6  and  C_7
REMARK    7  A    between atoms: C_10  and  O_11
REMARK    8  A    between atoms: C_17  and  O_18
REMARK    9  A    between atoms: C_21  and  C_22
REMARK   10  A    between atoms: C_26  and  C_27
REMARK                            x       y       z     vdW  Elec       q    Type
REMARK                         _______ _______ _______ _____ _____    ______ ____
ROOT
ATOM      1  C   UNL     1       4.646  15.786  20.126  0.00  0.00    +0.000 C 
ATOM      2  C   UNL     1       4.581  15.417  18.618  0.00  0.00    +0.000 C 
ATOM      3  C   UNL     1       6.009  15.132  18.158  0.00  0.00    +0.000 C 
ATOM      4  C   UNL     1       6.849  16.087  19.042  0.00  0.00    +0.000 C 
ATOM      5  C   UNL     1       8.400  15.828  19.039  0.00  0.00    +0.000 C 
ATOM      6  C   UNL     1       8.999  15.970  17.614  0.00  0.00    +0.000 C 
ATOM      7  C   UNL     1      10.520  15.757  17.607  0.00  0.00    +0.000 C 
ATOM      8  C   UNL     1      10.924  14.389  18.205  0.00  0.00    +0.000 C 
ATOM      9  C   UNL     1      10.484  13.218  17.273  0.00  0.00    +0.000 C 
ATOM     10  C   UNL     1      10.862  11.836  17.843  0.00  0.00    +0.000 C 
ATOM     11  C   UNL     1      10.302  11.664  19.267  0.00  0.00    +0.000 C 
ATOM     12  C   UNL     1      10.773  12.801  20.187  0.00  0.00    +0.000 C 
ATOM     13  C   UNL     1      10.365  14.221  19.666  0.00  0.00    +0.000 C 
ATOM     14  C   UNL     1      11.068  15.239  20.615  0.00  0.00    +0.000 C 
ATOM     15  C   UNL     1       8.787  14.436  19.651  0.00  0.00    +0.000 C 
ATOM     16  C   UNL     1       8.143  14.254  21.051  0.00  0.00    +0.000 C 
ATOM     17  C   UNL     1       6.623  14.448  21.000  0.00  0.00    +0.000 C 
ATOM     18  C   UNL     1       6.196  15.846  20.445  0.00  0.00    +0.000 C 
ATOM     19  C   UNL     1       6.611  16.932  21.480  0.00  0.00    +0.000 C 
ENDROOT
BRANCH   4  20
ATOM     20  O   UNL     1       6.602  17.426  18.662  0.00  0.00    +0.000 OA
ATOM     21  H   UNL     1       5.638  17.623  18.781  0.00  0.00    +0.000 HD
ENDBRANCH   4  20
BRANCH  10  22
ATOM     22  O   UNL     1      12.251  11.598  17.793  0.00  0.00    +0.000 OA
ATOM     23  H   UNL     1      12.739  12.451  17.888  0.00  0.00    +0.000 HD
ENDBRANCH  10  22
BRANCH   1  24
ATOM     24  C   UNL     1       3.843  17.095  20.404  0.00  0.00    +0.000 C 
BRANCH  24  25
ATOM     25  C   UNL     1       2.572  17.304  19.547  0.00  0.00    +0.000 C 
BRANCH  25  26
ATOM     26  C   UNL     1       1.280  16.613  20.016  0.00  0.00    +0.000 C 
BRANCH  26  27
ATOM     27  N   UNL     1       0.908  15.627  18.996  0.00  0.00    +0.000 NA
ATOM     28  H   UNL     1      -0.140  15.625  18.913  0.00  0.00    +0.000 HD
BRANCH  27  30
ATOM     29  C   UNL     1       0.582  13.463  18.597  0.00  0.00    +0.000 C 
ATOM     30  O   UNL     1       1.313  14.383  19.377  0.00  0.00    +0.000 OA
ENDBRANCH  27  30
ENDBRANCH  26  27
ENDBRANCH  25  26
ENDBRANCH  24  25
ENDBRANCH   1  24
TORSDOF 7
ENDMDL
MODEL 6
REMARK VINA RESULT:      -5.5      8.390     12.169
REMARK  Name = 
REMARK  10 active torsions:
REMARK  status: ('A' for Active; 'I' for Inactive)
REMARK    1  A    between atoms: C_1  and  O_2
REMARK    2  A    between atoms: O_2  and  N_3
REMARK    3  A    between atoms: N_3  and  C_4
REMARK    4  A    between atoms: C_4  and  C_5
REMARK    5  A    between atoms: C_5  and  C_6
REMARK    6  A    between atoms: C_6  and  C_7
REMARK    7  A    between atoms: C_10  and  O_11
REMARK    8  A    between atoms: C_17  and  O_18
REMARK    9  A    between atoms: C_21  and  C_22
REMARK   10  A    between atoms: C_26  and  C_27
REMARK                            x       y       z     vdW  Elec       q    Type
REMARK                         _______ _______ _______ _____ _____    ______ ____
ROOT
ATOM      1  C   UNL     1       4.848  15.879  20.166  0.00  0.00    +0.000 C 
ATOM      2  C   UNL     1       4.740  15.485  18.666  0.00  0.00    +0.000 C 
ATOM      3  C   UNL     1       6.153  15.171  18.178  0.00  0.00    +0.000 C 
ATOM      4  C   UNL     1       7.027  16.129  19.024  0.00  0.00    +0.000 C 
ATOM      5  C   UNL     1       8.574  15.848  18.987  0.00  0.00    +0.000 C 
ATOM      6  C   UNL     1       9.139  15.957  17.546  0.00  0.00    +0.000 C 
ATOM      7  C   UNL     1      10.657  15.722  17.505  0.00  0.00    +0.000 C 
ATOM      8  C   UNL     1      11.056  14.359  18.118  0.00  0.00    +0.000 C 
ATOM      9  C   UNL     1      10.577  13.179  17.217  0.00  0.00    +0.000 C 
ATOM     10  C   UNL     1      10.950  11.801  17.802  0.00  0.00    +0.000 C 
ATOM     11  C   UNL     1      10.422  11.661  19.242  0.00  0.00    +0.000 C 
ATOM     12  C   UNL     1      10.932  12.807  20.130  0.00  0.00    +0.000 C 
ATOM     13  C   UNL     1      10.531  14.224  19.594  0.00  0.00    +0.000 C 
ATOM     14  C   UNL     1      11.271  15.247  20.508  0.00  0.00    +0.000 C 
ATOM     15  C   UNL     1       8.956  14.461  19.614  0.00  0.00    +0.000 C 
ATOM     16  C   UNL     1       8.344  14.312  21.032  0.00  0.00    +0.000 C 
ATOM     17  C   UNL     1       6.827  14.528  21.015  0.00  0.00    +0.000 C 
ATOM     18  C   UNL     1       6.405  15.922  20.446  0.00  0.00    +0.000 C 
ATOM     19  C   UNL     1       6.861  17.019  21.452  0.00  0.00    +0.000 C 
ENDROOT
BRANCH   4  20
ATOM     20  O   UNL     1       6.790  17.464  18.626  0.00  0.00    +0.000 OA
ATOM     21  H   UNL     1       6.267  17.463  17.783  0.00  0.00    +0.000 HD
ENDBRANCH   4  20
BRANCH  10  22
ATOM     22  O   UNL     1      12.333  11.543  17.722  0.00  0.00    +0.000 OA
ATOM     23  H   UNL     1      12.829  12.209  18.256  0.00  0.00    +0.000 HD
ENDBRANCH  10  22
BRANCH   1  24
ATOM     24  C   UNL     1       4.070  17.204  20.440  0.00  0.00    +0.000 C 
BRANCH  24  25
ATOM     25  C   UNL     1       2.742  17.060  21.220  0.00  0.00    +0.000 C 
BRANCH  25  26
ATOM     26  C   UNL     1       2.719  16.081  22.407  0.00  0.00    +0.000 C 
BRANCH  26  27
ATOM     27  N   UNL     1       1.392  16.166  23.026  0.00  0.00    +0.000 NA
ATOM     28  H   UNL     1       1.524  16.276  24.063  0.00  0.00    +0.000 HD
BRANCH  27  30
ATOM     29  C   UNL     1      -0.587  15.403  22.356  0.00  0.00    +0.000 C 
ATOM     30  O   UNL     1       0.695  15.017  22.800  0.00  0.00    +0.000 OA
ENDBRANCH  27  30
ENDBRANCH  26  27
ENDBRANCH  25  26
ENDBRANCH  24  25
ENDBRANCH   1  24
TORSDOF 7
ENDMDL
MODEL 7
REMARK VINA RESULT:      -5.5      8.537     12.350
REMARK  Name = 
REMARK  10 active torsions:
REMARK  status: ('A' for Active; 'I' for Inactive)
REMARK    1  A    between atoms: C_1  and  O_2
REMARK    2  A    between atoms: O_2  and  N_3
REMARK    3  A    between atoms: N_3  and  C_4
REMARK    4  A    between atoms: C_4  and  C_5
REMARK    5  A    between atoms: C_5  and  C_6
REMARK    6  A    between atoms: C_6  and  C_7
REMARK    7  A    between atoms: C_10  and  O_11
REMARK    8  A    between atoms: C_17  and  O_18
REMARK    9  A    between atoms: C_21  and  C_22
REMARK   10  A    between atoms: C_26  and  C_27
REMARK                            x       y       z     vdW  Elec       q    Type
REMARK                         _______ _______ _______ _____ _____    ______ ____
ROOT
ATOM      1  C   UNL     1       4.940  15.982  20.186  0.00  0.00    +0.000 C 
ATOM      2  C   UNL     1       4.806  15.555  18.697  0.00  0.00    +0.000 C 
ATOM      3  C   UNL     1       6.207  15.211  18.196  0.00  0.00    +0.000 C 
ATOM      4  C   UNL     1       7.106  16.177  19.007  0.00  0.00    +0.000 C 
ATOM      5  C   UNL     1       8.648  15.875  18.955  0.00  0.00    +0.000 C 
ATOM      6  C   UNL     1       9.194  15.943  17.504  0.00  0.00    +0.000 C 
ATOM      7  C   UNL     1      10.708  15.687  17.447  0.00  0.00    +0.000 C 
ATOM      8  C   UNL     1      11.098  14.333  18.085  0.00  0.00    +0.000 C 
ATOM      9  C   UNL     1      10.591  13.139  17.219  0.00  0.00    +0.000 C 
ATOM     10  C   UNL     1      10.954  11.770  17.831  0.00  0.00    +0.000 C 
ATOM     11  C   UNL     1      10.446  11.671  19.280  0.00  0.00    +0.000 C 
ATOM     12  C   UNL     1      10.983  12.830  20.135  0.00  0.00    +0.000 C 
ATOM     13  C   UNL     1      10.592  14.239  19.572  0.00  0.00    +0.000 C 
ATOM     14  C   UNL     1      11.359  15.273  20.451  0.00  0.00    +0.000 C 
ATOM     15  C   UNL     1       9.022  14.498  19.608  0.00  0.00    +0.000 C 
ATOM     16  C   UNL     1       8.428  14.389  21.038  0.00  0.00    +0.000 C 
ATOM     17  C   UNL     1       6.913  14.624  21.038  0.00  0.00    +0.000 C 
ATOM     18  C   UNL     1       6.502  16.011  20.442  0.00  0.00    +0.000 C 
ATOM     19  C   UNL     1       6.986  17.125  21.416  0.00  0.00    +0.000 C 
ENDROOT
BRANCH   4  20
ATOM     20  O   UNL     1       6.880  17.506  18.582  0.00  0.00    +0.000 OA
ATOM     21  H   UNL     1       7.710  18.033  18.714  0.00  0.00    +0.000 HD
ENDBRANCH   4  20
BRANCH  10  22
ATOM     22  O   UNL     1      12.333  11.492  17.737  0.00  0.00    +0.000 OA
ATOM     23  H   UNL     1      12.852  12.250  18.098  0.00  0.00    +0.000 HD
ENDBRANCH  10  22
BRANCH   1  24
ATOM     24  C   UNL     1       4.184  17.323  20.440  0.00  0.00    +0.000 C 
BRANCH  24  25
ATOM     25  C   UNL     1       2.760  17.421  19.842  0.00  0.00    +0.000 C 
BRANCH  25  26
ATOM     26  C   UNL     1       1.711  16.412  20.340  0.00  0.00    +0.000 C 
BRANCH  26  27
ATOM     27  N   UNL     1       0.412  16.818  19.794  0.00  0.00    +0.000 NA
ATOM     28  H   UNL     1      -0.083  15.954  19.457  0.00  0.00    +0.000 HD
BRANCH  27  30
ATOM     29  C   UNL     1      -0.549  17.514  17.913  0.00  0.00    +0.000 C 
ATOM     30  O   UNL     1       0.589  17.655  18.733  0.00  0.00    +0.000 OA
ENDBRANCH  27  30
ENDBRANCH  26  27
ENDBRANCH  25  26
ENDBRANCH  24  25
ENDBRANCH   1  24
TORSDOF 7
ENDMDL
MODEL 8
REMARK VINA RESULT:      -5.5      8.452     12.250
REMARK  Name = 
REMARK  10 active torsions:
REMARK  status: ('A' for Active; 'I' for Inactive)
REMARK    1  A    between atoms: C_1  and  O_2
REMARK    2  A    between atoms: O_2  and  N_3
REMARK    3  A    between atoms: N_3  and  C_4
REMARK    4  A    between atoms: C_4  and  C_5
REMARK    5  A    between atoms: C_5  and  C_6
REMARK    6  A    between atoms: C_6  and  C_7
REMARK    7  A    between atoms: C_10  and  O_11
REMARK    8  A    between atoms: C_17  and  O_18
REMARK    9  A    between atoms: C_21  and  C_22
REMARK   10  A    between atoms: C_26  and  C_27
REMARK                            x       y       z     vdW  Elec       q    Type
REMARK                         _______ _______ _______ _____ _____    ______ ____
ROOT
ATOM      1  C   UNL     1       4.699  15.841  20.016  0.00  0.00    +0.000 C 
ATOM      2  C   UNL     1       4.666  15.510  18.497  0.00  0.00    +0.000 C 
ATOM      3  C   UNL     1       6.100  15.207  18.068  0.00  0.00    +0.000 C 
ATOM      4  C   UNL     1       6.934  16.124  18.997  0.00  0.00    +0.000 C 
ATOM      5  C   UNL     1       8.480  15.833  19.027  0.00  0.00    +0.000 C 
ATOM      6  C   UNL     1       9.119  15.999  17.622  0.00  0.00    +0.000 C 
ATOM      7  C   UNL     1      10.635  15.755  17.649  0.00  0.00    +0.000 C 
ATOM      8  C   UNL     1      10.996  14.364  18.224  0.00  0.00    +0.000 C 
ATOM      9  C   UNL     1      10.558  13.226  17.251  0.00  0.00    +0.000 C 
ATOM     10  C   UNL     1      10.894  11.823  17.796  0.00  0.00    +0.000 C 
ATOM     11  C   UNL     1      10.293  11.627  19.200  0.00  0.00    +0.000 C 
ATOM     12  C   UNL     1      10.762  12.731  20.161  0.00  0.00    +0.000 C 
ATOM     13  C   UNL     1      10.395  14.171  19.665  0.00  0.00    +0.000 C 
ATOM     14  C   UNL     1      11.093  15.151  20.657  0.00  0.00    +0.000 C 
ATOM     15  C   UNL     1       8.823  14.419  19.614  0.00  0.00    +0.000 C 
ATOM     16  C   UNL     1       8.139  14.216  20.992  0.00  0.00    +0.000 C 
ATOM     17  C   UNL     1       6.625  14.442  20.907  0.00  0.00    +0.000 C 
ATOM     18  C   UNL     1       6.240  15.862  20.376  0.00  0.00    +0.000 C 
ATOM     19  C   UNL     1       6.649  16.913  21.449  0.00  0.00    +0.000 C 
ENDROOT
BRANCH   4  20
ATOM     20  O   UNL     1       6.724  17.476  18.644  0.00  0.00    +0.000 OA
ATOM     21  H   UNL     1       6.271  17.514  17.763  0.00  0.00    +0.000 HD
ENDBRANCH   4  20
BRANCH  10  22
ATOM     22  O   UNL     1      12.278  11.558  17.776  0.00  0.00    +0.000 OA
ATOM     23  H   UNL     1      12.660  11.709  18.674  0.00  0.00    +0.000 HD
ENDBRANCH  10  22
BRANCH   1  24
ATOM     24  C   UNL     1       3.914  17.159  20.305  0.00  0.00    +0.000 C 
BRANCH  24  25
ATOM     25  C   UNL     1       2.588  16.999  21.086  0.00  0.00    +0.000 C 
BRANCH  25  26
ATOM     26  C   UNL     1       2.631  17.212  22.608  0.00  0.00    +0.000 C 
BRANCH  26  27
ATOM     27  N   UNL     1       3.123  15.972  23.216  0.00  0.00    +0.000 NA
ATOM     28  H   UNL     1       2.312  15.309  23.305  0.00  0.00    +0.000 HD
BRANCH  27  30
ATOM     29  C   UNL     1       4.349  17.424  24.373  0.00  0.00    +0.000 C 
ATOM     30  O   UNL     1       3.614  16.223  24.463  0.00  0.00    +0.000 OA
ENDBRANCH  27  30
ENDBRANCH  26  27
ENDBRANCH  25  26
ENDBRANCH  24  25
ENDBRANCH   1  24
TORSDOF 7
ENDMDL
MODEL 9
REMARK VINA RESULT:      -5.4      1.372      1.655
REMARK  Name = 
REMARK  10 active torsions:
REMARK  status: ('A' for Active; 'I' for Inactive)
REMARK    1  A    between atoms: C_1  and  O_2
REMARK    2  A    between atoms: O_2  and  N_3
REMARK    3  A    between atoms: N_3  and  C_4
REMARK    4  A    between atoms: C_4  and  C_5
REMARK    5  A    between atoms: C_5  and  C_6
REMARK    6  A    between atoms: C_6  and  C_7
REMARK    7  A    between atoms: C_10  and  O_11
REMARK    8  A    between atoms: C_17  and  O_18
REMARK    9  A    between atoms: C_21  and  C_22
REMARK   10  A    between atoms: C_26  and  C_27
REMARK                            x       y       z     vdW  Elec       q    Type
REMARK                         _______ _______ _______ _____ _____    ______ ____
ROOT
ATOM      1  C   UNL     1      -0.322  10.930  20.274  0.00  0.00    +0.000 C 
ATOM      2  C   UNL     1      -0.362  10.272  21.682  0.00  0.00    +0.000 C 
ATOM      3  C   UNL     1      -1.396  11.035  22.509  0.00  0.00    +0.000 C 
ATOM      4  C   UNL     1      -1.286  12.474  21.948  0.00  0.00    +0.000 C 
ATOM      5  C   UNL     1      -2.437  13.458  22.374  0.00  0.00    +0.000 C 
ATOM      6  C   UNL     1      -2.496  13.633  23.915  0.00  0.00    +0.000 C 
ATOM      7  C   UNL     1      -3.592  14.623  24.338  0.00  0.00    +0.000 C 
ATOM      8  C   UNL     1      -4.987  14.216  23.807  0.00  0.00    +0.000 C 
ATOM      9  C   UNL     1      -5.502  12.926  24.517  0.00  0.00    +0.000 C 
ATOM     10  C   UNL     1      -6.888  12.484  24.005  0.00  0.00    +0.000 C 
ATOM     11  C   UNL     1      -6.875  12.319  22.475  0.00  0.00    +0.000 C 
ATOM     12  C   UNL     1      -6.405  13.608  21.784  0.00  0.00    +0.000 C 
ATOM     13  C   UNL     1      -4.977  14.063  22.242  0.00  0.00    +0.000 C 
ATOM     14  C   UNL     1      -4.745  15.457  21.582  0.00  0.00    +0.000 C 
ATOM     15  C   UNL     1      -3.842  13.028  21.824  0.00  0.00    +0.000 C 
ATOM     16  C   UNL     1      -3.782  12.789  20.292  0.00  0.00    +0.000 C 
ATOM     17  C   UNL     1      -2.694  11.774  19.923  0.00  0.00    +0.000 C 
ATOM     18  C   UNL     1      -1.268  12.192  20.407  0.00  0.00    +0.000 C 
ATOM     19  C   UNL     1      -0.818  13.437  19.588  0.00  0.00    +0.000 C 
ENDROOT
BRANCH   4  20
ATOM     20  O   UNL     1      -0.041  13.033  22.312  0.00  0.00    +0.000 OA
ATOM     21  H   UNL     1      -0.186  13.715  23.017  0.00  0.00    +0.000 HD
ENDBRANCH   4  20
BRANCH  10  22
ATOM     22  O   UNL     1      -7.916  13.350  24.431  0.00  0.00    +0.000 OA
ATOM     23  H   UNL     1      -8.280  13.036  25.294  0.00  0.00    +0.000 HD
ENDBRANCH  10  22
BRANCH   1  24
ATOM     24  C   UNL     1       1.151  11.224  19.850  0.00  0.00    +0.000 C 
BRANCH  24  25
ATOM     25  C   UNL     1       1.535  10.811  18.409  0.00  0.00    +0.000 C 
BRANCH  25  26
ATOM     26  C   UNL     1       1.346   9.335  18.020  0.00  0.00    +0.000 C 
BRANCH  26  27
ATOM     27  N   UNL     1       1.892   8.516  19.107  0.00  0.00    +0.000 NA
ATOM     28  H   UNL     1       2.717   9.024  19.514  0.00  0.00    +0.000 HD
BRANCH  27  30
ATOM     29  C   UNL     1       3.376   7.598  17.726  0.00  0.00    +0.000 C 
ATOM     30  O   UNL     1       2.321   7.317  18.620  0.00  0.00    +0.000 OA
ENDBRANCH  27  30
ENDBRANCH  26  27
ENDBRANCH  25  26
ENDBRANCH  24  25
ENDBRANCH   1  24
TORSDOF 7
ENDMDL
