MODEL 1
REMARK VINA RESULT:      -7.5      0.000      0.000
REMARK  Name = 
REMARK  10 active torsions:
REMARK  status: ('A' for Active; 'I' for Inactive)
REMARK    1  A    between atoms: C_1  and  O_2
REMARK    2  A    between atoms: O_2  and  C_3
REMARK    3  A    between atoms: C_6  and  C_7
REMARK    4  A    between atoms: C_9  and  S_10
REMARK    5  A    between atoms: S_10  and  C_13
REMARK    6  A    between atoms: C_13  and  S_14
REMARK    7  A    between atoms: S_14  and  C_15
REMARK    8  A    between atoms: C_19  and  C_20
REMARK    9  A    between atoms: C_23  and  O_24
REMARK   10  A    between atoms: O_24  and  C_25
REMARK                            x       y       z     vdW  Elec       q    Type
REMARK                         _______ _______ _______ _____ _____    ______ ____
ROOT
ATOM      1  C   UNL     1       6.007   5.188  18.157  0.00  0.00    +0.000 A 
ATOM      2  N   UNL     1       5.455   4.729  19.342  0.00  0.00    +0.000 NA
ATOM      3  C   UNL     1       4.816   3.621  19.022  0.00  0.00    +0.000 A 
ATOM      4  N   UNL     1       4.924   3.359  17.684  0.00  0.00    +0.000 N 
ATOM      5  C   UNL     1       5.688   4.340  17.093  0.00  0.00    +0.000 A 
ATOM      6  H   UNL     1       4.505   2.557  17.230  0.00  0.00    +0.000 HD
ENDROOT
BRANCH   1  10
ATOM      7  C   UNL     1       8.237   8.838  18.147  0.00  0.00    +0.000 A 
ATOM      8  C   UNL     1       7.118   8.686  17.325  0.00  0.00    +0.000 A 
ATOM      9  C   UNL     1       6.401   7.481  17.311  0.00  0.00    +0.000 A 
ATOM     10  C   UNL     1       6.811   6.403  18.102  0.00  0.00    +0.000 A 
ATOM     11  C   UNL     1       7.989   6.539  18.850  0.00  0.00    +0.000 A 
ATOM     12  C   UNL     1       8.680   7.755  18.899  0.00  0.00    +0.000 A 
BRANCH   7  14
ATOM     13  C   UNL     1       9.401  10.519  19.335  0.00  0.00    +0.000 C 
ATOM     14  O   UNL     1       8.834  10.068  18.108  0.00  0.00    +0.000 OA
ENDBRANCH   7  14
ENDBRANCH   1  10
BRANCH   5  15
ATOM     15  C   UNL     1       5.987   4.346  15.655  0.00  0.00    +0.000 A 
ATOM     16  C   UNL     1       7.218   4.817  15.178  0.00  0.00    +0.000 A 
ATOM     17  C   UNL     1       7.552   4.697  13.823  0.00  0.00    +0.000 A 
ATOM     18  C   UNL     1       6.682   4.075  12.929  0.00  0.00    +0.000 A 
ATOM     19  C   UNL     1       5.432   3.657  13.378  0.00  0.00    +0.000 A 
ATOM     20  C   UNL     1       5.079   3.825  14.722  0.00  0.00    +0.000 A 
BRANCH  18  21
ATOM     21  O   UNL     1       7.133   3.965  11.644  0.00  0.00    +0.000 OA
ATOM     22  C   UNL     1       7.290   2.634  11.161  0.00  0.00    +0.000 C 
ENDBRANCH  18  21
ENDBRANCH   5  15
BRANCH   3  23
ATOM     23  S   UNL     1       3.895   2.566  20.108  0.00  0.00    +0.000 S 
ATOM     24  O   UNL     1       4.887   1.590  20.514  0.00  0.00    +0.000 OA
ATOM     25  O   UNL     1       3.270   3.468  21.055  0.00  0.00    +0.000 OA
BRANCH  23  26
ATOM     26  C   UNL     1       2.688   1.864  19.053  0.00  0.00    +0.000 C 
BRANCH  26  27
ATOM     27  S   UNL     1       1.195   2.800  19.025  0.00  0.00    +0.000 S 
ATOM     28  C   UNL     1       1.492   4.215  17.993  0.00  0.00    +0.000 C 
ATOM     29  O   UNL     1       0.218   1.977  18.327  0.00  0.00    +0.000 OA
ATOM     30  O   UNL     1       0.901   3.263  20.363  0.00  0.00    +0.000 OA
ENDBRANCH  26  27
ENDBRANCH  23  26
ENDBRANCH   3  23
TORSDOF 7
ENDMDL
MODEL 2
REMARK VINA RESULT:      -7.2      1.051      1.118
REMARK  Name = 
REMARK  10 active torsions:
REMARK  status: ('A' for Active; 'I' for Inactive)
REMARK    1  A    between atoms: C_1  and  O_2
REMARK    2  A    between atoms: O_2  and  C_3
REMARK    3  A    between atoms: C_6  and  C_7
REMARK    4  A    between atoms: C_9  and  S_10
REMARK    5  A    between atoms: S_10  and  C_13
REMARK    6  A    between atoms: C_13  and  S_14
REMARK    7  A    between atoms: S_14  and  C_15
REMARK    8  A    between atoms: C_19  and  C_20
REMARK    9  A    between atoms: C_23  and  O_24
REMARK   10  A    between atoms: O_24  and  C_25
REMARK                            x       y       z     vdW  Elec       q    Type
REMARK                         _______ _______ _______ _____ _____    ______ ____
ROOT
ATOM      1  C   UNL     1       6.041   5.076  18.173  0.00  0.00    +0.000 A 
ATOM      2  N   UNL     1       5.505   4.594  19.355  0.00  0.00    +0.000 NA
ATOM      3  C   UNL     1       4.866   3.490  19.023  0.00  0.00    +0.000 A 
ATOM      4  N   UNL     1       4.960   3.252  17.679  0.00  0.00    +0.000 N 
ATOM      5  C   UNL     1       5.713   4.247  17.097  0.00  0.00    +0.000 A 
ATOM      6  H   UNL     1       4.540   2.457  17.215  0.00  0.00    +0.000 HD
ENDROOT
BRANCH   1  10
ATOM      7  C   UNL     1       8.248   8.741  18.195  0.00  0.00    +0.000 A 
ATOM      8  C   UNL     1       7.163   8.569  17.332  0.00  0.00    +0.000 A 
ATOM      9  C   UNL     1       6.454   7.360  17.309  0.00  0.00    +0.000 A 
ATOM     10  C   UNL     1       6.840   6.296  18.131  0.00  0.00    +0.000 A 
ATOM     11  C   UNL     1       7.987   6.450  18.922  0.00  0.00    +0.000 A 
ATOM     12  C   UNL     1       8.669   7.672  18.980  0.00  0.00    +0.000 A 
BRANCH   7  14
ATOM     13  C   UNL     1       9.339  10.455  19.406  0.00  0.00    +0.000 C 
ATOM     14  O   UNL     1       8.840   9.973  18.162  0.00  0.00    +0.000 OA
ENDBRANCH   7  14
ENDBRANCH   1  10
BRANCH   5  15
ATOM     15  C   UNL     1       5.996   4.280  15.656  0.00  0.00    +0.000 A 
ATOM     16  C   UNL     1       7.228   4.746  15.175  0.00  0.00    +0.000 A 
ATOM     17  C   UNL     1       7.545   4.651  13.814  0.00  0.00    +0.000 A 
ATOM     18  C   UNL     1       6.656   4.061  12.918  0.00  0.00    +0.000 A 
ATOM     19  C   UNL     1       5.406   3.649  13.371  0.00  0.00    +0.000 A 
ATOM     20  C   UNL     1       5.071   3.792  14.723  0.00  0.00    +0.000 A 
BRANCH  18  21
ATOM     21  O   UNL     1       7.092   3.972  11.625  0.00  0.00    +0.000 OA
ATOM     22  C   UNL     1       7.297   2.651  11.136  0.00  0.00    +0.000 C 
ENDBRANCH  18  21
ENDBRANCH   5  15
BRANCH   3  23
ATOM     23  S   UNL     1       3.962   2.411  20.100  0.00  0.00    +0.000 S 
ATOM     24  O   UNL     1       3.233   1.574  19.167  0.00  0.00    +0.000 OA
ATOM     25  O   UNL     1       4.960   1.870  21.001  0.00  0.00    +0.000 OA
BRANCH  23  26
ATOM     26  C   UNL     1       2.899   3.504  20.958  0.00  0.00    +0.000 C 
BRANCH  26  27
ATOM     27  S   UNL     1       1.802   4.361  19.877  0.00  0.00    +0.000 S 
ATOM     28  C   UNL     1       2.271   6.073  19.917  0.00  0.00    +0.000 C 
ATOM     29  O   UNL     1       2.103   3.881  18.536  0.00  0.00    +0.000 OA
ATOM     30  O   UNL     1       0.452   4.244  20.382  0.00  0.00    +0.000 OA
ENDBRANCH  26  27
ENDBRANCH  23  26
ENDBRANCH   3  23
TORSDOF 7
ENDMDL
MODEL 3
REMARK VINA RESULT:      -7.1      1.116      1.329
REMARK  Name = 
REMARK  10 active torsions:
REMARK  status: ('A' for Active; 'I' for Inactive)
REMARK    1  A    between atoms: C_1  and  O_2
REMARK    2  A    between atoms: O_2  and  C_3
REMARK    3  A    between atoms: C_6  and  C_7
REMARK    4  A    between atoms: C_9  and  S_10
REMARK    5  A    between atoms: S_10  and  C_13
REMARK    6  A    between atoms: C_13  and  S_14
REMARK    7  A    between atoms: S_14  and  C_15
REMARK    8  A    between atoms: C_19  and  C_20
REMARK    9  A    between atoms: C_23  and  O_24
REMARK   10  A    between atoms: O_24  and  C_25
REMARK                            x       y       z     vdW  Elec       q    Type
REMARK                         _______ _______ _______ _____ _____    ______ ____
ROOT
ATOM      1  C   UNL     1       6.094   5.026  18.022  0.00  0.00    +0.000 A 
ATOM      2  N   UNL     1       5.561   4.471  19.173  0.00  0.00    +0.000 NA
ATOM      3  C   UNL     1       4.945   3.374  18.778  0.00  0.00    +0.000 A 
ATOM      4  N   UNL     1       5.052   3.210  17.424  0.00  0.00    +0.000 N 
ATOM      5  C   UNL     1       5.789   4.249  16.901  0.00  0.00    +0.000 A 
ATOM      6  H   UNL     1       4.649   2.434  16.915  0.00  0.00    +0.000 HD
ENDROOT
BRANCH   1  10
ATOM      7  C   UNL     1       8.227   8.727  18.249  0.00  0.00    +0.000 A 
ATOM      8  C   UNL     1       7.176   8.566  17.344  0.00  0.00    +0.000 A 
ATOM      9  C   UNL     1       6.492   7.346  17.253  0.00  0.00    +0.000 A 
ATOM     10  C   UNL     1       6.870   6.260  18.051  0.00  0.00    +0.000 A 
ATOM     11  C   UNL     1       7.986   6.408  18.886  0.00  0.00    +0.000 A 
ATOM     12  C   UNL     1       8.641   7.639  19.010  0.00  0.00    +0.000 A 
BRANCH   7  14
ATOM     13  C   UNL     1       9.358  10.365  19.527  0.00  0.00    +0.000 C 
ATOM     14  O   UNL     1       8.795   9.971  18.279  0.00  0.00    +0.000 OA
ENDBRANCH   7  14
ENDBRANCH   1  10
BRANCH   5  15
ATOM     15  C   UNL     1       6.081   4.364  15.466  0.00  0.00    +0.000 A 
ATOM     16  C   UNL     1       7.238   5.014  15.017  0.00  0.00    +0.000 A 
ATOM     17  C   UNL     1       7.580   5.005  13.659  0.00  0.00    +0.000 A 
ATOM     18  C   UNL     1       6.795   4.320  12.733  0.00  0.00    +0.000 A 
ATOM     19  C   UNL     1       5.611   3.722  13.156  0.00  0.00    +0.000 A 
ATOM     20  C   UNL     1       5.245   3.777  14.506  0.00  0.00    +0.000 A 
BRANCH  18  21
ATOM     21  O   UNL     1       7.253   4.333  11.445  0.00  0.00    +0.000 OA
ATOM     22  C   UNL     1       7.655   5.606  10.948  0.00  0.00    +0.000 C 
ENDBRANCH  18  21
ENDBRANCH   5  15
BRANCH   3  23
ATOM     23  S   UNL     1       4.055   2.223  19.789  0.00  0.00    +0.000 S 
ATOM     24  O   UNL     1       3.426   1.361  18.807  0.00  0.00    +0.000 OA
ATOM     25  O   UNL     1       5.037   1.726  20.732  0.00  0.00    +0.000 OA
BRANCH  23  26
ATOM     26  C   UNL     1       2.885   3.234  20.609  0.00  0.00    +0.000 C 
BRANCH  26  27
ATOM     27  S   UNL     1       1.622   3.812  19.525  0.00  0.00    +0.000 S 
ATOM     28  C   UNL     1       0.694   2.388  19.010  0.00  0.00    +0.000 C 
ATOM     29  O   UNL     1       0.725   4.615  20.344  0.00  0.00    +0.000 OA
ATOM     30  O   UNL     1       2.233   4.407  18.358  0.00  0.00    +0.000 OA
ENDBRANCH  26  27
ENDBRANCH  23  26
ENDBRANCH   3  23
TORSDOF 7
ENDMDL
MODEL 4
REMARK VINA RESULT:      -7.0      8.466     10.881
REMARK  Name = 
REMARK  10 active torsions:
REMARK  status: ('A' for Active; 'I' for Inactive)
REMARK    1  A    between atoms: C_1  and  O_2
REMARK    2  A    between atoms: O_2  and  C_3
REMARK    3  A    between atoms: C_6  and  C_7
REMARK    4  A    between atoms: C_9  and  S_10
REMARK    5  A    between atoms: S_10  and  C_13
REMARK    6  A    between atoms: C_13  and  S_14
REMARK    7  A    between atoms: S_14  and  C_15
REMARK    8  A    between atoms: C_19  and  C_20
REMARK    9  A    between atoms: C_23  and  O_24
REMARK   10  A    between atoms: O_24  and  C_25
REMARK                            x       y       z     vdW  Elec       q    Type
REMARK                         _______ _______ _______ _____ _____    ______ ____
ROOT
ATOM      1  C   UNL     1       0.328  11.006  20.126  0.00  0.00    +0.000 A 
ATOM      2  N   UNL     1       0.841  11.847  21.100  0.00  0.00    +0.000 NA
ATOM      3  C   UNL     1       0.031  12.887  21.123  0.00  0.00    +0.000 A 
ATOM      4  N   UNL     1      -0.968  12.754  20.198  0.00  0.00    +0.000 N 
ATOM      5  C   UNL     1      -0.816  11.554  19.540  0.00  0.00    +0.000 A 
ATOM      6  H   UNL     1      -1.696  13.441  20.049  0.00  0.00    +0.000 HD
ENDROOT
BRANCH   1  10
ATOM      7  C   UNL     1       2.345   7.335  19.257  0.00  0.00    +0.000 A 
ATOM      8  C   UNL     1       2.245   8.338  18.290  0.00  0.00    +0.000 A 
ATOM      9  C   UNL     1       1.564   9.532  18.567  0.00  0.00    +0.000 A 
ATOM     10  C   UNL     1       0.950   9.726  19.809  0.00  0.00    +0.000 A 
ATOM     11  C   UNL     1       0.979   8.674  20.735  0.00  0.00    +0.000 A 
ATOM     12  C   UNL     1       1.697   7.500  20.477  0.00  0.00    +0.000 A 
BRANCH   7  14
ATOM     13  C   UNL     1       3.195   5.219  19.884  0.00  0.00    +0.000 C 
ATOM     14  O   UNL     1       3.065   6.232  18.891  0.00  0.00    +0.000 OA
ENDBRANCH   7  14
ENDBRANCH   1  10
BRANCH   5  15
ATOM     15  C   UNL     1      -1.733  11.115  18.479  0.00  0.00    +0.000 A 
ATOM     16  C   UNL     1      -2.964  11.755  18.282  0.00  0.00    +0.000 A 
ATOM     17  C   UNL     1      -3.774  11.423  17.188  0.00  0.00    +0.000 A 
ATOM     18  C   UNL     1      -3.355  10.475  16.256  0.00  0.00    +0.000 A 
ATOM     19  C   UNL     1      -2.163   9.790  16.473  0.00  0.00    +0.000 A 
ATOM     20  C   UNL     1      -1.380  10.087  17.595  0.00  0.00    +0.000 A 
BRANCH  18  21
ATOM     21  O   UNL     1      -4.199  10.270  15.201  0.00  0.00    +0.000 OA
ATOM     22  C   UNL     1      -3.567  10.037  13.946  0.00  0.00    +0.000 C 
ENDBRANCH  18  21
ENDBRANCH   5  15
BRANCH   3  23
ATOM     23  S   UNL     1       0.157  14.319  22.160  0.00  0.00    +0.000 S 
ATOM     24  O   UNL     1      -0.623  13.937  23.321  0.00  0.00    +0.000 OA
ATOM     25  O   UNL     1       1.579  14.589  22.242  0.00  0.00    +0.000 OA
BRANCH  23  26
ATOM     26  C   UNL     1      -0.643  15.561  21.222  0.00  0.00    +0.000 C 
BRANCH  26  27
ATOM     27  S   UNL     1       0.395  16.225  19.962  0.00  0.00    +0.000 S 
ATOM     28  C   UNL     1      -0.634  17.230  18.921  0.00  0.00    +0.000 C 
ATOM     29  O   UNL     1       1.315  17.132  20.634  0.00  0.00    +0.000 OA
ATOM     30  O   UNL     1       0.930  15.140  19.168  0.00  0.00    +0.000 OA
ENDBRANCH  26  27
ENDBRANCH  23  26
ENDBRANCH   3  23
TORSDOF 7
ENDMDL
MODEL 5
REMARK VINA RESULT:      -7.0      0.601      1.165
REMARK  Name = 
REMARK  10 active torsions:
REMARK  status: ('A' for Active; 'I' for Inactive)
REMARK    1  A    between atoms: C_1  and  O_2
REMARK    2  A    between atoms: O_2  and  C_3
REMARK    3  A    between atoms: C_6  and  C_7
REMARK    4  A    between atoms: C_9  and  S_10
REMARK    5  A    between atoms: S_10  and  C_13
REMARK    6  A    between atoms: C_13  and  S_14
REMARK    7  A    between atoms: S_14  and  C_15
REMARK    8  A    between atoms: C_19  and  C_20
REMARK    9  A    between atoms: C_23  and  O_24
REMARK   10  A    between atoms: O_24  and  C_25
REMARK                            x       y       z     vdW  Elec       q    Type
REMARK                         _______ _______ _______ _____ _____    ______ ____
ROOT
ATOM      1  C   UNL     1       5.859   5.190  18.209  0.00  0.00    +0.000 A 
ATOM      2  N   UNL     1       5.303   4.703  19.380  0.00  0.00    +0.000 NA
ATOM      3  C   UNL     1       4.726   3.566  19.044  0.00  0.00    +0.000 A 
ATOM      4  N   UNL     1       4.878   3.311  17.709  0.00  0.00    +0.000 N 
ATOM      5  C   UNL     1       5.606   4.330  17.137  0.00  0.00    +0.000 A 
ATOM      6  H   UNL     1       4.510   2.492  17.244  0.00  0.00    +0.000 HD
ENDROOT
BRANCH   1  10
ATOM      7  C   UNL     1       8.164   8.784  17.945  0.00  0.00    +0.000 A 
ATOM      8  C   UNL     1       8.588   7.725  18.750  0.00  0.00    +0.000 A 
ATOM      9  C   UNL     1       7.821   6.556  18.855  0.00  0.00    +0.000 A 
ATOM     10  C   UNL     1       6.604   6.443  18.174  0.00  0.00    +0.000 A 
ATOM     11  C   UNL     1       6.146   7.550  17.446  0.00  0.00    +0.000 A 
ATOM     12  C   UNL     1       6.931   8.700  17.304  0.00  0.00    +0.000 A 
BRANCH   7  14
ATOM     13  C   UNL     1       9.323  10.468  19.135  0.00  0.00    +0.000 C 
ATOM     14  O   UNL     1       9.010   9.857  17.887  0.00  0.00    +0.000 OA
ENDBRANCH   7  14
ENDBRANCH   1  10
BRANCH   5  15
ATOM     15  C   UNL     1       5.939   4.354  15.706  0.00  0.00    +0.000 A 
ATOM     16  C   UNL     1       7.161   4.875  15.260  0.00  0.00    +0.000 A 
ATOM     17  C   UNL     1       7.531   4.774  13.913  0.00  0.00    +0.000 A 
ATOM     18  C   UNL     1       6.706   4.123  12.996  0.00  0.00    +0.000 A 
ATOM     19  C   UNL     1       5.463   3.656  13.414  0.00  0.00    +0.000 A 
ATOM     20  C   UNL     1       5.073   3.804  14.750  0.00  0.00    +0.000 A 
BRANCH  18  21
ATOM     21  O   UNL     1       7.191   4.036  11.722  0.00  0.00    +0.000 OA
ATOM     22  C   UNL     1       7.245   2.722  11.174  0.00  0.00    +0.000 C 
ENDBRANCH  18  21
ENDBRANCH   5  15
BRANCH   3  23
ATOM     23  S   UNL     1       3.833   2.464  20.107  0.00  0.00    +0.000 S 
ATOM     24  O   UNL     1       4.865   1.544  20.546  0.00  0.00    +0.000 OA
ATOM     25  O   UNL     1       3.132   3.333  21.032  0.00  0.00    +0.000 OA
BRANCH  23  26
ATOM     26  C   UNL     1       2.698   1.694  19.020  0.00  0.00    +0.000 C 
BRANCH  26  27
ATOM     27  S   UNL     1       1.401   2.779  18.526  0.00  0.00    +0.000 S 
ATOM     28  C   UNL     1       1.219   3.987  19.815  0.00  0.00    +0.000 C 
ATOM     29  O   UNL     1       1.896   3.493  17.357  0.00  0.00    +0.000 OA
ATOM     30  O   UNL     1       0.168   2.030  18.424  0.00  0.00    +0.000 OA
ENDBRANCH  26  27
ENDBRANCH  23  26
ENDBRANCH   3  23
TORSDOF 7
ENDMDL
MODEL 6
REMARK VINA RESULT:      -7.0      4.715      7.101
REMARK  Name = 
REMARK  10 active torsions:
REMARK  status: ('A' for Active; 'I' for Inactive)
REMARK    1  A    between atoms: C_1  and  O_2
REMARK    2  A    between atoms: O_2  and  C_3
REMARK    3  A    between atoms: C_6  and  C_7
REMARK    4  A    between atoms: C_9  and  S_10
REMARK    5  A    between atoms: S_10  and  C_13
REMARK    6  A    between atoms: C_13  and  S_14
REMARK    7  A    between atoms: S_14  and  C_15
REMARK    8  A    between atoms: C_19  and  C_20
REMARK    9  A    between atoms: C_23  and  O_24
REMARK   10  A    between atoms: O_24  and  C_25
REMARK                            x       y       z     vdW  Elec       q    Type
REMARK                         _______ _______ _______ _____ _____    ______ ____
ROOT
ATOM      1  C   UNL     1       3.584   7.130  17.913  0.00  0.00    +0.000 A 
ATOM      2  N   UNL     1       3.074   8.390  17.651  0.00  0.00    +0.000 NA
ATOM      3  C   UNL     1       2.083   8.549  18.507  0.00  0.00    +0.000 A 
ATOM      4  N   UNL     1       1.931   7.442  19.295  0.00  0.00    +0.000 N 
ATOM      5  C   UNL     1       2.881   6.508  18.948  0.00  0.00    +0.000 A 
ATOM      6  H   UNL     1       1.227   7.354  20.017  0.00  0.00    +0.000 HD
ENDROOT
BRANCH   1  10
ATOM      7  C   UNL     1       6.890   5.711  15.598  0.00  0.00    +0.000 A 
ATOM      8  C   UNL     1       5.579   5.388  15.239  0.00  0.00    +0.000 A 
ATOM      9  C   UNL     1       4.497   5.834  16.010  0.00  0.00    +0.000 A 
ATOM     10  C   UNL     1       4.715   6.588  17.169  0.00  0.00    +0.000 A 
ATOM     11  C   UNL     1       6.038   6.824  17.567  0.00  0.00    +0.000 A 
ATOM     12  C   UNL     1       7.118   6.418  16.774  0.00  0.00    +0.000 A 
BRANCH   7  14
ATOM     13  C   UNL     1       7.425   4.883  13.448  0.00  0.00    +0.000 C 
ATOM     14  O   UNL     1       7.863   5.257  14.751  0.00  0.00    +0.000 OA
ENDBRANCH   7  14
ENDBRANCH   1  10
BRANCH   5  15
ATOM     15  C   UNL     1       2.981   5.201  19.612  0.00  0.00    +0.000 A 
ATOM     16  C   UNL     1       3.931   4.257  19.202  0.00  0.00    +0.000 A 
ATOM     17  C   UNL     1       4.113   3.068  19.921  0.00  0.00    +0.000 A 
ATOM     18  C   UNL     1       3.376   2.818  21.077  0.00  0.00    +0.000 A 
ATOM     19  C   UNL     1       2.387   3.719  21.461  0.00  0.00    +0.000 A 
ATOM     20  C   UNL     1       2.172   4.882  20.711  0.00  0.00    +0.000 A 
BRANCH  18  21
ATOM     21  O   UNL     1       3.674   1.654  21.728  0.00  0.00    +0.000 OA
ATOM     22  C   UNL     1       4.964   1.113  21.459  0.00  0.00    +0.000 C 
ENDBRANCH  18  21
ENDBRANCH   5  15
BRANCH   3  23
ATOM     23  S   UNL     1       1.025   9.962  18.669  0.00  0.00    +0.000 S 
ATOM     24  O   UNL     1       1.931  11.065  18.409  0.00  0.00    +0.000 OA
ATOM     25  O   UNL     1      -0.105   9.675  17.808  0.00  0.00    +0.000 OA
BRANCH  23  26
ATOM     26  C   UNL     1       0.538   9.904  20.349  0.00  0.00    +0.000 C 
BRANCH  26  27
ATOM     27  S   UNL     1       0.051  11.483  20.961  0.00  0.00    +0.000 S 
ATOM     28  C   UNL     1      -0.840  11.198  22.470  0.00  0.00    +0.000 C 
ATOM     29  O   UNL     1       1.281  12.169  21.331  0.00  0.00    +0.000 OA
ATOM     30  O   UNL     1      -0.845  12.104  20.011  0.00  0.00    +0.000 OA
ENDBRANCH  26  27
ENDBRANCH  23  26
ENDBRANCH   3  23
TORSDOF 7
ENDMDL
MODEL 7
REMARK VINA RESULT:      -7.0      8.595     10.579
REMARK  Name = 
REMARK  10 active torsions:
REMARK  status: ('A' for Active; 'I' for Inactive)
REMARK    1  A    between atoms: C_1  and  O_2
REMARK    2  A    between atoms: O_2  and  C_3
REMARK    3  A    between atoms: C_6  and  C_7
REMARK    4  A    between atoms: C_9  and  S_10
REMARK    5  A    between atoms: S_10  and  C_13
REMARK    6  A    between atoms: C_13  and  S_14
REMARK    7  A    between atoms: S_14  and  C_15
REMARK    8  A    between atoms: C_19  and  C_20
REMARK    9  A    between atoms: C_23  and  O_24
REMARK   10  A    between atoms: O_24  and  C_25
REMARK                            x       y       z     vdW  Elec       q    Type
REMARK                         _______ _______ _______ _____ _____    ______ ____
ROOT
ATOM      1  C   UNL     1      -0.008  10.721  20.091  0.00  0.00    +0.000 A 
ATOM      2  N   UNL     1       0.197  11.390  21.286  0.00  0.00    +0.000 NA
ATOM      3  C   UNL     1      -0.796  12.253  21.376  0.00  0.00    +0.000 A 
ATOM      4  N   UNL     1      -1.619  12.173  20.286  0.00  0.00    +0.000 N 
ATOM      5  C   UNL     1      -1.149  11.195  19.438  0.00  0.00    +0.000 A 
ATOM      6  H   UNL     1      -2.440  12.749  20.154  0.00  0.00    +0.000 HD
ENDROOT
BRANCH   1  10
ATOM      7  C   UNL     1       2.448   7.499  18.717  0.00  0.00    +0.000 A 
ATOM      8  C   UNL     1       2.031   7.558  20.048  0.00  0.00    +0.000 A 
ATOM      9  C   UNL     1       1.245   8.625  20.505  0.00  0.00    +0.000 A 
ATOM     10  C   UNL     1       0.889   9.664  19.637  0.00  0.00    +0.000 A 
ATOM     11  C   UNL     1       1.393   9.639  18.330  0.00  0.00    +0.000 A 
ATOM     12  C   UNL     1       2.140   8.552  17.861  0.00  0.00    +0.000 A 
BRANCH   7  14
ATOM     13  C   UNL     1       3.305   5.399  19.385  0.00  0.00    +0.000 C 
ATOM     14  O   UNL     1       3.176   6.393  18.374  0.00  0.00    +0.000 OA
ENDBRANCH   7  14
ENDBRANCH   1  10
BRANCH   5  15
ATOM     15  C   UNL     1      -1.813  10.866  18.170  0.00  0.00    +0.000 A 
ATOM     16  C   UNL     1      -2.479   9.644  18.002  0.00  0.00    +0.000 A 
ATOM     17  C   UNL     1      -3.223   9.390  16.843  0.00  0.00    +0.000 A 
ATOM     18  C   UNL     1      -3.344  10.360  15.849  0.00  0.00    +0.000 A 
ATOM     19  C   UNL     1      -2.639  11.554  15.976  0.00  0.00    +0.000 A 
ATOM     20  C   UNL     1      -1.854  11.785  17.112  0.00  0.00    +0.000 A 
BRANCH  18  21
ATOM     21  O   UNL     1      -4.138  10.025  14.789  0.00  0.00    +0.000 OA
ATOM     22  C   UNL     1      -3.472   9.913  13.535  0.00  0.00    +0.000 C 
ENDBRANCH  18  21
ENDBRANCH   5  15
BRANCH   3  23
ATOM     23  S   UNL     1      -1.091  13.413  22.683  0.00  0.00    +0.000 S 
ATOM     24  O   UNL     1      -1.427  12.551  23.799  0.00  0.00    +0.000 OA
ATOM     25  O   UNL     1       0.084  14.262  22.692  0.00  0.00    +0.000 OA
BRANCH  23  26
ATOM     26  C   UNL     1      -2.482  14.309  22.114  0.00  0.00    +0.000 C 
BRANCH  26  27
ATOM     27  S   UNL     1      -3.991  13.714  22.801  0.00  0.00    +0.000 S 
ATOM     28  C   UNL     1      -5.304  14.634  22.037  0.00  0.00    +0.000 C 
ATOM     29  O   UNL     1      -4.129  12.339  22.342  0.00  0.00    +0.000 OA
ATOM     30  O   UNL     1      -4.006  13.989  24.221  0.00  0.00    +0.000 OA
ENDBRANCH  26  27
ENDBRANCH  23  26
ENDBRANCH   3  23
TORSDOF 7
ENDMDL
MODEL 8
REMARK VINA RESULT:      -7.0      8.528     10.630
REMARK  Name = 
REMARK  10 active torsions:
REMARK  status: ('A' for Active; 'I' for Inactive)
REMARK    1  A    between atoms: C_1  and  O_2
REMARK    2  A    between atoms: O_2  and  C_3
REMARK    3  A    between atoms: C_6  and  C_7
REMARK    4  A    between atoms: C_9  and  S_10
REMARK    5  A    between atoms: S_10  and  C_13
REMARK    6  A    between atoms: C_13  and  S_14
REMARK    7  A    between atoms: S_14  and  C_15
REMARK    8  A    between atoms: C_19  and  C_20
REMARK    9  A    between atoms: C_23  and  O_24
REMARK   10  A    between atoms: O_24  and  C_25
REMARK                            x       y       z     vdW  Elec       q    Type
REMARK                         _______ _______ _______ _____ _____    ______ ____
ROOT
ATOM      1  C   UNL     1       0.464  11.179  19.603  0.00  0.00    +0.000 A 
ATOM      2  N   UNL     1       1.023  12.105  20.468  0.00  0.00    +0.000 NA
ATOM      3  C   UNL     1       0.215  13.147  20.430  0.00  0.00    +0.000 A 
ATOM      4  N   UNL     1      -0.827  12.932  19.570  0.00  0.00    +0.000 N 
ATOM      5  C   UNL     1      -0.706  11.675  19.022  0.00  0.00    +0.000 A 
ATOM      6  H   UNL     1      -1.560  13.605  19.392  0.00  0.00    +0.000 HD
ENDROOT
BRANCH   1  10
ATOM      7  C   UNL     1       2.433   7.428  19.008  0.00  0.00    +0.000 A 
ATOM      8  C   UNL     1       2.376   8.372  17.981  0.00  0.00    +0.000 A 
ATOM      9  C   UNL     1       1.712   9.592  18.168  0.00  0.00    +0.000 A 
ATOM     10  C   UNL     1       1.070   9.871  19.380  0.00  0.00    +0.000 A 
ATOM     11  C   UNL     1       1.055   8.876  20.367  0.00  0.00    +0.000 A 
ATOM     12  C   UNL     1       1.756   7.677  20.198  0.00  0.00    +0.000 A 
BRANCH   7  14
ATOM     13  C   UNL     1       3.303   5.380  19.810  0.00  0.00    +0.000 C 
ATOM     14  O   UNL     1       3.141   6.292  18.727  0.00  0.00    +0.000 OA
ENDBRANCH   7  14
ENDBRANCH   1  10
BRANCH   5  15
ATOM     15  C   UNL     1      -1.672  11.142  18.052  0.00  0.00    +0.000 A 
ATOM     16  C   UNL     1      -2.900  11.782  17.833  0.00  0.00    +0.000 A 
ATOM     17  C   UNL     1      -3.759  11.350  16.815  0.00  0.00    +0.000 A 
ATOM     18  C   UNL     1      -3.394  10.298  15.977  0.00  0.00    +0.000 A 
ATOM     19  C   UNL     1      -2.206   9.615  16.222  0.00  0.00    +0.000 A 
ATOM     20  C   UNL     1      -1.373  10.016  17.273  0.00  0.00    +0.000 A 
BRANCH  18  21
ATOM     21  O   UNL     1      -4.283   9.997  14.984  0.00  0.00    +0.000 OA
ATOM     22  C   UNL     1      -3.746   9.973  13.665  0.00  0.00    +0.000 C 
ENDBRANCH  18  21
ENDBRANCH   5  15
BRANCH   3  23
ATOM     23  S   UNL     1       0.391  14.670  21.319  0.00  0.00    +0.000 S 
ATOM     24  O   UNL     1       1.369  14.330  22.334  0.00  0.00    +0.000 OA
ATOM     25  O   UNL     1       0.655  15.664  20.298  0.00  0.00    +0.000 OA
BRANCH  23  26
ATOM     26  C   UNL     1      -1.199  14.915  22.007  0.00  0.00    +0.000 C 
BRANCH  26  27
ATOM     27  S   UNL     1      -1.388  14.111  23.564  0.00  0.00    +0.000 S 
ATOM     28  C   UNL     1      -3.130  14.057  23.908  0.00  0.00    +0.000 C 
ATOM     29  O   UNL     1      -0.964  12.734  23.360  0.00  0.00    +0.000 OA
ATOM     30  O   UNL     1      -0.744  14.904  24.588  0.00  0.00    +0.000 OA
ENDBRANCH  26  27
ENDBRANCH  23  26
ENDBRANCH   3  23
TORSDOF 7
ENDMDL
MODEL 9
REMARK VINA RESULT:      -6.9      7.986     11.443
REMARK  Name = 
REMARK  10 active torsions:
REMARK  status: ('A' for Active; 'I' for Inactive)
REMARK    1  A    between atoms: C_1  and  O_2
REMARK    2  A    between atoms: O_2  and  C_3
REMARK    3  A    between atoms: C_6  and  C_7
REMARK    4  A    between atoms: C_9  and  S_10
REMARK    5  A    between atoms: S_10  and  C_13
REMARK    6  A    between atoms: C_13  and  S_14
REMARK    7  A    between atoms: S_14  and  C_15
REMARK    8  A    between atoms: C_19  and  C_20
REMARK    9  A    between atoms: C_23  and  O_24
REMARK   10  A    between atoms: O_24  and  C_25
REMARK                            x       y       z     vdW  Elec       q    Type
REMARK                         _______ _______ _______ _____ _____    ______ ____
ROOT
ATOM      1  C   UNL     1       1.102  11.458  18.916  0.00  0.00    +0.000 A 
ATOM      2  N   UNL     1       2.129  12.386  18.963  0.00  0.00    +0.000 NA
ATOM      3  C   UNL     1       1.556  13.550  18.726  0.00  0.00    +0.000 A 
ATOM      4  N   UNL     1       0.213  13.405  18.518  0.00  0.00    +0.000 N 
ATOM      5  C   UNL     1      -0.121  12.074  18.637  0.00  0.00    +0.000 A 
ATOM      6  H   UNL     1      -0.415  14.173  18.318  0.00  0.00    +0.000 HD
ENDROOT
BRANCH   1  10
ATOM      7  C   UNL     1       1.998   7.338  19.641  0.00  0.00    +0.000 A 
ATOM      8  C   UNL     1       2.246   7.910  18.392  0.00  0.00    +0.000 A 
ATOM      9  C   UNL     1       1.931   9.254  18.147  0.00  0.00    +0.000 A 
ATOM     10  C   UNL     1       1.338  10.037  19.144  0.00  0.00    +0.000 A 
ATOM     11  C   UNL     1       1.010   9.423  20.361  0.00  0.00    +0.000 A 
ATOM     12  C   UNL     1       1.365   8.094  20.622  0.00  0.00    +0.000 A 
BRANCH   7  14
ATOM     13  C   UNL     1       3.699   5.723  19.334  0.00  0.00    +0.000 C 
ATOM     14  O   UNL     1       2.382   6.033  19.779  0.00  0.00    +0.000 OA
ENDBRANCH   7  14
ENDBRANCH   1  10
BRANCH   5  15
ATOM     15  C   UNL     1      -1.496  11.588  18.465  0.00  0.00    +0.000 A 
ATOM     16  C   UNL     1      -2.557  12.161  19.179  0.00  0.00    +0.000 A 
ATOM     17  C   UNL     1      -3.881  11.787  18.914  0.00  0.00    +0.000 A 
ATOM     18  C   UNL     1      -4.171  10.863  17.912  0.00  0.00    +0.000 A 
ATOM     19  C   UNL     1      -3.124  10.242  17.237  0.00  0.00    +0.000 A 
ATOM     20  C   UNL     1      -1.799  10.579  17.539  0.00  0.00    +0.000 A 
BRANCH  18  21
ATOM     21  O   UNL     1      -5.498  10.614  17.703  0.00  0.00    +0.000 OA
ATOM     22  C   UNL     1      -6.343  10.802  18.834  0.00  0.00    +0.000 C 
ENDBRANCH  18  21
ENDBRANCH   5  15
BRANCH   3  23
ATOM     23  S   UNL     1       2.347  15.134  18.646  0.00  0.00    +0.000 S 
ATOM     24  O   UNL     1       3.177  15.012  17.464  0.00  0.00    +0.000 OA
ATOM     25  O   UNL     1       1.261  16.091  18.729  0.00  0.00    +0.000 OA
BRANCH  23  26
ATOM     26  C   UNL     1       3.305  15.176  20.110  0.00  0.00    +0.000 C 
BRANCH  26  27
ATOM     27  S   UNL     1       4.708  16.231  19.965  0.00  0.00    +0.000 S 
ATOM     28  C   UNL     1       5.220  16.638  21.616  0.00  0.00    +0.000 C 
ATOM     29  O   UNL     1       5.768  15.415  19.392  0.00  0.00    +0.000 OA
ATOM     30  O   UNL     1       4.316  17.451  19.293  0.00  0.00    +0.000 OA
ENDBRANCH  26  27
ENDBRANCH  23  26
ENDBRANCH   3  23
TORSDOF 7
ENDMDL
