MODEL 1
REMARK VINA RESULT:      -8.4      0.000      0.000
REMARK  Name = 
REMARK  9 active torsions:
REMARK  status: ('A' for Active; 'I' for Inactive)
REMARK    1  A    between atoms: C_1  and  C_2
REMARK    2  A    between atoms: N_4  and  C_5
REMARK    3  A    between atoms: C_8  and  O_9
REMARK    4  A    between atoms: O_9  and  C_10
REMARK    5  A    between atoms: C_10  and  C_12
REMARK    6  A    between atoms: C_12  and  C_13
REMARK    7  A    between atoms: C_16  and  N_17
REMARK    8  A    between atoms: N_17  and  C_18
REMARK    9  A    between atoms: C_22  and  C_23
REMARK                            x       y       z     vdW  Elec       q    Type
REMARK                         _______ _______ _______ _____ _____    ______ ____
ROOT
ATOM      1  C   UNL     1       1.993   4.645  18.404  0.00  0.00    +0.000 A 
ATOM      2  C   UNL     1       2.413   5.914  17.979  0.00  0.00    +0.000 A 
ATOM      3  C   UNL     1       2.397   6.998  18.866  0.00  0.00    +0.000 A 
ATOM      4  C   UNL     1       1.939   6.842  20.179  0.00  0.00    +0.000 A 
ATOM      5  C   UNL     1       1.502   5.575  20.586  0.00  0.00    +0.000 A 
ATOM      6  C   UNL     1       1.515   4.490  19.709  0.00  0.00    +0.000 A 
ENDROOT
BRANCH   4   7
ATOM      7  N   UNL     1       2.009   7.926  21.087  0.00  0.00    +0.000 N 
ATOM      8  H   UNL     1       2.928   8.363  21.087  0.00  0.00    +0.000 HD
BRANCH   7   9
ATOM      9  C   UNL     1       1.010   8.896  21.335  0.00  0.00    +0.000 A 
ATOM     10  C   UNL     1       0.469   9.097  22.604  0.00  0.00    +0.000 A 
ATOM     11  C   UNL     1      -0.532  10.035  22.762  0.00  0.00    +0.000 A 
ATOM     12  N   UNL     1      -1.036  10.767  21.751  0.00  0.00    +0.000 NA
ATOM     13  C   UNL     1      -0.523  10.565  20.504  0.00  0.00    +0.000 A 
ATOM     14  C   UNL     1       0.498   9.640  20.270  0.00  0.00    +0.000 A 
BRANCH  13  15
ATOM     15  C   UNL     1      -1.086  11.354  19.330  0.00  0.00    +0.000 C 
ATOM     16  F   UNL     1      -1.445  10.591  18.259  0.00  0.00    +0.000 F 
ATOM     17  F   UNL     1      -2.198  12.072  19.665  0.00  0.00    +0.000 F 
ATOM     18  F   UNL     1      -0.195  12.271  18.848  0.00  0.00    +0.000 F 
ENDBRANCH  13  15
ENDBRANCH   7   9
ENDBRANCH   4   7
BRANCH   1  19
ATOM     19  C   UNL     1       2.281   3.421  17.565  0.00  0.00    +0.000 C 
BRANCH  19  20
ATOM     20  C   UNL     1       3.658   2.897  17.919  0.00  0.00    +0.000 C 
ATOM     21  O   UNL     1       3.943   2.285  18.943  0.00  0.00    +0.000 OA
BRANCH  20  22
ATOM     22  O   UNL     1       4.562   3.354  16.962  0.00  0.00    +0.000 OA
BRANCH  22  26
ATOM     23  C   UNL     1       7.288   6.287  18.187  0.00  0.00    +0.000 A 
ATOM     24  C   UNL     1       7.178   5.912  16.844  0.00  0.00    +0.000 A 
ATOM     25  C   UNL     1       6.307   4.889  16.456  0.00  0.00    +0.000 A 
ATOM     26  C   UNL     1       5.556   4.230  17.418  0.00  0.00    +0.000 A 
ATOM     27  C   UNL     1       5.663   4.583  18.765  0.00  0.00    +0.000 A 
ATOM     28  C   UNL     1       6.534   5.605  19.147  0.00  0.00    +0.000 A 
BRANCH  23  32
ATOM     29  C   UNL     1       9.252   9.442  18.800  0.00  0.00    +0.000 C 
ATOM     30  C   UNL     1       8.147   8.629  18.178  0.00  0.00    +0.000 C 
ATOM     31  O   UNL     1       7.385   9.130  17.358  0.00  0.00    +0.000 OA
ATOM     32  N   UNL     1       8.129   7.325  18.639  0.00  0.00    +0.000 N 
ATOM     33  H   UNL     1       8.721   7.109  19.430  0.00  0.00    +0.000 HD
ENDBRANCH  23  32
ENDBRANCH  22  26
ENDBRANCH  20  22
ENDBRANCH  19  20
ENDBRANCH   1  19
TORSDOF 8
ENDMDL
MODEL 2
REMARK VINA RESULT:      -8.3      5.517     10.231
REMARK  Name = 
REMARK  9 active torsions:
REMARK  status: ('A' for Active; 'I' for Inactive)
REMARK    1  A    between atoms: C_1  and  C_2
REMARK    2  A    between atoms: N_4  and  C_5
REMARK    3  A    between atoms: C_8  and  O_9
REMARK    4  A    between atoms: O_9  and  C_10
REMARK    5  A    between atoms: C_10  and  C_12
REMARK    6  A    between atoms: C_12  and  C_13
REMARK    7  A    between atoms: C_16  and  N_17
REMARK    8  A    between atoms: N_17  and  C_18
REMARK    9  A    between atoms: C_22  and  C_23
REMARK                            x       y       z     vdW  Elec       q    Type
REMARK                         _______ _______ _______ _____ _____    ______ ____
ROOT
ATOM      1  C   UNL     1       0.631   8.762  20.792  0.00  0.00    +0.000 A 
ATOM      2  C   UNL     1       0.767   9.506  19.611  0.00  0.00    +0.000 A 
ATOM      3  C   UNL     1       1.598   9.051  18.581  0.00  0.00    +0.000 A 
ATOM      4  C   UNL     1       2.327   7.864  18.719  0.00  0.00    +0.000 A 
ATOM      5  C   UNL     1       2.200   7.140  19.912  0.00  0.00    +0.000 A 
ATOM      6  C   UNL     1       1.373   7.586  20.943  0.00  0.00    +0.000 A 
ENDROOT
BRANCH   4   7
ATOM      7  N   UNL     1       3.095   7.374  17.636  0.00  0.00    +0.000 N 
ATOM      8  H   UNL     1       3.497   8.128  17.083  0.00  0.00    +0.000 HD
BRANCH   7   9
ATOM      9  C   UNL     1       3.967   6.261  17.645  0.00  0.00    +0.000 A 
ATOM     10  C   UNL     1       3.537   4.978  17.308  0.00  0.00    +0.000 A 
ATOM     11  C   UNL     1       4.435   3.932  17.378  0.00  0.00    +0.000 A 
ATOM     12  N   UNL     1       5.715   4.072  17.771  0.00  0.00    +0.000 NA
ATOM     13  C   UNL     1       6.140   5.321  18.118  0.00  0.00    +0.000 A 
ATOM     14  C   UNL     1       5.289   6.428  18.062  0.00  0.00    +0.000 A 
BRANCH  13  15
ATOM     15  C   UNL     1       7.572   5.515  18.595  0.00  0.00    +0.000 C 
ATOM     16  F   UNL     1       8.169   6.653  18.140  0.00  0.00    +0.000 F 
ATOM     17  F   UNL     1       7.670   5.561  19.956  0.00  0.00    +0.000 F 
ATOM     18  F   UNL     1       8.389   4.490  18.208  0.00  0.00    +0.000 F 
ENDBRANCH  13  15
ENDBRANCH   7   9
ENDBRANCH   4   7
BRANCH   1  19
ATOM     19  C   UNL     1      -0.473   9.078  21.775  0.00  0.00    +0.000 C 
BRANCH  19  20
ATOM     20  C   UNL     1       0.072  10.002  22.845  0.00  0.00    +0.000 C 
ATOM     21  O   UNL     1       0.470   9.652  23.951  0.00  0.00    +0.000 OA
BRANCH  20  22
ATOM     22  O   UNL     1      -0.091  11.317  22.414  0.00  0.00    +0.000 OA
BRANCH  22  26
ATOM     23  C   UNL     1      -3.923  12.906  21.844  0.00  0.00    +0.000 A 
ATOM     24  C   UNL     1      -3.513  12.426  23.092  0.00  0.00    +0.000 A 
ATOM     25  C   UNL     1      -2.254  11.842  23.256  0.00  0.00    +0.000 A 
ATOM     26  C   UNL     1      -1.407  11.727  22.162  0.00  0.00    +0.000 A 
ATOM     27  C   UNL     1      -1.805  12.189  20.907  0.00  0.00    +0.000 A 
ATOM     28  C   UNL     1      -3.065  12.771  20.748  0.00  0.00    +0.000 A 
BRANCH  23  32
ATOM     29  C   UNL     1      -7.491  13.853  21.094  0.00  0.00    +0.000 C 
ATOM     30  C   UNL     1      -6.382  12.888  21.424  0.00  0.00    +0.000 C 
ATOM     31  O   UNL     1      -6.599  11.683  21.496  0.00  0.00    +0.000 OA
ATOM     32  N   UNL     1      -5.170  13.526  21.619  0.00  0.00    +0.000 N 
ATOM     33  H   UNL     1      -5.186  14.535  21.681  0.00  0.00    +0.000 HD
ENDBRANCH  23  32
ENDBRANCH  22  26
ENDBRANCH  20  22
ENDBRANCH  19  20
ENDBRANCH   1  19
TORSDOF 8
ENDMDL
MODEL 3
REMARK VINA RESULT:      -8.3      5.280      9.250
REMARK  Name = 
REMARK  9 active torsions:
REMARK  status: ('A' for Active; 'I' for Inactive)
REMARK    1  A    between atoms: C_1  and  C_2
REMARK    2  A    between atoms: N_4  and  C_5
REMARK    3  A    between atoms: C_8  and  O_9
REMARK    4  A    between atoms: O_9  and  C_10
REMARK    5  A    between atoms: C_10  and  C_12
REMARK    6  A    between atoms: C_12  and  C_13
REMARK    7  A    between atoms: C_16  and  N_17
REMARK    8  A    between atoms: N_17  and  C_18
REMARK    9  A    between atoms: C_22  and  C_23
REMARK                            x       y       z     vdW  Elec       q    Type
REMARK                         _______ _______ _______ _____ _____    ______ ____
ROOT
ATOM      1  C   UNL     1       1.042   9.716  19.812  0.00  0.00    +0.000 A 
ATOM      2  C   UNL     1       1.491   9.866  18.492  0.00  0.00    +0.000 A 
ATOM      3  C   UNL     1       2.148   8.813  17.844  0.00  0.00    +0.000 A 
ATOM      4  C   UNL     1       2.392   7.605  18.507  0.00  0.00    +0.000 A 
ATOM      5  C   UNL     1       1.957   7.473  19.832  0.00  0.00    +0.000 A 
ATOM      6  C   UNL     1       1.301   8.517  20.484  0.00  0.00    +0.000 A 
ENDROOT
BRANCH   4   7
ATOM      7  N   UNL     1       2.980   6.521  17.812  0.00  0.00    +0.000 N 
ATOM      8  H   UNL     1       3.839   6.794  17.338  0.00  0.00    +0.000 HD
BRANCH   7   9
ATOM      9  C   UNL     1       3.071   5.178  18.247  0.00  0.00    +0.000 A 
ATOM     10  C   UNL     1       3.496   4.153  17.404  0.00  0.00    +0.000 A 
ATOM     11  C   UNL     1       3.521   2.859  17.886  0.00  0.00    +0.000 A 
ATOM     12  N   UNL     1       3.142   2.519  19.133  0.00  0.00    +0.000 NA
ATOM     13  C   UNL     1       2.709   3.514  19.958  0.00  0.00    +0.000 A 
ATOM     14  C   UNL     1       2.666   4.848  19.541  0.00  0.00    +0.000 A 
BRANCH  13  15
ATOM     15  C   UNL     1       2.244   3.166  21.365  0.00  0.00    +0.000 C 
ATOM     16  F   UNL     1       2.906   2.119  21.935  0.00  0.00    +0.000 F 
ATOM     17  F   UNL     1       2.378   4.209  22.235  0.00  0.00    +0.000 F 
ATOM     18  F   UNL     1       0.920   2.830  21.403  0.00  0.00    +0.000 F 
ENDBRANCH  13  15
ENDBRANCH   7   9
ENDBRANCH   4   7
BRANCH   1  19
ATOM     19  C   UNL     1       0.082  10.716  20.414  0.00  0.00    +0.000 C 
BRANCH  19  20
ATOM     20  C   UNL     1      -0.642  11.436  19.296  0.00  0.00    +0.000 C 
ATOM     21  O   UNL     1      -0.231  12.430  18.707  0.00  0.00    +0.000 OA
BRANCH  20  22
ATOM     22  O   UNL     1      -1.907  10.868  19.153  0.00  0.00    +0.000 OA
BRANCH  22  26
ATOM     23  C   UNL     1      -3.594  10.309  15.362  0.00  0.00    +0.000 A 
ATOM     24  C   UNL     1      -2.443   9.618  15.755  0.00  0.00    +0.000 A 
ATOM     25  C   UNL     1      -1.854   9.858  17.000  0.00  0.00    +0.000 A 
ATOM     26  C   UNL     1      -2.413  10.804  17.848  0.00  0.00    +0.000 A 
ATOM     27  C   UNL     1      -3.553  11.512  17.466  0.00  0.00    +0.000 A 
ATOM     28  C   UNL     1      -4.137  11.269  16.222  0.00  0.00    +0.000 A 
BRANCH  23  32
ATOM     29  C   UNL     1      -4.636   9.733  11.788  0.00  0.00    +0.000 C 
ATOM     30  C   UNL     1      -3.650   9.769  12.926  0.00  0.00    +0.000 C 
ATOM     31  O   UNL     1      -2.463   9.528  12.737  0.00  0.00    +0.000 OA
ATOM     32  N   UNL     1      -4.248  10.096  14.131  0.00  0.00    +0.000 N 
ATOM     33  H   UNL     1      -5.259  10.111  14.153  0.00  0.00    +0.000 HD
ENDBRANCH  23  32
ENDBRANCH  22  26
ENDBRANCH  20  22
ENDBRANCH  19  20
ENDBRANCH   1  19
TORSDOF 8
ENDMDL
MODEL 4
REMARK VINA RESULT:      -8.1      2.783      3.495
REMARK  Name = 
REMARK  9 active torsions:
REMARK  status: ('A' for Active; 'I' for Inactive)
REMARK    1  A    between atoms: C_1  and  C_2
REMARK    2  A    between atoms: N_4  and  C_5
REMARK    3  A    between atoms: C_8  and  O_9
REMARK    4  A    between atoms: O_9  and  C_10
REMARK    5  A    between atoms: C_10  and  C_12
REMARK    6  A    between atoms: C_12  and  C_13
REMARK    7  A    between atoms: C_16  and  N_17
REMARK    8  A    between atoms: N_17  and  C_18
REMARK    9  A    between atoms: C_22  and  C_23
REMARK                            x       y       z     vdW  Elec       q    Type
REMARK                         _______ _______ _______ _____ _____    ______ ____
ROOT
ATOM      1  C   UNL     1       1.760   5.193  19.678  0.00  0.00    +0.000 A 
ATOM      2  C   UNL     1       1.652   6.192  20.657  0.00  0.00    +0.000 A 
ATOM      3  C   UNL     1       1.754   7.542  20.305  0.00  0.00    +0.000 A 
ATOM      4  C   UNL     1       1.992   7.920  18.978  0.00  0.00    +0.000 A 
ATOM      5  C   UNL     1       2.121   6.914  18.012  0.00  0.00    +0.000 A 
ATOM      6  C   UNL     1       2.019   5.566  18.355  0.00  0.00    +0.000 A 
ENDROOT
BRANCH   4   7
ATOM      7  N   UNL     1       2.008   9.290  18.624  0.00  0.00    +0.000 N 
ATOM      8  H   UNL     1       2.625   9.473  17.836  0.00  0.00    +0.000 HD
BRANCH   7   9
ATOM      9  C   UNL     1       0.904  10.175  18.590  0.00  0.00    +0.000 A 
ATOM     10  C   UNL     1       0.903  11.387  19.277  0.00  0.00    +0.000 A 
ATOM     11  C   UNL     1      -0.226  12.181  19.231  0.00  0.00    +0.000 A 
ATOM     12  N   UNL     1      -1.348  11.845  18.566  0.00  0.00    +0.000 NA
ATOM     13  C   UNL     1      -1.361  10.653  17.905  0.00  0.00    +0.000 A 
ATOM     14  C   UNL     1      -0.251   9.803  17.900  0.00  0.00    +0.000 A 
BRANCH  13  15
ATOM     15  C   UNL     1      -2.620  10.225  17.166  0.00  0.00    +0.000 C 
ATOM     16  F   UNL     1      -3.440   9.401  17.878  0.00  0.00    +0.000 F 
ATOM     17  F   UNL     1      -3.394  11.285  16.789  0.00  0.00    +0.000 F 
ATOM     18  F   UNL     1      -2.338   9.553  16.009  0.00  0.00    +0.000 F 
ENDBRANCH  13  15
ENDBRANCH   7   9
ENDBRANCH   4   7
BRANCH   1  19
ATOM     19  C   UNL     1       1.360   3.769  19.987  0.00  0.00    +0.000 C 
BRANCH  19  20
ATOM     20  C   UNL     1       2.283   3.221  21.056  0.00  0.00    +0.000 C 
ATOM     21  O   UNL     1       2.379   3.653  22.200  0.00  0.00    +0.000 OA
BRANCH  20  22
ATOM     22  O   UNL     1       3.098   2.250  20.480  0.00  0.00    +0.000 OA
BRANCH  22  26
ATOM     23  C   UNL     1       4.958   3.673  17.009  0.00  0.00    +0.000 A 
ATOM     24  C   UNL     1       3.978   2.676  16.952  0.00  0.00    +0.000 A 
ATOM     25  C   UNL     1       3.408   2.167  18.122  0.00  0.00    +0.000 A 
ATOM     26  C   UNL     1       3.832   2.647  19.353  0.00  0.00    +0.000 A 
ATOM     27  C   UNL     1       4.818   3.632  19.429  0.00  0.00    +0.000 A 
ATOM     28  C   UNL     1       5.384   4.137  18.257  0.00  0.00    +0.000 A 
BRANCH  23  32
ATOM     29  C   UNL     1       7.165   5.260  14.401  0.00  0.00    +0.000 C 
ATOM     30  C   UNL     1       6.894   4.550  15.702  0.00  0.00    +0.000 C 
ATOM     31  O   UNL     1       7.805   4.303  16.484  0.00  0.00    +0.000 OA
ATOM     32  N   UNL     1       5.554   4.245  15.865  0.00  0.00    +0.000 N 
ATOM     33  H   UNL     1       4.952   4.372  15.063  0.00  0.00    +0.000 HD
ENDBRANCH  23  32
ENDBRANCH  22  26
ENDBRANCH  20  22
ENDBRANCH  19  20
ENDBRANCH   1  19
TORSDOF 8
ENDMDL
MODEL 5
REMARK VINA RESULT:      -8.1      1.462      2.087
REMARK  Name = 
REMARK  9 active torsions:
REMARK  status: ('A' for Active; 'I' for Inactive)
REMARK    1  A    between atoms: C_1  and  C_2
REMARK    2  A    between atoms: N_4  and  C_5
REMARK    3  A    between atoms: C_8  and  O_9
REMARK    4  A    between atoms: O_9  and  C_10
REMARK    5  A    between atoms: C_10  and  C_12
REMARK    6  A    between atoms: C_12  and  C_13
REMARK    7  A    between atoms: C_16  and  N_17
REMARK    8  A    between atoms: N_17  and  C_18
REMARK    9  A    between atoms: C_22  and  C_23
REMARK                            x       y       z     vdW  Elec       q    Type
REMARK                         _______ _______ _______ _____ _____    ______ ____
ROOT
ATOM      1  C   UNL     1       2.700   5.324  18.455  0.00  0.00    +0.000 A 
ATOM      2  C   UNL     1       2.173   5.020  19.718  0.00  0.00    +0.000 A 
ATOM      3  C   UNL     1       1.802   6.045  20.595  0.00  0.00    +0.000 A 
ATOM      4  C   UNL     1       1.975   7.388  20.241  0.00  0.00    +0.000 A 
ATOM      5  C   UNL     1       2.524   7.680  18.986  0.00  0.00    +0.000 A 
ATOM      6  C   UNL     1       2.894   6.665  18.106  0.00  0.00    +0.000 A 
ENDROOT
BRANCH   4   7
ATOM      7  N   UNL     1       1.517   8.413  21.104  0.00  0.00    +0.000 N 
ATOM      8  H   UNL     1       2.262   8.771  21.699  0.00  0.00    +0.000 HD
BRANCH   7   9
ATOM      9  C   UNL     1       0.608   9.449  20.788  0.00  0.00    +0.000 A 
ATOM     10  C   UNL     1       0.422   9.902  19.483  0.00  0.00    +0.000 A 
ATOM     11  C   UNL     1      -0.454  10.946  19.257  0.00  0.00    +0.000 A 
ATOM     12  N   UNL     1      -1.137  11.572  20.233  0.00  0.00    +0.000 NA
ATOM     13  C   UNL     1      -0.948  11.146  21.514  0.00  0.00    +0.000 A 
ATOM     14  C   UNL     1      -0.085  10.089  21.818  0.00  0.00    +0.000 A 
BRANCH  13  15
ATOM     15  C   UNL     1      -1.681  11.848  22.649  0.00  0.00    +0.000 C 
ATOM     16  F   UNL     1      -2.802  12.523  22.264  0.00  0.00    +0.000 F 
ATOM     17  F   UNL     1      -2.083  10.986  23.628  0.00  0.00    +0.000 F 
ATOM     18  F   UNL     1      -0.894  12.771  23.280  0.00  0.00    +0.000 F 
ENDBRANCH  13  15
ENDBRANCH   7   9
ENDBRANCH   4   7
BRANCH   1  19
ATOM     19  C   UNL     1       2.824   4.253  17.395  0.00  0.00    +0.000 C 
BRANCH  19  20
ATOM     20  C   UNL     1       4.021   3.382  17.717  0.00  0.00    +0.000 C 
ATOM     21  O   UNL     1       4.108   2.618  18.672  0.00  0.00    +0.000 OA
BRANCH  20  22
ATOM     22  O   UNL     1       5.049   3.703  16.833  0.00  0.00    +0.000 OA
BRANCH  22  26
ATOM     23  C   UNL     1       7.624   6.696  18.228  0.00  0.00    +0.000 A 
ATOM     24  C   UNL     1       7.289   6.598  16.873  0.00  0.00    +0.000 A 
ATOM     25  C   UNL     1       6.477   5.559  16.411  0.00  0.00    +0.000 A 
ATOM     26  C   UNL     1       6.011   4.606  17.305  0.00  0.00    +0.000 A 
ATOM     27  C   UNL     1       6.347   4.681  18.658  0.00  0.00    +0.000 A 
ATOM     28  C   UNL     1       7.158   5.722  19.116  0.00  0.00    +0.000 A 
BRANCH  23  32
ATOM     29  C   UNL     1       9.448   9.878  19.085  0.00  0.00    +0.000 C 
ATOM     30  C   UNL     1       8.381   9.068  18.398  0.00  0.00    +0.000 C 
ATOM     31  O   UNL     1       7.598   9.595  17.615  0.00  0.00    +0.000 OA
ATOM     32  N   UNL     1       8.419   7.733  18.761  0.00  0.00    +0.000 N 
ATOM     33  H   UNL     1       9.019   7.483  19.535  0.00  0.00    +0.000 HD
ENDBRANCH  23  32
ENDBRANCH  22  26
ENDBRANCH  20  22
ENDBRANCH  19  20
ENDBRANCH   1  19
TORSDOF 8
ENDMDL
MODEL 6
REMARK VINA RESULT:      -8.0      3.028      4.780
REMARK  Name = 
REMARK  9 active torsions:
REMARK  status: ('A' for Active; 'I' for Inactive)
REMARK    1  A    between atoms: C_1  and  C_2
REMARK    2  A    between atoms: N_4  and  C_5
REMARK    3  A    between atoms: C_8  and  O_9
REMARK    4  A    between atoms: O_9  and  C_10
REMARK    5  A    between atoms: C_10  and  C_12
REMARK    6  A    between atoms: C_12  and  C_13
REMARK    7  A    between atoms: C_16  and  N_17
REMARK    8  A    between atoms: N_17  and  C_18
REMARK    9  A    between atoms: C_22  and  C_23
REMARK                            x       y       z     vdW  Elec       q    Type
REMARK                         _______ _______ _______ _____ _____    ______ ____
ROOT
ATOM      1  C   UNL     1       1.915   7.872  19.704  0.00  0.00    +0.000 A 
ATOM      2  C   UNL     1       1.066   8.591  20.557  0.00  0.00    +0.000 A 
ATOM      3  C   UNL     1       0.358   9.701  20.081  0.00  0.00    +0.000 A 
ATOM      4  C   UNL     1       0.505  10.129  18.757  0.00  0.00    +0.000 A 
ATOM      5  C   UNL     1       1.373   9.417  17.919  0.00  0.00    +0.000 A 
ATOM      6  C   UNL     1       2.080   8.310  18.385  0.00  0.00    +0.000 A 
ENDROOT
BRANCH   4   7
ATOM      7  N   UNL     1      -0.281  11.200  18.268  0.00  0.00    +0.000 N 
ATOM      8  H   UNL     1       0.175  11.686  17.498  0.00  0.00    +0.000 HD
BRANCH   7   9
ATOM      9  C   UNL     1      -1.684  11.215  18.087  0.00  0.00    +0.000 A 
ATOM     10  C   UNL     1      -2.296  10.628  16.981  0.00  0.00    +0.000 A 
ATOM     11  C   UNL     1      -3.668  10.718  16.851  0.00  0.00    +0.000 A 
ATOM     12  N   UNL     1      -4.461  11.358  17.731  0.00  0.00    +0.000 NA
ATOM     13  C   UNL     1      -3.868  11.949  18.808  0.00  0.00    +0.000 A 
ATOM     14  C   UNL     1      -2.486  11.891  19.009  0.00  0.00    +0.000 A 
BRANCH  13  15
ATOM     15  C   UNL     1      -4.728  12.707  19.809  0.00  0.00    +0.000 C 
ATOM     16  F   UNL     1      -5.206  11.944  20.833  0.00  0.00    +0.000 F 
ATOM     17  F   UNL     1      -4.060  13.743  20.396  0.00  0.00    +0.000 F 
ATOM     18  F   UNL     1      -5.827  13.270  19.224  0.00  0.00    +0.000 F 
ENDBRANCH  13  15
ENDBRANCH   7   9
ENDBRANCH   4   7
BRANCH   1  19
ATOM     19  C   UNL     1       2.446   6.517  20.111  0.00  0.00    +0.000 C 
BRANCH  19  20
ATOM     20  C   UNL     1       2.771   5.722  18.863  0.00  0.00    +0.000 C 
ATOM     21  O   UNL     1       1.975   5.040  18.227  0.00  0.00    +0.000 OA
BRANCH  20  22
ATOM     22  O   UNL     1       4.147   5.783  18.649  0.00  0.00    +0.000 OA
BRANCH  22  26
ATOM     23  C   UNL     1       5.875   4.590  15.026  0.00  0.00    +0.000 A 
ATOM     24  C   UNL     1       5.479   5.914  15.242  0.00  0.00    +0.000 A 
ATOM     25  C   UNL     1       4.848   6.287  16.432  0.00  0.00    +0.000 A 
ATOM     26  C   UNL     1       4.600   5.328  17.403  0.00  0.00    +0.000 A 
ATOM     27  C   UNL     1       4.977   3.999  17.199  0.00  0.00    +0.000 A 
ATOM     28  C   UNL     1       5.607   3.632  16.008  0.00  0.00    +0.000 A 
BRANCH  23  32
ATOM     29  C   UNL     1       6.956   3.158  11.714  0.00  0.00    +0.000 C 
ATOM     30  C   UNL     1       5.943   3.628  12.725  0.00  0.00    +0.000 C 
ATOM     31  O   UNL     1       4.741   3.524  12.505  0.00  0.00    +0.000 OA
ATOM     32  N   UNL     1       6.536   4.155  13.859  0.00  0.00    +0.000 N 
ATOM     33  H   UNL     1       7.534   4.317  13.823  0.00  0.00    +0.000 HD
ENDBRANCH  23  32
ENDBRANCH  22  26
ENDBRANCH  20  22
ENDBRANCH  19  20
ENDBRANCH   1  19
TORSDOF 8
ENDMDL
MODEL 7
REMARK VINA RESULT:      -8.0      5.211      9.977
REMARK  Name = 
REMARK  9 active torsions:
REMARK  status: ('A' for Active; 'I' for Inactive)
REMARK    1  A    between atoms: C_1  and  C_2
REMARK    2  A    between atoms: N_4  and  C_5
REMARK    3  A    between atoms: C_8  and  O_9
REMARK    4  A    between atoms: O_9  and  C_10
REMARK    5  A    between atoms: C_10  and  C_12
REMARK    6  A    between atoms: C_12  and  C_13
REMARK    7  A    between atoms: C_16  and  N_17
REMARK    8  A    between atoms: N_17  and  C_18
REMARK    9  A    between atoms: C_22  and  C_23
REMARK                            x       y       z     vdW  Elec       q    Type
REMARK                         _______ _______ _______ _____ _____    ______ ____
ROOT
ATOM      1  C   UNL     1       1.190   9.592  19.310  0.00  0.00    +0.000 A 
ATOM      2  C   UNL     1       1.679   9.519  17.997  0.00  0.00    +0.000 A 
ATOM      3  C   UNL     1       2.377   8.386  17.565  0.00  0.00    +0.000 A 
ATOM      4  C   UNL     1       2.625   7.321  18.438  0.00  0.00    +0.000 A 
ATOM      5  C   UNL     1       2.152   7.414  19.753  0.00  0.00    +0.000 A 
ATOM      6  C   UNL     1       1.454   8.538  20.191  0.00  0.00    +0.000 A 
ENDROOT
BRANCH   4   7
ATOM      7  N   UNL     1       3.258   6.147  17.962  0.00  0.00    +0.000 N 
ATOM      8  H   UNL     1       4.264   6.268  17.871  0.00  0.00    +0.000 HD
BRANCH   7   9
ATOM      9  C   UNL     1       2.960   4.812  18.323  0.00  0.00    +0.000 A 
ATOM     10  C   UNL     1       2.789   3.807  17.372  0.00  0.00    +0.000 A 
ATOM     11  C   UNL     1       2.460   2.535  17.797  0.00  0.00    +0.000 A 
ATOM     12  N   UNL     1       2.276   2.203  19.089  0.00  0.00    +0.000 NA
ATOM     13  C   UNL     1       2.425   3.185  20.024  0.00  0.00    +0.000 A 
ATOM     14  C   UNL     1       2.767   4.493  19.668  0.00  0.00    +0.000 A 
BRANCH  13  15
ATOM     15  C   UNL     1       2.198   2.856  21.492  0.00  0.00    +0.000 C 
ATOM     16  F   UNL     1       2.985   1.852  21.974  0.00  0.00    +0.000 F 
ATOM     17  F   UNL     1       2.417   3.927  22.311  0.00  0.00    +0.000 F 
ATOM     18  F   UNL     1       0.911   2.467  21.741  0.00  0.00    +0.000 F 
ENDBRANCH  13  15
ENDBRANCH   7   9
ENDBRANCH   4   7
BRANCH   1  19
ATOM     19  C   UNL     1       0.192  10.658  19.700  0.00  0.00    +0.000 C 
BRANCH  19  20
ATOM     20  C   UNL     1       0.938  11.833  20.299  0.00  0.00    +0.000 C 
ATOM     21  O   UNL     1       1.758  12.528  19.710  0.00  0.00    +0.000 OA
BRANCH  20  22
ATOM     22  O   UNL     1       0.642  11.894  21.659  0.00  0.00    +0.000 OA
BRANCH  22  26
ATOM     23  C   UNL     1      -3.188  12.897  23.021  0.00  0.00    +0.000 A 
ATOM     24  C   UNL     1      -2.538  11.741  23.466  0.00  0.00    +0.000 A 
ATOM     25  C   UNL     1      -1.285  11.386  22.958  0.00  0.00    +0.000 A 
ATOM     26  C   UNL     1      -0.688  12.182  21.991  0.00  0.00    +0.000 A 
ATOM     27  C   UNL     1      -1.329  13.332  21.526  0.00  0.00    +0.000 A 
ATOM     28  C   UNL     1      -2.581  13.683  22.036  0.00  0.00    +0.000 A 
BRANCH  23  32
ATOM     29  C   UNL     1      -6.804  13.711  23.692  0.00  0.00    +0.000 C 
ATOM     30  C   UNL     1      -5.682  12.983  23.000  0.00  0.00    +0.000 C 
ATOM     31  O   UNL     1      -5.912  12.191  22.093  0.00  0.00    +0.000 OA
ATOM     32  N   UNL     1      -4.441  13.323  23.509  0.00  0.00    +0.000 N 
ATOM     33  H   UNL     1      -4.427  13.869  24.360  0.00  0.00    +0.000 HD
ENDBRANCH  23  32
ENDBRANCH  22  26
ENDBRANCH  20  22
ENDBRANCH  19  20
ENDBRANCH   1  19
TORSDOF 8
ENDMDL
MODEL 8
REMARK VINA RESULT:      -7.9      1.568      2.199
REMARK  Name = 
REMARK  9 active torsions:
REMARK  status: ('A' for Active; 'I' for Inactive)
REMARK    1  A    between atoms: C_1  and  C_2
REMARK    2  A    between atoms: N_4  and  C_5
REMARK    3  A    between atoms: C_8  and  O_9
REMARK    4  A    between atoms: O_9  and  C_10
REMARK    5  A    between atoms: C_10  and  C_12
REMARK    6  A    between atoms: C_12  and  C_13
REMARK    7  A    between atoms: C_16  and  N_17
REMARK    8  A    between atoms: N_17  and  C_18
REMARK    9  A    between atoms: C_22  and  C_23
REMARK                            x       y       z     vdW  Elec       q    Type
REMARK                         _______ _______ _______ _____ _____    ______ ____
ROOT
ATOM      1  C   UNL     1       1.866   3.740  18.714  0.00  0.00    +0.000 A 
ATOM      2  C   UNL     1       1.855   4.930  17.971  0.00  0.00    +0.000 A 
ATOM      3  C   UNL     1       1.891   6.170  18.621  0.00  0.00    +0.000 A 
ATOM      4  C   UNL     1       1.912   6.245  20.019  0.00  0.00    +0.000 A 
ATOM      5  C   UNL     1       1.901   5.051  20.750  0.00  0.00    +0.000 A 
ATOM      6  C   UNL     1       1.866   3.812  20.111  0.00  0.00    +0.000 A 
ENDROOT
BRANCH   4   7
ATOM      7  N   UNL     1       2.035   7.502  20.658  0.00  0.00    +0.000 N 
ATOM      8  H   UNL     1       2.974   7.655  21.020  0.00  0.00    +0.000 HD
BRANCH   7   9
ATOM      9  C   UNL     1       1.470   8.729  20.241  0.00  0.00    +0.000 A 
ATOM     10  C   UNL     1       1.652   9.231  18.954  0.00  0.00    +0.000 A 
ATOM     11  C   UNL     1       1.105  10.457  18.630  0.00  0.00    +0.000 A 
ATOM     12  N   UNL     1       0.407  11.215  19.497  0.00  0.00    +0.000 NA
ATOM     13  C   UNL     1       0.238  10.739  20.763  0.00  0.00    +0.000 A 
ATOM     14  C   UNL     1       0.756   9.502  21.159  0.00  0.00    +0.000 A 
BRANCH  13  15
ATOM     15  C   UNL     1      -0.520  11.580  21.780  0.00  0.00    +0.000 C 
ATOM     16  F   UNL     1      -0.123  12.883  21.843  0.00  0.00    +0.000 F 
ATOM     17  F   UNL     1      -1.863  11.611  21.540  0.00  0.00    +0.000 F 
ATOM     18  F   UNL     1      -0.391  11.095  23.052  0.00  0.00    +0.000 F 
ENDBRANCH  13  15
ENDBRANCH   7   9
ENDBRANCH   4   7
BRANCH   1  19
ATOM     19  C   UNL     1       2.127   2.415  18.035  0.00  0.00    +0.000 C 
BRANCH  19  20
ATOM     20  C   UNL     1       3.549   1.984  18.330  0.00  0.00    +0.000 C 
ATOM     21  O   UNL     1       3.944   1.520  19.394  0.00  0.00    +0.000 OA
BRANCH  20  22
ATOM     22  O   UNL     1       4.350   2.339  17.247  0.00  0.00    +0.000 OA
BRANCH  22  26
ATOM     23  C   UNL     1       6.078   6.153  17.223  0.00  0.00    +0.000 A 
ATOM     24  C   UNL     1       5.852   5.464  18.420  0.00  0.00    +0.000 A 
ATOM     25  C   UNL     1       5.220   4.218  18.419  0.00  0.00    +0.000 A 
ATOM     26  C   UNL     1       4.798   3.666  17.217  0.00  0.00    +0.000 A 
ATOM     27  C   UNL     1       5.004   4.346  16.015  0.00  0.00    +0.000 A 
ATOM     28  C   UNL     1       5.636   5.591  16.021  0.00  0.00    +0.000 A 
BRANCH  23  32
ATOM     29  C   UNL     1       8.184   9.245  17.664  0.00  0.00    +0.000 C 
ATOM     30  C   UNL     1       7.814   7.806  17.914  0.00  0.00    +0.000 C 
ATOM     31  O   UNL     1       8.445   7.126  18.716  0.00  0.00    +0.000 OA
ATOM     32  N   UNL     1       6.731   7.401  17.154  0.00  0.00    +0.000 N 
ATOM     33  H   UNL     1       6.421   8.029  16.425  0.00  0.00    +0.000 HD
ENDBRANCH  23  32
ENDBRANCH  22  26
ENDBRANCH  20  22
ENDBRANCH  19  20
ENDBRANCH   1  19
TORSDOF 8
ENDMDL
MODEL 9
REMARK VINA RESULT:      -7.9      1.710      2.317
REMARK  Name = 
REMARK  9 active torsions:
REMARK  status: ('A' for Active; 'I' for Inactive)
REMARK    1  A    between atoms: C_1  and  C_2
REMARK    2  A    between atoms: N_4  and  C_5
REMARK    3  A    between atoms: C_8  and  O_9
REMARK    4  A    between atoms: O_9  and  C_10
REMARK    5  A    between atoms: C_10  and  C_12
REMARK    6  A    between atoms: C_12  and  C_13
REMARK    7  A    between atoms: C_16  and  N_17
REMARK    8  A    between atoms: N_17  and  C_18
REMARK    9  A    between atoms: C_22  and  C_23
REMARK                            x       y       z     vdW  Elec       q    Type
REMARK                         _______ _______ _______ _____ _____    ______ ____
ROOT
ATOM      1  C   UNL     1       1.945   4.986  19.057  0.00  0.00    +0.000 A 
ATOM      2  C   UNL     1       1.582   5.291  20.377  0.00  0.00    +0.000 A 
ATOM      3  C   UNL     1       1.522   6.622  20.805  0.00  0.00    +0.000 A 
ATOM      4  C   UNL     1       1.848   7.669  19.935  0.00  0.00    +0.000 A 
ATOM      5  C   UNL     1       2.230   7.352  18.625  0.00  0.00    +0.000 A 
ATOM      6  C   UNL     1       2.291   6.029  18.191  0.00  0.00    +0.000 A 
ENDROOT
BRANCH   4   7
ATOM      7  N   UNL     1       1.700   9.012  20.357  0.00  0.00    +0.000 N 
ATOM      8  H   UNL     1       2.559   9.546  20.236  0.00  0.00    +0.000 HD
BRANCH   7   9
ATOM      9  C   UNL     1       0.577   9.849  20.159  0.00  0.00    +0.000 A 
ATOM     10  C   UNL     1       0.047  10.093  18.893  0.00  0.00    +0.000 A 
ATOM     11  C   UNL     1      -1.026  10.954  18.773  0.00  0.00    +0.000 A 
ATOM     12  N   UNL     1      -1.591  11.594  19.815  0.00  0.00    +0.000 NA
ATOM     13  C   UNL     1      -1.067  11.374  21.054  0.00  0.00    +0.000 A 
ATOM     14  C   UNL     1       0.012  10.508  21.253  0.00  0.00    +0.000 A 
BRANCH  13  15
ATOM     15  C   UNL     1      -1.660  12.101  22.253  0.00  0.00    +0.000 C 
ATOM     16  F   UNL     1      -1.403  13.439  22.284  0.00  0.00    +0.000 F 
ATOM     17  F   UNL     1      -3.018  11.980  22.322  0.00  0.00    +0.000 F 
ATOM     18  F   UNL     1      -1.192  11.608  23.439  0.00  0.00    +0.000 F 
ENDBRANCH  13  15
ENDBRANCH   7   9
ENDBRANCH   4   7
BRANCH   1  19
ATOM     19  C   UNL     1       1.728   3.597  18.502  0.00  0.00    +0.000 C 
BRANCH  19  20
ATOM     20  C   UNL     1       2.902   2.723  18.896  0.00  0.00    +0.000 C 
ATOM     21  O   UNL     1       3.105   2.270  20.017  0.00  0.00    +0.000 OA
BRANCH  20  22
ATOM     22  O   UNL     1       3.776   2.647  17.814  0.00  0.00    +0.000 OA
BRANCH  22  26
ATOM     23  C   UNL     1       6.020   6.145  17.297  0.00  0.00    +0.000 A 
ATOM     24  C   UNL     1       5.322   5.565  16.232  0.00  0.00    +0.000 A 
ATOM     25  C   UNL     1       4.626   4.364  16.403  0.00  0.00    +0.000 A 
ATOM     26  C   UNL     1       4.642   3.736  17.640  0.00  0.00    +0.000 A 
ATOM     27  C   UNL     1       5.344   4.294  18.709  0.00  0.00    +0.000 A 
ATOM     28  C   UNL     1       6.038   5.493  18.534  0.00  0.00    +0.000 A 
BRANCH  23  32
ATOM     29  C   UNL     1       8.240   9.165  17.662  0.00  0.00    +0.000 C 
ATOM     30  C   UNL     1       7.814   7.750  17.952  0.00  0.00    +0.000 C 
ATOM     31  O   UNL     1       8.412   7.071  18.779  0.00  0.00    +0.000 OA
ATOM     32  N   UNL     1       6.721   7.364  17.196  0.00  0.00    +0.000 N 
ATOM     33  H   UNL     1       6.440   7.981  16.445  0.00  0.00    +0.000 HD
ENDBRANCH  23  32
ENDBRANCH  22  26
ENDBRANCH  20  22
ENDBRANCH  19  20
ENDBRANCH   1  19
TORSDOF 8
ENDMDL
