MODEL 1
REMARK VINA RESULT:      -6.0      0.000      0.000
REMARK  Name = 
REMARK  7 active torsions:
REMARK  status: ('A' for Active; 'I' for Inactive)
REMARK    1  A    between atoms: C_1  and  N_2
REMARK    2  A    between atoms: C_7  and  C_8
REMARK    3  A    between atoms: C_16  and  C_17
REMARK    4  A    between atoms: N_19  and  C_20
REMARK    5  A    between atoms: C_20  and  C_21
REMARK    6  A    between atoms: C_21  and  O_22
REMARK    7  A    between atoms: C_23  and  C_24
REMARK                            x       y       z     vdW  Elec       q    Type
REMARK                         _______ _______ _______ _____ _____    ______ ____
ROOT
ATOM      1  C   UNL     1       5.328  15.331  20.706  0.00  0.00    +0.000 C 
ATOM      2  N   UNL     1       4.144  16.246  20.436  0.00  0.00    +0.000 N 
ATOM      3  C   UNL     1       4.442  16.721  19.098  0.00  0.00    +0.000 C 
ATOM      4  O   UNL     1       5.307  17.512  18.843  0.00  0.00    +0.000 OA
ATOM      5  C   UNL     1       3.801  15.827  18.038  0.00  0.00    +0.000 C 
ATOM      6  C   UNL     1       2.377  15.723  18.407  0.00  0.00    +0.000 C 
ATOM      7  C   UNL     1       2.156  14.935  19.751  0.00  0.00    +0.000 C 
ATOM      8  C   UNL     1       2.858  13.633  20.287  0.00  0.00    +0.000 C 
ATOM      9  C   UNL     1       2.608  15.998  20.722  0.00  0.00    +0.000 C 
ATOM     10  C   UNL     1       1.732  15.905  22.025  0.00  0.00    +0.000 C 
ATOM     11  C   UNL     1       0.159  15.395  21.780  0.00  0.00    +0.000 C 
ATOM     12  C   UNL     1      -0.067  14.125  20.845  0.00  0.00    +0.000 C 
ATOM     13  C   UNL     1      -1.483  13.606  20.256  0.00  0.00    +0.000 C 
ATOM     14  C   UNL     1      -2.602  12.890  21.034  0.00  0.00    +0.000 C 
ATOM     15  C   UNL     1      -3.507  12.217  19.908  0.00  0.00    +0.000 C 
ATOM     16  C   UNL     1      -2.679  12.167  18.648  0.00  0.00    +0.000 C 
ATOM     17  C   UNL     1      -1.266  12.490  19.137  0.00  0.00    +0.000 C 
ATOM     18  C   UNL     1      -0.543  11.227  19.707  0.00  0.00    +0.000 C 
ATOM     19  C   UNL     1      -0.522  13.076  17.962  0.00  0.00    +0.000 C 
ATOM     20  C   UNL     1       0.822  13.412  18.464  0.00  0.00    +0.000 C 
ATOM     21  C   UNL     1       0.718  14.506  19.566  0.00  0.00    +0.000 C 
ENDROOT
BRANCH  16  22
ATOM     22  C   UNL     1      -2.674  10.990  17.617  0.00  0.00    +0.000 C 
ATOM     23  O   UNL     1      -2.999   9.853  17.977  0.00  0.00    +0.000 OA
ATOM     24  N   UNL     1      -2.465  11.274  16.298  0.00  0.00    +0.000 N 
ATOM     25  H   UNL     1      -2.115  12.180  16.029  0.00  0.00    +0.000 HD
BRANCH  24  26
ATOM     26  C   UNL     1      -2.572  10.232  15.269  0.00  0.00    +0.000 C 
BRANCH  26  27
ATOM     27  C   UNL     1      -3.854  10.334  14.437  0.00  0.00    +0.000 C 
BRANCH  27  28
ATOM     28  O   UNL     1      -3.548  10.242  13.051  0.00  0.00    +0.000 OA
ATOM     29  H   UNL     1      -2.605  10.457  12.963  0.00  0.00    +0.000 HD
ENDBRANCH  27  28
ENDBRANCH  26  27
ENDBRANCH  24  26
ENDBRANCH  16  22
TORSDOF 4
ENDMDL
MODEL 2
REMARK VINA RESULT:      -6.0      5.729      8.198
REMARK  Name = 
REMARK  7 active torsions:
REMARK  status: ('A' for Active; 'I' for Inactive)
REMARK    1  A    between atoms: C_1  and  N_2
REMARK    2  A    between atoms: C_7  and  C_8
REMARK    3  A    between atoms: C_16  and  C_17
REMARK    4  A    between atoms: N_19  and  C_20
REMARK    5  A    between atoms: C_20  and  C_21
REMARK    6  A    between atoms: C_21  and  O_22
REMARK    7  A    between atoms: C_23  and  C_24
REMARK                            x       y       z     vdW  Elec       q    Type
REMARK                         _______ _______ _______ _____ _____    ______ ____
ROOT
ATOM      1  C   UNL     1       3.079   3.363  16.718  0.00  0.00    +0.000 C 
ATOM      2  N   UNL     1       3.892   4.017  17.823  0.00  0.00    +0.000 N 
ATOM      3  C   UNL     1       4.981   4.612  17.071  0.00  0.00    +0.000 C 
ATOM      4  O   UNL     1       5.874   3.986  16.574  0.00  0.00    +0.000 OA
ATOM      5  C   UNL     1       4.654   6.048  16.667  0.00  0.00    +0.000 C 
ATOM      6  C   UNL     1       4.249   6.733  17.910  0.00  0.00    +0.000 C 
ATOM      7  C   UNL     1       2.893   6.184  18.488  0.00  0.00    +0.000 C 
ATOM      8  C   UNL     1       1.568   5.775  17.746  0.00  0.00    +0.000 C 
ATOM      9  C   UNL     1       3.392   4.876  19.053  0.00  0.00    +0.000 C 
ATOM     10  C   UNL     1       2.598   4.553  20.372  0.00  0.00    +0.000 C 
ATOM     11  C   UNL     1       2.122   5.891  21.252  0.00  0.00    +0.000 C 
ATOM     12  C   UNL     1       1.447   7.096  20.457  0.00  0.00    +0.000 C 
ATOM     13  C   UNL     1       1.144   8.578  21.034  0.00  0.00    +0.000 C 
ATOM     14  C   UNL     1       0.039   8.976  22.028  0.00  0.00    +0.000 C 
ATOM     15  C   UNL     1      -0.089  10.557  21.874  0.00  0.00    +0.000 C 
ATOM     16  C   UNL     1       0.555  10.927  20.561  0.00  0.00    +0.000 C 
ATOM     17  C   UNL     1       0.735   9.578  19.861  0.00  0.00    +0.000 C 
ATOM     18  C   UNL     1      -0.571   9.120  19.135  0.00  0.00    +0.000 C 
ATOM     19  C   UNL     1       1.883   9.740  18.895  0.00  0.00    +0.000 C 
ATOM     20  C   UNL     1       2.061   8.423  18.259  0.00  0.00    +0.000 C 
ATOM     21  C   UNL     1       2.471   7.368  19.328  0.00  0.00    +0.000 C 
ENDROOT
BRANCH  16  22
ATOM     22  C   UNL     1       0.029  12.020  19.574  0.00  0.00    +0.000 C 
ATOM     23  O   UNL     1      -1.159  12.022  19.230  0.00  0.00    +0.000 OA
ATOM     24  N   UNL     1       0.857  13.051  19.235  0.00  0.00    +0.000 N 
ATOM     25  H   UNL     1       1.841  12.994  19.446  0.00  0.00    +0.000 HD
BRANCH  24  26
ATOM     26  C   UNL     1       0.381  14.172  18.414  0.00  0.00    +0.000 C 
BRANCH  26  27
ATOM     27  C   UNL     1      -0.157  15.342  19.243  0.00  0.00    +0.000 C 
BRANCH  27  28
ATOM     28  O   UNL     1      -1.509  15.100  19.612  0.00  0.00    +0.000 OA
ATOM     29  H   UNL     1      -1.859  14.458  18.972  0.00  0.00    +0.000 HD
ENDBRANCH  27  28
ENDBRANCH  26  27
ENDBRANCH  24  26
ENDBRANCH  16  22
TORSDOF 4
ENDMDL
MODEL 3
REMARK VINA RESULT:      -6.0      5.706      7.814
REMARK  Name = 
REMARK  7 active torsions:
REMARK  status: ('A' for Active; 'I' for Inactive)
REMARK    1  A    between atoms: C_1  and  N_2
REMARK    2  A    between atoms: C_7  and  C_8
REMARK    3  A    between atoms: C_16  and  C_17
REMARK    4  A    between atoms: N_19  and  C_20
REMARK    5  A    between atoms: C_20  and  C_21
REMARK    6  A    between atoms: C_21  and  O_22
REMARK    7  A    between atoms: C_23  and  C_24
REMARK                            x       y       z     vdW  Elec       q    Type
REMARK                         _______ _______ _______ _____ _____    ______ ____
ROOT
ATOM      1  C   UNL     1      -2.194  11.944  20.486  0.00  0.00    +0.000 C 
ATOM      2  N   UNL     1      -0.709  12.134  20.752  0.00  0.00    +0.000 N 
ATOM      3  C   UNL     1      -0.641  11.923  22.186  0.00  0.00    +0.000 C 
ATOM      4  O   UNL     1      -1.044  12.707  22.999  0.00  0.00    +0.000 OA
ATOM      5  C   UNL     1      -0.361  10.459  22.517  0.00  0.00    +0.000 C 
ATOM      6  C   UNL     1       0.831  10.090  21.732  0.00  0.00    +0.000 C 
ATOM      7  C   UNL     1       0.557  10.081  20.183  0.00  0.00    +0.000 C 
ATOM      8  C   UNL     1      -0.691   9.562  19.380  0.00  0.00    +0.000 C 
ATOM      9  C   UNL     1       0.528  11.572  19.943  0.00  0.00    +0.000 C 
ATOM     10  C   UNL     1       1.148  11.873  18.529  0.00  0.00    +0.000 C 
ATOM     11  C   UNL     1       2.352  10.819  18.050  0.00  0.00    +0.000 C 
ATOM     12  C   UNL     1       2.086   9.259  18.238  0.00  0.00    +0.000 C 
ATOM     13  C   UNL     1       3.179   8.073  18.096  0.00  0.00    +0.000 C 
ATOM     14  C   UNL     1       3.793   7.532  16.792  0.00  0.00    +0.000 C 
ATOM     15  C   UNL     1       4.412   6.120  17.195  0.00  0.00    +0.000 C 
ATOM     16  C   UNL     1       3.768   5.711  18.497  0.00  0.00    +0.000 C 
ATOM     17  C   UNL     1       2.601   6.690  18.639  0.00  0.00    +0.000 C 
ATOM     18  C   UNL     1       1.348   6.225  17.830  0.00  0.00    +0.000 C 
ATOM     19  C   UNL     1       2.303   6.799  20.115  0.00  0.00    +0.000 C 
ATOM     20  C   UNL     1       1.202   7.771  20.232  0.00  0.00    +0.000 C 
ATOM     21  C   UNL     1       1.671   9.167  19.727  0.00  0.00    +0.000 C 
ENDROOT
BRANCH  16  22
ATOM     22  C   UNL     1       3.344   4.254  18.876  0.00  0.00    +0.000 C 
ATOM     23  O   UNL     1       3.544   3.832  20.021  0.00  0.00    +0.000 OA
ATOM     24  N   UNL     1       2.614   3.529  17.980  0.00  0.00    +0.000 N 
ATOM     25  H   UNL     1       2.535   3.844  17.025  0.00  0.00    +0.000 HD
BRANCH  24  26
ATOM     26  C   UNL     1       2.081   2.205  18.325  0.00  0.00    +0.000 C 
BRANCH  26  27
ATOM     27  C   UNL     1       0.634   2.248  18.826  0.00  0.00    +0.000 C 
BRANCH  27  28
ATOM     28  O   UNL     1       0.547   3.038  20.005  0.00  0.00    +0.000 OA
ATOM     29  H   UNL     1       1.321   2.811  20.547  0.00  0.00    +0.000 HD
ENDBRANCH  27  28
ENDBRANCH  26  27
ENDBRANCH  24  26
ENDBRANCH  16  22
TORSDOF 4
ENDMDL
MODEL 4
REMARK VINA RESULT:      -5.9      5.602      7.866
REMARK  Name = 
REMARK  7 active torsions:
REMARK  status: ('A' for Active; 'I' for Inactive)
REMARK    1  A    between atoms: C_1  and  N_2
REMARK    2  A    between atoms: C_7  and  C_8
REMARK    3  A    between atoms: C_16  and  C_17
REMARK    4  A    between atoms: N_19  and  C_20
REMARK    5  A    between atoms: C_20  and  C_21
REMARK    6  A    between atoms: C_21  and  O_22
REMARK    7  A    between atoms: C_23  and  C_24
REMARK                            x       y       z     vdW  Elec       q    Type
REMARK                         _______ _______ _______ _____ _____    ______ ____
ROOT
ATOM      1  C   UNL     1      -2.303  12.247  20.103  0.00  0.00    +0.000 C 
ATOM      2  N   UNL     1      -0.828  12.436  20.418  0.00  0.00    +0.000 N 
ATOM      3  C   UNL     1      -0.820  12.309  21.863  0.00  0.00    +0.000 C 
ATOM      4  O   UNL     1      -1.245  13.144  22.613  0.00  0.00    +0.000 OA
ATOM      5  C   UNL     1      -0.573  10.865  22.291  0.00  0.00    +0.000 C 
ATOM      6  C   UNL     1       0.646  10.437  21.578  0.00  0.00    +0.000 C 
ATOM      7  C   UNL     1       0.433  10.341  20.022  0.00  0.00    +0.000 C 
ATOM      8  C   UNL     1      -0.788   9.788  19.200  0.00  0.00    +0.000 C 
ATOM      9  C   UNL     1       0.433  11.815  19.694  0.00  0.00    +0.000 C 
ATOM     10  C   UNL     1       1.113  12.025  18.291  0.00  0.00    +0.000 C 
ATOM     11  C   UNL     1       2.322  10.932  17.924  0.00  0.00    +0.000 C 
ATOM     12  C   UNL     1       2.028   9.389  18.192  0.00  0.00    +0.000 C 
ATOM     13  C   UNL     1       3.111   8.186  18.164  0.00  0.00    +0.000 C 
ATOM     14  C   UNL     1       3.769   7.563  16.920  0.00  0.00    +0.000 C 
ATOM     15  C   UNL     1       4.354   6.171  17.430  0.00  0.00    +0.000 C 
ATOM     16  C   UNL     1       3.653   5.846  18.725  0.00  0.00    +0.000 C 
ATOM     17  C   UNL     1       2.494   6.843  18.763  0.00  0.00    +0.000 C 
ATOM     18  C   UNL     1       1.268   6.344  17.932  0.00  0.00    +0.000 C 
ATOM     19  C   UNL     1       2.139   7.042  20.217  0.00  0.00    +0.000 C 
ATOM     20  C   UNL     1       1.047   8.031  20.232  0.00  0.00    +0.000 C 
ATOM     21  C   UNL     1       1.553   9.390  19.666  0.00  0.00    +0.000 C 
ENDROOT
BRANCH  16  22
ATOM     22  C   UNL     1       3.196   4.418  19.171  0.00  0.00    +0.000 C 
ATOM     23  O   UNL     1       2.943   3.557  18.320  0.00  0.00    +0.000 OA
ATOM     24  N   UNL     1       3.240   4.099  20.497  0.00  0.00    +0.000 N 
ATOM     25  H   UNL     1       3.359   4.827  21.185  0.00  0.00    +0.000 HD
BRANCH  24  26
ATOM     26  C   UNL     1       2.944   2.738  20.964  0.00  0.00    +0.000 C 
BRANCH  26  27
ATOM     27  C   UNL     1       1.524   2.586  21.520  0.00  0.00    +0.000 C 
BRANCH  27  28
ATOM     28  O   UNL     1       0.571   2.977  20.540  0.00  0.00    +0.000 OA
ATOM     29  H   UNL     1       0.087   3.733  20.913  0.00  0.00    +0.000 HD
ENDBRANCH  27  28
ENDBRANCH  26  27
ENDBRANCH  24  26
ENDBRANCH  16  22
TORSDOF 4
ENDMDL
MODEL 5
REMARK VINA RESULT:      -5.8      5.736      8.422
REMARK  Name = 
REMARK  7 active torsions:
REMARK  status: ('A' for Active; 'I' for Inactive)
REMARK    1  A    between atoms: C_1  and  N_2
REMARK    2  A    between atoms: C_7  and  C_8
REMARK    3  A    between atoms: C_16  and  C_17
REMARK    4  A    between atoms: N_19  and  C_20
REMARK    5  A    between atoms: C_20  and  C_21
REMARK    6  A    between atoms: C_21  and  O_22
REMARK    7  A    between atoms: C_23  and  C_24
REMARK                            x       y       z     vdW  Elec       q    Type
REMARK                         _______ _______ _______ _____ _____    ______ ____
ROOT
ATOM      1  C   UNL     1       2.870   3.298  16.581  0.00  0.00    +0.000 C 
ATOM      2  N   UNL     1       3.692   3.832  17.743  0.00  0.00    +0.000 N 
ATOM      3  C   UNL     1       4.846   4.380  17.055  0.00  0.00    +0.000 C 
ATOM      4  O   UNL     1       5.707   3.714  16.553  0.00  0.00    +0.000 OA
ATOM      5  C   UNL     1       4.639   5.855  16.718  0.00  0.00    +0.000 C 
ATOM      6  C   UNL     1       4.245   6.506  17.982  0.00  0.00    +0.000 C 
ATOM      7  C   UNL     1       2.833   6.032  18.491  0.00  0.00    +0.000 C 
ATOM      8  C   UNL     1       1.507   5.762  17.689  0.00  0.00    +0.000 C 
ATOM      9  C   UNL     1       3.216   4.664  19.001  0.00  0.00    +0.000 C 
ATOM     10  C   UNL     1       2.356   4.336  20.277  0.00  0.00    +0.000 C 
ATOM     11  C   UNL     1       1.951   5.661  21.211  0.00  0.00    +0.000 C 
ATOM     12  C   UNL     1       1.394   6.951  20.460  0.00  0.00    +0.000 C 
ATOM     13  C   UNL     1       1.183   8.421  21.105  0.00  0.00    +0.000 C 
ATOM     14  C   UNL     1       0.077   8.852  22.086  0.00  0.00    +0.000 C 
ATOM     15  C   UNL     1       0.072  10.443  22.011  0.00  0.00    +0.000 C 
ATOM     16  C   UNL     1       0.784  10.828  20.739  0.00  0.00    +0.000 C 
ATOM     17  C   UNL     1       0.887   9.507  19.975  0.00  0.00    +0.000 C 
ATOM     18  C   UNL     1      -0.424   9.185  19.187  0.00  0.00    +0.000 C 
ATOM     19  C   UNL     1       2.076   9.629  19.053  0.00  0.00    +0.000 C 
ATOM     20  C   UNL     1       2.178   8.336  18.354  0.00  0.00    +0.000 C 
ATOM     21  C   UNL     1       2.473   7.201  19.379  0.00  0.00    +0.000 C 
ENDROOT
BRANCH  16  22
ATOM     22  C   UNL     1       0.374  12.006  19.795  0.00  0.00    +0.000 C 
ATOM     23  O   UNL     1      -0.819  12.204  19.538  0.00  0.00    +0.000 OA
ATOM     24  N   UNL     1       1.331  12.895  19.401  0.00  0.00    +0.000 N 
ATOM     25  H   UNL     1       2.306  12.677  19.539  0.00  0.00    +0.000 HD
BRANCH  24  26
ATOM     26  C   UNL     1       0.987  14.090  18.619  0.00  0.00    +0.000 C 
BRANCH  26  27
ATOM     27  C   UNL     1       2.193  14.983  18.317  0.00  0.00    +0.000 C 
BRANCH  27  28
ATOM     28  O   UNL     1       3.218  14.226  17.685  0.00  0.00    +0.000 OA
ATOM     29  H   UNL     1       2.771  13.592  17.100  0.00  0.00    +0.000 HD
ENDBRANCH  27  28
ENDBRANCH  26  27
ENDBRANCH  24  26
ENDBRANCH  16  22
TORSDOF 4
ENDMDL
MODEL 6
REMARK VINA RESULT:      -5.7      5.969      8.258
REMARK  Name = 
REMARK  7 active torsions:
REMARK  status: ('A' for Active; 'I' for Inactive)
REMARK    1  A    between atoms: C_1  and  N_2
REMARK    2  A    between atoms: C_7  and  C_8
REMARK    3  A    between atoms: C_16  and  C_17
REMARK    4  A    between atoms: N_19  and  C_20
REMARK    5  A    between atoms: C_20  and  C_21
REMARK    6  A    between atoms: C_21  and  O_22
REMARK    7  A    between atoms: C_23  and  C_24
REMARK                            x       y       z     vdW  Elec       q    Type
REMARK                         _______ _______ _______ _____ _____    ______ ____
ROOT
ATOM      1  C   UNL     1       3.115   2.866  16.713  0.00  0.00    +0.000 C 
ATOM      2  N   UNL     1       4.004   3.566  17.729  0.00  0.00    +0.000 N 
ATOM      3  C   UNL     1       5.022   4.146  16.874  0.00  0.00    +0.000 C 
ATOM      4  O   UNL     1       5.883   3.512  16.331  0.00  0.00    +0.000 OA
ATOM      5  C   UNL     1       4.646   5.563  16.449  0.00  0.00    +0.000 C 
ATOM      6  C   UNL     1       4.330   6.287  17.694  0.00  0.00    +0.000 C 
ATOM      7  C   UNL     1       3.030   5.745  18.396  0.00  0.00    +0.000 C 
ATOM      8  C   UNL     1       1.657   5.296  17.774  0.00  0.00    +0.000 C 
ATOM      9  C   UNL     1       3.589   4.462  18.965  0.00  0.00    +0.000 C 
ATOM     10  C   UNL     1       2.904   4.178  20.351  0.00  0.00    +0.000 C 
ATOM     11  C   UNL     1       2.480   5.541  21.220  0.00  0.00    +0.000 C 
ATOM     12  C   UNL     1       1.730   6.710  20.439  0.00  0.00    +0.000 C 
ATOM     13  C   UNL     1       1.454   8.209  20.986  0.00  0.00    +0.000 C 
ATOM     14  C   UNL     1       0.424   8.630  22.050  0.00  0.00    +0.000 C 
ATOM     15  C   UNL     1       0.264  10.203  21.853  0.00  0.00    +0.000 C 
ATOM     16  C   UNL     1       0.799  10.533  20.481  0.00  0.00    +0.000 C 
ATOM     17  C   UNL     1       0.941   9.163  19.816  0.00  0.00    +0.000 C 
ATOM     18  C   UNL     1      -0.410   8.666  19.210  0.00  0.00    +0.000 C 
ATOM     19  C   UNL     1       2.009   9.302  18.758  0.00  0.00    +0.000 C 
ATOM     20  C   UNL     1       2.155   7.965  18.155  0.00  0.00    +0.000 C 
ATOM     21  C   UNL     1       2.660   6.953  19.225  0.00  0.00    +0.000 C 
ENDROOT
BRANCH  16  22
ATOM     22  C   UNL     1       0.184  11.585  19.501  0.00  0.00    +0.000 C 
ATOM     23  O   UNL     1       0.915  12.417  18.951  0.00  0.00    +0.000 OA
ATOM     24  N   UNL     1      -1.128  11.464  19.146  0.00  0.00    +0.000 N 
ATOM     25  H   UNL     1      -1.733  10.845  19.664  0.00  0.00    +0.000 HD
BRANCH  24  26
ATOM     26  C   UNL     1      -1.729  12.344  18.136  0.00  0.00    +0.000 C 
BRANCH  26  27
ATOM     27  C   UNL     1      -2.793  11.647  17.283  0.00  0.00    +0.000 C 
BRANCH  27  28
ATOM     28  O   UNL     1      -2.373  11.589  15.925  0.00  0.00    +0.000 OA
ATOM     29  H   UNL     1      -2.533  12.471  15.550  0.00  0.00    +0.000 HD
ENDBRANCH  27  28
ENDBRANCH  26  27
ENDBRANCH  24  26
ENDBRANCH  16  22
TORSDOF 4
ENDMDL
MODEL 7
REMARK VINA RESULT:      -5.6      4.233      7.425
REMARK  Name = 
REMARK  7 active torsions:
REMARK  status: ('A' for Active; 'I' for Inactive)
REMARK    1  A    between atoms: C_1  and  N_2
REMARK    2  A    between atoms: C_7  and  C_8
REMARK    3  A    between atoms: C_16  and  C_17
REMARK    4  A    between atoms: N_19  and  C_20
REMARK    5  A    between atoms: C_20  and  C_21
REMARK    6  A    between atoms: C_21  and  O_22
REMARK    7  A    between atoms: C_23  and  C_24
REMARK                            x       y       z     vdW  Elec       q    Type
REMARK                         _______ _______ _______ _____ _____    ______ ____
ROOT
ATOM      1  C   UNL     1       2.007  10.442  18.200  0.00  0.00    +0.000 C 
ATOM      2  N   UNL     1       0.719   9.749  18.616  0.00  0.00    +0.000 N 
ATOM      3  C   UNL     1       1.198   8.828  19.630  0.00  0.00    +0.000 C 
ATOM      4  O   UNL     1       1.833   7.839  19.392  0.00  0.00    +0.000 OA
ATOM      5  C   UNL     1       1.135   9.455  21.021  0.00  0.00    +0.000 C 
ATOM      6  C   UNL     1      -0.244   9.956  21.174  0.00  0.00    +0.000 C 
ATOM      7  C   UNL     1      -0.563  11.154  20.204  0.00  0.00    +0.000 C 
ATOM      8  C   UNL     1       0.323  12.386  19.793  0.00  0.00    +0.000 C 
ATOM      9  C   UNL     1      -0.700  10.380  18.915  0.00  0.00    +0.000 C 
ATOM     10  C   UNL     1      -1.814  11.053  18.032  0.00  0.00    +0.000 C 
ATOM     11  C   UNL     1      -3.056  11.769  18.891  0.00  0.00    +0.000 C 
ATOM     12  C   UNL     1      -2.661  12.699  20.122  0.00  0.00    +0.000 C 
ATOM     13  C   UNL     1      -3.668  13.283  21.247  0.00  0.00    +0.000 C 
ATOM     14  C   UNL     1      -4.693  14.418  21.072  0.00  0.00    +0.000 C 
ATOM     15  C   UNL     1      -5.047  14.873  22.557  0.00  0.00    +0.000 C 
ATOM     16  C   UNL     1      -3.947  14.357  23.451  0.00  0.00    +0.000 C 
ATOM     17  C   UNL     1      -2.861  13.924  22.465  0.00  0.00    +0.000 C 
ATOM     18  C   UNL     1      -1.975  15.127  22.007  0.00  0.00    +0.000 C 
ATOM     19  C   UNL     1      -2.043  12.861  23.157  0.00  0.00    +0.000 C 
ATOM     20  C   UNL     1      -1.027  12.434  22.179  0.00  0.00    +0.000 C 
ATOM     21  C   UNL     1      -1.720  11.785  20.945  0.00  0.00    +0.000 C 
ENDROOT
BRANCH  16  22
ATOM     22  C   UNL     1      -3.341  15.124  24.672  0.00  0.00    +0.000 C 
ATOM     23  O   UNL     1      -3.042  14.507  25.701  0.00  0.00    +0.000 OA
ATOM     24  N   UNL     1      -3.001  16.437  24.519  0.00  0.00    +0.000 N 
ATOM     25  H   UNL     1      -3.329  16.950  23.715  0.00  0.00    +0.000 HD
BRANCH  24  26
ATOM     26  C   UNL     1      -2.315  17.176  25.586  0.00  0.00    +0.000 C 
BRANCH  26  27
ATOM     27  C   UNL     1      -0.789  17.159  25.448  0.00  0.00    +0.000 C 
BRANCH  27  28
ATOM     28  O   UNL     1      -0.286  15.858  25.726  0.00  0.00    +0.000 OA
ATOM     29  H   UNL     1       0.561  15.784  25.257  0.00  0.00    +0.000 HD
ENDBRANCH  27  28
ENDBRANCH  26  27
ENDBRANCH  24  26
ENDBRANCH  16  22
TORSDOF 4
ENDMDL
MODEL 8
REMARK VINA RESULT:      -5.5      5.900      8.039
REMARK  Name = 
REMARK  7 active torsions:
REMARK  status: ('A' for Active; 'I' for Inactive)
REMARK    1  A    between atoms: C_1  and  N_2
REMARK    2  A    between atoms: C_7  and  C_8
REMARK    3  A    between atoms: C_16  and  C_17
REMARK    4  A    between atoms: N_19  and  C_20
REMARK    5  A    between atoms: C_20  and  C_21
REMARK    6  A    between atoms: C_21  and  O_22
REMARK    7  A    between atoms: C_23  and  C_24
REMARK                            x       y       z     vdW  Elec       q    Type
REMARK                         _______ _______ _______ _____ _____    ______ ____
ROOT
ATOM      1  C   UNL     1      -2.304  12.211  20.438  0.00  0.00    +0.000 C 
ATOM      2  N   UNL     1      -0.827  12.394  20.746  0.00  0.00    +0.000 N 
ATOM      3  C   UNL     1      -0.796  12.160  22.177  0.00  0.00    +0.000 C 
ATOM      4  O   UNL     1      -1.218  12.932  22.993  0.00  0.00    +0.000 OA
ATOM      5  C   UNL     1      -0.528  10.691  22.493  0.00  0.00    +0.000 C 
ATOM      6  C   UNL     1       0.685  10.331  21.733  0.00  0.00    +0.000 C 
ATOM      7  C   UNL     1       0.450  10.348  20.177  0.00  0.00    +0.000 C 
ATOM      8  C   UNL     1      -0.778   9.844  19.333  0.00  0.00    +0.000 C 
ATOM      9  C   UNL     1       0.430  11.842  19.960  0.00  0.00    +0.000 C 
ATOM     10  C   UNL     1       1.086  12.164  18.567  0.00  0.00    +0.000 C 
ATOM     11  C   UNL     1       2.301  11.115  18.102  0.00  0.00    +0.000 C 
ATOM     12  C   UNL     1       2.027   9.553  18.259  0.00  0.00    +0.000 C 
ATOM     13  C   UNL     1       3.122   8.368  18.126  0.00  0.00    +0.000 C 
ATOM     14  C   UNL     1       3.768   7.846  16.830  0.00  0.00    +0.000 C 
ATOM     15  C   UNL     1       4.375   6.427  17.227  0.00  0.00    +0.000 C 
ATOM     16  C   UNL     1       3.696   5.999  18.504  0.00  0.00    +0.000 C 
ATOM     17  C   UNL     1       2.528   6.977  18.633  0.00  0.00    +0.000 C 
ATOM     18  C   UNL     1       1.295   6.528  17.784  0.00  0.00    +0.000 C 
ATOM     19  C   UNL     1       2.192   7.064  20.102  0.00  0.00    +0.000 C 
ATOM     20  C   UNL     1       1.090   8.036  20.206  0.00  0.00    +0.000 C 
ATOM     21  C   UNL     1       1.574   9.439  19.735  0.00  0.00    +0.000 C 
ENDROOT
BRANCH  16  22
ATOM     22  C   UNL     1       3.261   4.537  18.849  0.00  0.00    +0.000 C 
ATOM     23  O   UNL     1       2.829   3.795  17.959  0.00  0.00    +0.000 OA
ATOM     24  N   UNL     1       3.518   4.053  20.099  0.00  0.00    +0.000 N 
ATOM     25  H   UNL     1       3.784   4.686  20.837  0.00  0.00    +0.000 HD
BRANCH  24  26
ATOM     26  C   UNL     1       3.247   2.651  20.444  0.00  0.00    +0.000 C 
BRANCH  26  27
ATOM     27  C   UNL     1       4.428   1.719  20.158  0.00  0.00    +0.000 C 
BRANCH  27  28
ATOM     28  O   UNL     1       4.383   1.271  18.809  0.00  0.00    +0.000 OA
ATOM     29  H   UNL     1       4.233   0.311  18.843  0.00  0.00    +0.000 HD
ENDBRANCH  27  28
ENDBRANCH  26  27
ENDBRANCH  24  26
ENDBRANCH  16  22
TORSDOF 4
ENDMDL
MODEL 9
REMARK VINA RESULT:      -5.5      2.127      3.326
REMARK  Name = 
REMARK  7 active torsions:
REMARK  status: ('A' for Active; 'I' for Inactive)
REMARK    1  A    between atoms: C_1  and  N_2
REMARK    2  A    between atoms: C_7  and  C_8
REMARK    3  A    between atoms: C_16  and  C_17
REMARK    4  A    between atoms: N_19  and  C_20
REMARK    5  A    between atoms: C_20  and  C_21
REMARK    6  A    between atoms: C_21  and  O_22
REMARK    7  A    between atoms: C_23  and  C_24
REMARK                            x       y       z     vdW  Elec       q    Type
REMARK                         _______ _______ _______ _____ _____    ______ ____
ROOT
ATOM      1  C   UNL     1       8.218  15.140  20.522  0.00  0.00    +0.000 C 
ATOM      2  N   UNL     1       7.481  16.028  19.533  0.00  0.00    +0.000 N 
ATOM      3  C   UNL     1       7.874  15.442  18.266  0.00  0.00    +0.000 C 
ATOM      4  O   UNL     1       8.967  15.553  17.785  0.00  0.00    +0.000 OA
ATOM      5  C   UNL     1       6.880  14.373  17.818  0.00  0.00    +0.000 C 
ATOM      6  C   UNL     1       5.551  15.011  17.874  0.00  0.00    +0.000 C 
ATOM      7  C   UNL     1       5.105  15.353  19.344  0.00  0.00    +0.000 C 
ATOM      8  C   UNL     1       5.260  14.518  20.667  0.00  0.00    +0.000 C 
ATOM      9  C   UNL     1       5.989  16.552  19.584  0.00  0.00    +0.000 C 
ATOM     10  C   UNL     1       5.215  17.585  20.482  0.00  0.00    +0.000 C 
ATOM     11  C   UNL     1       3.559  17.609  20.260  0.00  0.00    +0.000 C 
ATOM     12  C   UNL     1       2.801  16.208  20.215  0.00  0.00    +0.000 C 
ATOM     13  C   UNL     1       1.267  15.959  19.759  0.00  0.00    +0.000 C 
ATOM     14  C   UNL     1      -0.002  16.310  20.555  0.00  0.00    +0.000 C 
ATOM     15  C   UNL     1      -1.155  15.448  19.872  0.00  0.00    +0.000 C 
ATOM     16  C   UNL     1      -0.480  14.355  19.082  0.00  0.00    +0.000 C 
ATOM     17  C   UNL     1       0.968  14.404  19.572  0.00  0.00    +0.000 C 
ATOM     18  C   UNL     1       1.160  13.610  20.905  0.00  0.00    +0.000 C 
ATOM     19  C   UNL     1       1.823  13.844  18.461  0.00  0.00    +0.000 C 
ATOM     20  C   UNL     1       3.213  13.933  18.940  0.00  0.00    +0.000 C 
ATOM     21  C   UNL     1       3.607  15.424  19.150  0.00  0.00    +0.000 C 
ENDROOT
BRANCH  16  22
ATOM     22  C   UNL     1      -0.993  12.883  18.956  0.00  0.00    +0.000 C 
ATOM     23  O   UNL     1      -1.173  12.202  19.973  0.00  0.00    +0.000 OA
ATOM     24  N   UNL     1      -1.389  12.428  17.731  0.00  0.00    +0.000 N 
ATOM     25  H   UNL     1      -1.156  12.953  16.902  0.00  0.00    +0.000 HD
BRANCH  24  26
ATOM     26  C   UNL     1      -1.995  11.101  17.571  0.00  0.00    +0.000 C 
BRANCH  26  27
ATOM     27  C   UNL     1      -2.484  10.828  16.144  0.00  0.00    +0.000 C 
BRANCH  27  28
ATOM     28  O   UNL     1      -3.530  11.728  15.804  0.00  0.00    +0.000 OA
ATOM     29  H   UNL     1      -3.176  12.315  15.116  0.00  0.00    +0.000 HD
ENDBRANCH  27  28
ENDBRANCH  26  27
ENDBRANCH  24  26
ENDBRANCH  16  22
TORSDOF 4
ENDMDL
