MODEL 1
REMARK VINA RESULT:      -7.9      0.000      0.000
REMARK  Name = 
REMARK  6 active torsions:
REMARK  status: ('A' for Active; 'I' for Inactive)
REMARK    1  A    between atoms: C_1  and  C_2
REMARK    2  A    between atoms: N_9  and  C_10
REMARK    3  A    between atoms: C_10  and  C_11
REMARK    4  A    between atoms: C_11  and  O_12
REMARK    5  A    between atoms: C_11  and  C_13
REMARK    6  A    between atoms: C_20  and  C_21
REMARK                            x       y       z     vdW  Elec       q    Type
REMARK                         _______ _______ _______ _____ _____    ______ ____
ROOT
ATOM      1  C   UNL     1       1.561   7.588  20.573  0.00  0.00    +0.000 C 
ATOM      2  C   UNL     1       2.151   6.353  19.971  0.00  0.00    +0.000 A 
ATOM      3  S   UNL     1       1.888   4.844  20.716  0.00  0.00    +0.000 S 
ATOM      4  C   UNL     1       2.752   4.020  19.512  0.00  0.00    +0.000 A 
ATOM      5  N   UNL     1       2.864   2.683  19.578  0.00  0.00    +0.000 NA
ATOM      6  C   UNL     1       3.537   2.181  18.546  0.00  0.00    +0.000 A 
ATOM      7  N   UNL     1       4.073   2.855  17.522  0.00  0.00    +0.000 NA
ATOM      8  C   UNL     1       3.969   4.205  17.488  0.00  0.00    +0.000 A 
ATOM      9  N   UNL     1       4.524   4.896  16.411  0.00  0.00    +0.000 N 
ATOM     10  C   UNL     1       3.270   4.860  18.532  0.00  0.00    +0.000 A 
ATOM     11  C   UNL     1       2.925   6.249  18.819  0.00  0.00    +0.000 A 
ATOM     12  C   UNL     1       3.296   7.451  18.006  0.00  0.00    +0.000 C 
ATOM     13  H   UNL     1       5.089   5.678  16.731  0.00  0.00    +0.000 HD
ENDROOT
BRANCH   9  14
ATOM     14  C   UNL     1       5.246   4.082  15.430  0.00  0.00    +0.000 C 
BRANCH  14  15
ATOM     15  C   UNL     1       6.736   4.501  15.411  0.00  0.00    +0.000 C 
BRANCH  15  16
ATOM     16  C   UNL     1       7.183   5.322  16.605  0.00  0.00    +0.000 A 
ATOM     17  C   UNL     1       7.583   4.658  17.778  0.00  0.00    +0.000 A 
ATOM     18  C   UNL     1       7.988   5.375  18.905  0.00  0.00    +0.000 A 
ATOM     19  C   UNL     1       8.014   6.766  18.874  0.00  0.00    +0.000 A 
ATOM     20  C   UNL     1       7.645   7.441  17.712  0.00  0.00    +0.000 A 
ATOM     21  C   UNL     1       7.240   6.725  16.584  0.00  0.00    +0.000 A 
ENDBRANCH  15  16
BRANCH  15  22
ATOM     22  O   UNL     1       6.987   5.241  14.204  0.00  0.00    +0.000 OA
ATOM     23  H   UNL     1       7.938   5.440  14.184  0.00  0.00    +0.000 HD
ENDBRANCH  15  22
ENDBRANCH  14  15
ENDBRANCH   9  14
TORSDOF 4
ENDMDL
MODEL 2
REMARK VINA RESULT:      -7.9      0.242      1.079
REMARK  Name = 
REMARK  6 active torsions:
REMARK  status: ('A' for Active; 'I' for Inactive)
REMARK    1  A    between atoms: C_1  and  C_2
REMARK    2  A    between atoms: N_9  and  C_10
REMARK    3  A    between atoms: C_10  and  C_11
REMARK    4  A    between atoms: C_11  and  O_12
REMARK    5  A    between atoms: C_11  and  C_13
REMARK    6  A    between atoms: C_20  and  C_21
REMARK                            x       y       z     vdW  Elec       q    Type
REMARK                         _______ _______ _______ _____ _____    ______ ____
ROOT
ATOM      1  C   UNL     1       1.483   7.199  20.745  0.00  0.00    +0.000 C 
ATOM      2  C   UNL     1       2.090   6.002  20.088  0.00  0.00    +0.000 A 
ATOM      3  S   UNL     1       1.820   4.453  20.744  0.00  0.00    +0.000 S 
ATOM      4  C   UNL     1       2.709   3.700  19.513  0.00  0.00    +0.000 A 
ATOM      5  N   UNL     1       2.826   2.361  19.507  0.00  0.00    +0.000 NA
ATOM      6  C   UNL     1       3.521   1.919  18.463  0.00  0.00    +0.000 A 
ATOM      7  N   UNL     1       4.073   2.650  17.488  0.00  0.00    +0.000 NA
ATOM      8  C   UNL     1       3.964   4.000  17.526  0.00  0.00    +0.000 A 
ATOM      9  N   UNL     1       4.537   4.750  16.499  0.00  0.00    +0.000 N 
ATOM     10  C   UNL     1       3.243   4.594  18.591  0.00  0.00    +0.000 A 
ATOM     11  C   UNL     1       2.886   5.964  18.947  0.00  0.00    +0.000 A 
ATOM     12  C   UNL     1       3.268   7.210  18.209  0.00  0.00    +0.000 C 
ATOM     13  H   UNL     1       5.092   5.516  16.873  0.00  0.00    +0.000 HD
ENDROOT
BRANCH   9  14
ATOM     14  C   UNL     1       5.281   3.995  15.490  0.00  0.00    +0.000 C 
BRANCH  14  15
ATOM     15  C   UNL     1       6.740   4.510  15.433  0.00  0.00    +0.000 C 
BRANCH  15  16
ATOM     16  C   UNL     1       7.186   5.294  16.652  0.00  0.00    +0.000 A 
ATOM     17  C   UNL     1       7.212   6.698  16.587  0.00  0.00    +0.000 A 
ATOM     18  C   UNL     1       7.629   7.458  17.680  0.00  0.00    +0.000 A 
ATOM     19  C   UNL     1       8.013   6.830  18.860  0.00  0.00    +0.000 A 
ATOM     20  C   UNL     1       7.971   5.440  18.952  0.00  0.00    +0.000 A 
ATOM     21  C   UNL     1       7.554   4.678  17.859  0.00  0.00    +0.000 A 
ENDBRANCH  15  16
BRANCH  15  22
ATOM     22  O   UNL     1       6.890   5.326  14.260  0.00  0.00    +0.000 OA
ATOM     23  H   UNL     1       7.833   5.315  14.023  0.00  0.00    +0.000 HD
ENDBRANCH  15  22
ENDBRANCH  14  15
ENDBRANCH   9  14
TORSDOF 4
ENDMDL
MODEL 3
REMARK VINA RESULT:      -7.8      1.212      2.766
REMARK  Name = 
REMARK  6 active torsions:
REMARK  status: ('A' for Active; 'I' for Inactive)
REMARK    1  A    between atoms: C_1  and  C_2
REMARK    2  A    between atoms: N_9  and  C_10
REMARK    3  A    between atoms: C_10  and  C_11
REMARK    4  A    between atoms: C_11  and  O_12
REMARK    5  A    between atoms: C_11  and  C_13
REMARK    6  A    between atoms: C_20  and  C_21
REMARK                            x       y       z     vdW  Elec       q    Type
REMARK                         _______ _______ _______ _____ _____    ______ ____
ROOT
ATOM      1  C   UNL     1       1.935   2.397  21.499  0.00  0.00    +0.000 C 
ATOM      2  C   UNL     1       2.308   3.447  20.503  0.00  0.00    +0.000 A 
ATOM      3  S   UNL     1       1.838   5.063  20.767  0.00  0.00    +0.000 S 
ATOM      4  C   UNL     1       2.614   5.593  19.356  0.00  0.00    +0.000 A 
ATOM      5  N   UNL     1       2.590   6.899  19.039  0.00  0.00    +0.000 NA
ATOM      6  C   UNL     1       3.272   7.162  17.928  0.00  0.00    +0.000 A 
ATOM      7  N   UNL     1       3.931   6.290  17.155  0.00  0.00    +0.000 NA
ATOM      8  C   UNL     1       3.922   4.975  17.479  0.00  0.00    +0.000 A 
ATOM      9  N   UNL     1       4.619   4.079  16.670  0.00  0.00    +0.000 N 
ATOM     10  C   UNL     1       3.230   4.567  18.647  0.00  0.00    +0.000 A 
ATOM     11  C   UNL     1       3.030   3.290  19.324  0.00  0.00    +0.000 A 
ATOM     12  C   UNL     1       3.535   1.951  18.880  0.00  0.00    +0.000 C 
ATOM     13  H   UNL     1       4.043   3.274  16.435  0.00  0.00    +0.000 HD
ENDROOT
BRANCH   9  14
ATOM     14  C   UNL     1       5.253   4.647  15.479  0.00  0.00    +0.000 C 
BRANCH  14  15
ATOM     15  C   UNL     1       6.789   4.660  15.670  0.00  0.00    +0.000 C 
BRANCH  15  16
ATOM     16  C   UNL     1       7.279   5.482  16.846  0.00  0.00    +0.000 A 
ATOM     17  C   UNL     1       7.361   6.879  16.714  0.00  0.00    +0.000 A 
ATOM     18  C   UNL     1       7.819   7.672  17.767  0.00  0.00    +0.000 A 
ATOM     19  C   UNL     1       8.188   7.085  18.973  0.00  0.00    +0.000 A 
ATOM     20  C   UNL     1       8.090   5.704  19.131  0.00  0.00    +0.000 A 
ATOM     21  C   UNL     1       7.632   4.909  18.078  0.00  0.00    +0.000 A 
ENDBRANCH  15  16
BRANCH  15  22
ATOM     22  O   UNL     1       7.394   5.150  14.461  0.00  0.00    +0.000 OA
ATOM     23  H   UNL     1       6.671   5.404  13.862  0.00  0.00    +0.000 HD
ENDBRANCH  15  22
ENDBRANCH  14  15
ENDBRANCH   9  14
TORSDOF 4
ENDMDL
MODEL 4
REMARK VINA RESULT:      -7.6      1.191      2.555
REMARK  Name = 
REMARK  6 active torsions:
REMARK  status: ('A' for Active; 'I' for Inactive)
REMARK    1  A    between atoms: C_1  and  C_2
REMARK    2  A    between atoms: N_9  and  C_10
REMARK    3  A    between atoms: C_10  and  C_11
REMARK    4  A    between atoms: C_11  and  O_12
REMARK    5  A    between atoms: C_11  and  C_13
REMARK    6  A    between atoms: C_20  and  C_21
REMARK                            x       y       z     vdW  Elec       q    Type
REMARK                         _______ _______ _______ _____ _____    ______ ____
ROOT
ATOM      1  C   UNL     1       2.053   2.382  21.540  0.00  0.00    +0.000 C 
ATOM      2  C   UNL     1       2.413   3.425  20.531  0.00  0.00    +0.000 A 
ATOM      3  S   UNL     1       1.973   5.048  20.803  0.00  0.00    +0.000 S 
ATOM      4  C   UNL     1       2.718   5.563  19.370  0.00  0.00    +0.000 A 
ATOM      5  N   UNL     1       2.704   6.868  19.050  0.00  0.00    +0.000 NA
ATOM      6  C   UNL     1       3.359   7.118  17.920  0.00  0.00    +0.000 A 
ATOM      7  N   UNL     1       3.984   6.235  17.132  0.00  0.00    +0.000 NA
ATOM      8  C   UNL     1       3.966   4.921  17.460  0.00  0.00    +0.000 A 
ATOM      9  N   UNL     1       4.628   4.013  16.636  0.00  0.00    +0.000 N 
ATOM     10  C   UNL     1       3.300   4.526  18.648  0.00  0.00    +0.000 A 
ATOM     11  C   UNL     1       3.100   3.254  19.334  0.00  0.00    +0.000 A 
ATOM     12  C   UNL     1       3.574   1.907  18.880  0.00  0.00    +0.000 C 
ATOM     13  H   UNL     1       4.034   3.216  16.419  0.00  0.00    +0.000 HD
ENDROOT
BRANCH   9  14
ATOM     14  C   UNL     1       5.237   4.569  15.426  0.00  0.00    +0.000 C 
BRANCH  14  15
ATOM     15  C   UNL     1       6.774   4.628  15.603  0.00  0.00    +0.000 C 
BRANCH  15  16
ATOM     16  C   UNL     1       7.248   5.465  16.775  0.00  0.00    +0.000 A 
ATOM     17  C   UNL     1       7.614   4.819  17.969  0.00  0.00    +0.000 A 
ATOM     18  C   UNL     1       8.044   5.552  19.077  0.00  0.00    +0.000 A 
ATOM     19  C   UNL     1       8.129   6.938  19.006  0.00  0.00    +0.000 A 
ATOM     20  C   UNL     1       7.794   7.594  17.823  0.00  0.00    +0.000 A 
ATOM     21  C   UNL     1       7.364   6.863  16.714  0.00  0.00    +0.000 A 
ENDBRANCH  15  16
BRANCH  15  22
ATOM     22  O   UNL     1       7.353   5.136  14.390  0.00  0.00    +0.000 OA
ATOM     23  H   UNL     1       6.922   5.987  14.202  0.00  0.00    +0.000 HD
ENDBRANCH  15  22
ENDBRANCH  14  15
ENDBRANCH   9  14
TORSDOF 4
ENDMDL
MODEL 5
REMARK VINA RESULT:      -7.1      1.232      1.608
REMARK  Name = 
REMARK  6 active torsions:
REMARK  status: ('A' for Active; 'I' for Inactive)
REMARK    1  A    between atoms: C_1  and  C_2
REMARK    2  A    between atoms: N_9  and  C_10
REMARK    3  A    between atoms: C_10  and  C_11
REMARK    4  A    between atoms: C_11  and  O_12
REMARK    5  A    between atoms: C_11  and  C_13
REMARK    6  A    between atoms: C_20  and  C_21
REMARK                            x       y       z     vdW  Elec       q    Type
REMARK                         _______ _______ _______ _____ _____    ______ ____
ROOT
ATOM      1  C   UNL     1       1.096   9.588  19.696  0.00  0.00    +0.000 C 
ATOM      2  C   UNL     1       1.601   8.182  19.739  0.00  0.00    +0.000 A 
ATOM      3  S   UNL     1       1.256   7.204  21.090  0.00  0.00    +0.000 S 
ATOM      4  C   UNL     1       2.051   5.868  20.414  0.00  0.00    +0.000 A 
ATOM      5  N   UNL     1       2.082   4.706  21.088  0.00  0.00    +0.000 NA
ATOM      6  C   UNL     1       2.708   3.747  20.414  0.00  0.00    +0.000 A 
ATOM      7  N   UNL     1       3.270   3.841  19.203  0.00  0.00    +0.000 NA
ATOM      8  C   UNL     1       3.248   5.027  18.550  0.00  0.00    +0.000 A 
ATOM      9  N   UNL     1       3.830   5.109  17.285  0.00  0.00    +0.000 N 
ATOM     10  C   UNL     1       2.606   6.130  19.165  0.00  0.00    +0.000 A 
ATOM     11  C   UNL     1       2.351   7.513  18.776  0.00  0.00    +0.000 A 
ATOM     12  C   UNL     1       2.783   8.182  17.507  0.00  0.00    +0.000 C 
ATOM     13  H   UNL     1       4.446   5.916  17.218  0.00  0.00    +0.000 HD
ENDROOT
BRANCH   9  14
ATOM     14  C   UNL     1       4.487   3.894  16.800  0.00  0.00    +0.000 C 
BRANCH  14  15
ATOM     15  C   UNL     1       5.884   4.254  16.239  0.00  0.00    +0.000 C 
BRANCH  15  16
ATOM     16  C   UNL     1       6.661   5.263  17.061  0.00  0.00    +0.000 A 
ATOM     17  C   UNL     1       7.262   4.846  18.262  0.00  0.00    +0.000 A 
ATOM     18  C   UNL     1       7.975   5.745  19.056  0.00  0.00    +0.000 A 
ATOM     19  C   UNL     1       8.111   7.071  18.658  0.00  0.00    +0.000 A 
ATOM     20  C   UNL     1       7.543   7.498  17.459  0.00  0.00    +0.000 A 
ATOM     21  C   UNL     1       6.830   6.599  16.663  0.00  0.00    +0.000 A 
ENDBRANCH  15  16
BRANCH  15  22
ATOM     22  O   UNL     1       5.723   4.753  14.901  0.00  0.00    +0.000 OA
ATOM     23  H   UNL     1       5.580   5.712  14.969  0.00  0.00    +0.000 HD
ENDBRANCH  15  22
ENDBRANCH  14  15
ENDBRANCH   9  14
TORSDOF 4
ENDMDL
MODEL 6
REMARK VINA RESULT:      -7.1      2.108      4.040
REMARK  Name = 
REMARK  6 active torsions:
REMARK  status: ('A' for Active; 'I' for Inactive)
REMARK    1  A    between atoms: C_1  and  C_2
REMARK    2  A    between atoms: N_9  and  C_10
REMARK    3  A    between atoms: C_10  and  C_11
REMARK    4  A    between atoms: C_11  and  O_12
REMARK    5  A    between atoms: C_11  and  C_13
REMARK    6  A    between atoms: C_20  and  C_21
REMARK                            x       y       z     vdW  Elec       q    Type
REMARK                         _______ _______ _______ _____ _____    ______ ____
ROOT
ATOM      1  C   UNL     1       2.112   2.708  21.478  0.00  0.00    +0.000 C 
ATOM      2  C   UNL     1       2.407   3.852  20.563  0.00  0.00    +0.000 A 
ATOM      3  S   UNL     1       1.437   5.251  20.622  0.00  0.00    +0.000 S 
ATOM      4  C   UNL     1       2.363   6.028  19.434  0.00  0.00    +0.000 A 
ATOM      5  N   UNL     1       2.044   7.279  19.061  0.00  0.00    +0.000 NA
ATOM      6  C   UNL     1       2.882   7.764  18.150  0.00  0.00    +0.000 A 
ATOM      7  N   UNL     1       3.941   7.148  17.613  0.00  0.00    +0.000 NA
ATOM      8  C   UNL     1       4.231   5.879  17.985  0.00  0.00    +0.000 A 
ATOM      9  N   UNL     1       5.343   5.251  17.423  0.00  0.00    +0.000 N 
ATOM     10  C   UNL     1       3.411   5.250  18.954  0.00  0.00    +0.000 A 
ATOM     11  C   UNL     1       3.423   3.949  19.616  0.00  0.00    +0.000 A 
ATOM     12  C   UNL     1       4.391   2.831  19.379  0.00  0.00    +0.000 C 
ATOM     13  H   UNL     1       5.106   4.321  17.087  0.00  0.00    +0.000 HD
ENDROOT
BRANCH   9  14
ATOM     14  C   UNL     1       6.069   6.016  16.408  0.00  0.00    +0.000 C 
BRANCH  14  15
ATOM     15  C   UNL     1       7.201   5.142  15.816  0.00  0.00    +0.000 C 
BRANCH  15  16
ATOM     16  C   UNL     1       6.963   4.666  14.397  0.00  0.00    +0.000 A 
ATOM     17  C   UNL     1       5.888   3.796  14.141  0.00  0.00    +0.000 A 
ATOM     18  C   UNL     1       5.640   3.323  12.852  0.00  0.00    +0.000 A 
ATOM     19  C   UNL     1       6.453   3.721  11.795  0.00  0.00    +0.000 A 
ATOM     20  C   UNL     1       7.508   4.602  12.024  0.00  0.00    +0.000 A 
ATOM     21  C   UNL     1       7.757   5.076  13.314  0.00  0.00    +0.000 A 
ENDBRANCH  15  16
BRANCH  15  22
ATOM     22  O   UNL     1       7.394   4.005  16.674  0.00  0.00    +0.000 OA
ATOM     23  H   UNL     1       7.629   3.253  16.104  0.00  0.00    +0.000 HD
ENDBRANCH  15  22
ENDBRANCH  14  15
ENDBRANCH   9  14
TORSDOF 4
ENDMDL
MODEL 7
REMARK VINA RESULT:      -7.1      2.137      4.112
REMARK  Name = 
REMARK  6 active torsions:
REMARK  status: ('A' for Active; 'I' for Inactive)
REMARK    1  A    between atoms: C_1  and  C_2
REMARK    2  A    between atoms: N_9  and  C_10
REMARK    3  A    between atoms: C_10  and  C_11
REMARK    4  A    between atoms: C_11  and  O_12
REMARK    5  A    between atoms: C_11  and  C_13
REMARK    6  A    between atoms: C_20  and  C_21
REMARK                            x       y       z     vdW  Elec       q    Type
REMARK                         _______ _______ _______ _____ _____    ______ ____
ROOT
ATOM      1  C   UNL     1       2.198   3.105  21.684  0.00  0.00    +0.000 C 
ATOM      2  C   UNL     1       2.466   4.203  20.706  0.00  0.00    +0.000 A 
ATOM      3  S   UNL     1       1.486   5.596  20.714  0.00  0.00    +0.000 S 
ATOM      4  C   UNL     1       2.381   6.319  19.470  0.00  0.00    +0.000 A 
ATOM      5  N   UNL     1       2.044   7.547  19.041  0.00  0.00    +0.000 NA
ATOM      6  C   UNL     1       2.860   7.992  18.090  0.00  0.00    +0.000 A 
ATOM      7  N   UNL     1       3.914   7.357  17.563  0.00  0.00    +0.000 NA
ATOM      8  C   UNL     1       4.222   6.110  17.993  0.00  0.00    +0.000 A 
ATOM      9  N   UNL     1       5.328   5.463  17.442  0.00  0.00    +0.000 N 
ATOM     10  C   UNL     1       3.427   5.525  19.009  0.00  0.00    +0.000 A 
ATOM     11  C   UNL     1       3.462   4.260  19.736  0.00  0.00    +0.000 A 
ATOM     12  C   UNL     1       4.435   3.139  19.536  0.00  0.00    +0.000 C 
ATOM     13  H   UNL     1       5.092   4.515  17.158  0.00  0.00    +0.000 HD
ENDROOT
BRANCH   9  14
ATOM     14  C   UNL     1       6.028   6.182  16.375  0.00  0.00    +0.000 C 
BRANCH  14  15
ATOM     15  C   UNL     1       7.154   5.286  15.805  0.00  0.00    +0.000 C 
BRANCH  15  16
ATOM     16  C   UNL     1       6.876   4.709  14.431  0.00  0.00    +0.000 A 
ATOM     17  C   UNL     1       7.737   5.033  13.368  0.00  0.00    +0.000 A 
ATOM     18  C   UNL     1       7.510   4.535  12.084  0.00  0.00    +0.000 A 
ATOM     19  C   UNL     1       6.429   3.694  11.844  0.00  0.00    +0.000 A 
ATOM     20  C   UNL     1       5.578   3.341  12.890  0.00  0.00    +0.000 A 
ATOM     21  C   UNL     1       5.804   3.839  14.175  0.00  0.00    +0.000 A 
ENDBRANCH  15  16
BRANCH  15  22
ATOM     22  O   UNL     1       7.397   4.215  16.731  0.00  0.00    +0.000 OA
ATOM     23  H   UNL     1       7.616   4.621  17.587  0.00  0.00    +0.000 HD
ENDBRANCH  15  22
ENDBRANCH  14  15
ENDBRANCH   9  14
TORSDOF 4
ENDMDL
MODEL 8
REMARK VINA RESULT:      -6.9      3.490      7.040
REMARK  Name = 
REMARK  6 active torsions:
REMARK  status: ('A' for Active; 'I' for Inactive)
REMARK    1  A    between atoms: C_1  and  C_2
REMARK    2  A    between atoms: N_9  and  C_10
REMARK    3  A    between atoms: C_10  and  C_11
REMARK    4  A    between atoms: C_11  and  O_12
REMARK    5  A    between atoms: C_11  and  C_13
REMARK    6  A    between atoms: C_20  and  C_21
REMARK                            x       y       z     vdW  Elec       q    Type
REMARK                         _______ _______ _______ _____ _____    ______ ____
ROOT
ATOM      1  C   UNL     1       5.448   3.965  16.161  0.00  0.00    +0.000 C 
ATOM      2  C   UNL     1       4.410   4.108  17.227  0.00  0.00    +0.000 A 
ATOM      3  S   UNL     1       3.666   2.717  17.871  0.00  0.00    +0.000 S 
ATOM      4  C   UNL     1       2.742   3.629  18.960  0.00  0.00    +0.000 A 
ATOM      5  N   UNL     1       1.913   3.001  19.810  0.00  0.00    +0.000 NA
ATOM      6  C   UNL     1       1.287   3.847  20.623  0.00  0.00    +0.000 A 
ATOM      7  N   UNL     1       1.408   5.180  20.657  0.00  0.00    +0.000 NA
ATOM      8  C   UNL     1       2.231   5.795  19.774  0.00  0.00    +0.000 A 
ATOM      9  N   UNL     1       2.355   7.183  19.825  0.00  0.00    +0.000 N 
ATOM     10  C   UNL     1       2.959   4.999  18.855  0.00  0.00    +0.000 A 
ATOM     11  C   UNL     1       3.939   5.280  17.811  0.00  0.00    +0.000 A 
ATOM     12  C   UNL     1       4.441   6.628  17.392  0.00  0.00    +0.000 C 
ATOM     13  H   UNL     1       2.255   7.593  18.899  0.00  0.00    +0.000 HD
ENDROOT
BRANCH   9  14
ATOM     14  C   UNL     1       1.510   7.868  20.805  0.00  0.00    +0.000 C 
BRANCH  14  15
ATOM     15  C   UNL     1       1.287   9.333  20.358  0.00  0.00    +0.000 C 
BRANCH  15  16
ATOM     16  C   UNL     1       0.409  10.155  21.281  0.00  0.00    +0.000 A 
ATOM     17  C   UNL     1       0.233  11.524  21.013  0.00  0.00    +0.000 A 
ATOM     18  C   UNL     1      -0.556  12.321  21.845  0.00  0.00    +0.000 A 
ATOM     19  C   UNL     1      -1.192  11.761  22.948  0.00  0.00    +0.000 A 
ATOM     20  C   UNL     1      -1.049  10.401  23.216  0.00  0.00    +0.000 A 
ATOM     21  C   UNL     1      -0.261   9.603  22.384  0.00  0.00    +0.000 A 
ENDBRANCH  15  16
BRANCH  15  22
ATOM     22  O   UNL     1       0.715   9.324  19.039  0.00  0.00    +0.000 OA
ATOM     23  H   UNL     1       0.574  10.252  18.783  0.00  0.00    +0.000 HD
ENDBRANCH  15  22
ENDBRANCH  14  15
ENDBRANCH   9  14
TORSDOF 4
ENDMDL
MODEL 9
REMARK VINA RESULT:      -6.9      3.713      6.927
REMARK  Name = 
REMARK  6 active torsions:
REMARK  status: ('A' for Active; 'I' for Inactive)
REMARK    1  A    between atoms: C_1  and  C_2
REMARK    2  A    between atoms: N_9  and  C_10
REMARK    3  A    between atoms: C_10  and  C_11
REMARK    4  A    between atoms: C_11  and  O_12
REMARK    5  A    between atoms: C_11  and  C_13
REMARK    6  A    between atoms: C_20  and  C_21
REMARK                            x       y       z     vdW  Elec       q    Type
REMARK                         _______ _______ _______ _____ _____    ______ ____
ROOT
ATOM      1  C   UNL     1       5.752   3.909  16.276  0.00  0.00    +0.000 C 
ATOM      2  C   UNL     1       4.744   4.321  17.300  0.00  0.00    +0.000 A 
ATOM      3  S   UNL     1       4.183   3.183  18.436  0.00  0.00    +0.000 S 
ATOM      4  C   UNL     1       3.202   4.331  19.206  0.00  0.00    +0.000 A 
ATOM      5  N   UNL     1       2.479   3.969  20.279  0.00  0.00    +0.000 NA
ATOM      6  C   UNL     1       1.791   4.985  20.792  0.00  0.00    +0.000 A 
ATOM      7  N   UNL     1       1.763   6.249  20.353  0.00  0.00    +0.000 NA
ATOM      8  C   UNL     1       2.481   6.587  19.255  0.00  0.00    +0.000 A 
ATOM      9  N   UNL     1       2.450   7.910  18.814  0.00  0.00    +0.000 N 
ATOM     10  C   UNL     1       3.260   5.590  18.618  0.00  0.00    +0.000 A 
ATOM     11  C   UNL     1       4.165   5.575  17.473  0.00  0.00    +0.000 A 
ATOM     12  C   UNL     1       4.498   6.730  16.579  0.00  0.00    +0.000 C 
ATOM     13  H   UNL     1       2.273   7.957  17.813  0.00  0.00    +0.000 HD
ENDROOT
BRANCH   9  14
ATOM     14  C   UNL     1       1.568   8.815  19.554  0.00  0.00    +0.000 C 
BRANCH  14  15
ATOM     15  C   UNL     1       1.301  10.081  18.705  0.00  0.00    +0.000 C 
BRANCH  15  16
ATOM     16  C   UNL     1      -0.160  10.464  18.575  0.00  0.00    +0.000 A 
ATOM     17  C   UNL     1      -0.958   9.796  17.630  0.00  0.00    +0.000 A 
ATOM     18  C   UNL     1      -2.305  10.126  17.468  0.00  0.00    +0.000 A 
ATOM     19  C   UNL     1      -2.879  11.118  18.256  0.00  0.00    +0.000 A 
ATOM     20  C   UNL     1      -2.111  11.774  19.215  0.00  0.00    +0.000 A 
ATOM     21  C   UNL     1      -0.764  11.445  19.378  0.00  0.00    +0.000 A 
ENDBRANCH  15  16
BRANCH  15  22
ATOM     22  O   UNL     1       1.859   9.879  17.397  0.00  0.00    +0.000 OA
ATOM     23  H   UNL     1       2.826   9.867  17.497  0.00  0.00    +0.000 HD
ENDBRANCH  15  22
ENDBRANCH  14  15
ENDBRANCH   9  14
TORSDOF 4
ENDMDL
