MODEL 1
REMARK VINA RESULT:      -6.7      0.000      0.000
REMARK  Name = 
REMARK  7 active torsions:
REMARK  status: ('A' for Active; 'I' for Inactive)
REMARK    1  A    between atoms: C_1  and  N_2
REMARK    2  A    between atoms: C_6  and  S_7
REMARK    3  A    between atoms: S_7  and  C_8
REMARK    4  A    between atoms: C_8  and  C_9
REMARK    5  A    between atoms: N_11  and  N_12
REMARK    6  A    between atoms: C_13  and  C_14
REMARK    7  A    between atoms: C_17  and  N_18
REMARK                            x       y       z     vdW  Elec       q    Type
REMARK                         _______ _______ _______ _____ _____    ______ ____
ROOT
ATOM      1  C   UNL     1       4.841   4.459  17.613  0.00  0.00    +0.000 C 
ATOM      2  O   UNL     1       5.416   3.832  16.723  0.00  0.00    +0.000 OA
ATOM      3  N   UNL     1       3.966   5.476  17.277  0.00  0.00    +0.000 N 
ATOM      4  H   UNL     1       3.846   5.684  16.291  0.00  0.00    +0.000 HD
ENDROOT
BRANCH   3   5
ATOM      5  N   UNL     1       3.288   6.155  18.231  0.00  0.00    +0.000 NA
ATOM      6  C   UNL     1       2.800   7.310  17.916  0.00  0.00    +0.000 C 
BRANCH   6   7
ATOM      7  C   UNL     1       2.071   8.085  18.944  0.00  0.00    +0.000 A 
ATOM      8  C   UNL     1       1.910   7.545  20.230  0.00  0.00    +0.000 A 
ATOM      9  C   UNL     1       1.236   8.261  21.217  0.00  0.00    +0.000 A 
ATOM     10  C   UNL     1       0.719   9.524  20.914  0.00  0.00    +0.000 A 
ATOM     11  C   UNL     1       0.875  10.070  19.630  0.00  0.00    +0.000 A 
ATOM     12  C   UNL     1       1.555   9.349  18.640  0.00  0.00    +0.000 A 
BRANCH  10  13
ATOM     13  N   UNL     1       0.010  10.282  21.955  0.00  0.00    +0.000 N 
ATOM     14  O   UNL     1      -0.792   9.667  22.671  0.00  0.00    +0.000 OA
ATOM     15  O   UNL     1       0.260  11.490  22.053  0.00  0.00    +0.000 OA
ENDBRANCH  10  13
ENDBRANCH   6   7
ENDBRANCH   3   5
BRANCH   1  16
ATOM     16  C   UNL     1       4.985   4.165  19.108  0.00  0.00    +0.000 C 
BRANCH  16  17
ATOM     17  S   UNL     1       4.461   2.467  19.510  0.00  0.00    +0.000 S 
BRANCH  17  23
ATOM     18  C   UNL     1       2.080   3.354  21.575  0.00  0.00    +0.000 C 
ATOM     19  N   UNL     1       1.863   2.969  20.208  0.00  0.00    +0.000 N 
ATOM     20  N   UNL     1       0.621   2.961  19.690  0.00  0.00    +0.000 NA
ATOM     21  N   UNL     1       0.773   2.574  18.430  0.00  0.00    +0.000 NA
ATOM     22  N   UNL     1       2.098   2.336  18.141  0.00  0.00    +0.000 NA
ATOM     23  C   UNL     1       2.757   2.584  19.250  0.00  0.00    +0.000 A 
ENDBRANCH  17  23
ENDBRANCH  16  17
ENDBRANCH   1  16
TORSDOF 6
ENDMDL
MODEL 2
REMARK VINA RESULT:      -6.6      0.651      1.293
REMARK  Name = 
REMARK  7 active torsions:
REMARK  status: ('A' for Active; 'I' for Inactive)
REMARK    1  A    between atoms: C_1  and  N_2
REMARK    2  A    between atoms: C_6  and  S_7
REMARK    3  A    between atoms: S_7  and  C_8
REMARK    4  A    between atoms: C_8  and  C_9
REMARK    5  A    between atoms: N_11  and  N_12
REMARK    6  A    between atoms: C_13  and  C_14
REMARK    7  A    between atoms: C_17  and  N_18
REMARK                            x       y       z     vdW  Elec       q    Type
REMARK                         _______ _______ _______ _____ _____    ______ ____
ROOT
ATOM      1  C   UNL     1       4.920   4.451  17.643  0.00  0.00    +0.000 C 
ATOM      2  O   UNL     1       5.663   3.804  16.903  0.00  0.00    +0.000 OA
ATOM      3  N   UNL     1       4.034   5.362  17.096  0.00  0.00    +0.000 N 
ATOM      4  H   UNL     1       4.047   5.480  16.088  0.00  0.00    +0.000 HD
ENDROOT
BRANCH   3   5
ATOM      5  N   UNL     1       3.177   6.056  17.880  0.00  0.00    +0.000 NA
ATOM      6  C   UNL     1       3.146   7.341  17.747  0.00  0.00    +0.000 C 
BRANCH   6   7
ATOM      7  C   UNL     1       2.233   8.129  18.604  0.00  0.00    +0.000 A 
ATOM      8  C   UNL     1       1.577   9.248  18.067  0.00  0.00    +0.000 A 
ATOM      9  C   UNL     1       0.704   9.999  18.851  0.00  0.00    +0.000 A 
ATOM     10  C   UNL     1       0.488   9.627  20.182  0.00  0.00    +0.000 A 
ATOM     11  C   UNL     1       1.141   8.510  20.726  0.00  0.00    +0.000 A 
ATOM     12  C   UNL     1       2.017   7.756  19.934  0.00  0.00    +0.000 A 
BRANCH  10  13
ATOM     13  N   UNL     1      -0.435  10.416  21.010  0.00  0.00    +0.000 N 
ATOM     14  O   UNL     1      -1.186  11.216  20.435  0.00  0.00    +0.000 OA
ATOM     15  O   UNL     1      -0.405  10.233  22.234  0.00  0.00    +0.000 OA
ENDBRANCH  10  13
ENDBRANCH   6   7
ENDBRANCH   3   5
BRANCH   1  16
ATOM     16  C   UNL     1       4.863   4.289  19.164  0.00  0.00    +0.000 C 
BRANCH  16  17
ATOM     17  S   UNL     1       4.403   2.592  19.641  0.00  0.00    +0.000 S 
BRANCH  17  23
ATOM     18  C   UNL     1       1.891   3.311  21.613  0.00  0.00    +0.000 C 
ATOM     19  N   UNL     1       1.754   2.931  20.235  0.00  0.00    +0.000 N 
ATOM     20  N   UNL     1       0.537   2.856  19.666  0.00  0.00    +0.000 NA
ATOM     21  N   UNL     1       0.763   2.494  18.410  0.00  0.00    +0.000 NA
ATOM     22  N   UNL     1       2.111   2.339  18.173  0.00  0.00    +0.000 NA
ATOM     23  C   UNL     1       2.708   2.611  19.312  0.00  0.00    +0.000 A 
ENDBRANCH  17  23
ENDBRANCH  16  17
ENDBRANCH   1  16
TORSDOF 6
ENDMDL
MODEL 3
REMARK VINA RESULT:      -6.6      1.001      1.829
REMARK  Name = 
REMARK  7 active torsions:
REMARK  status: ('A' for Active; 'I' for Inactive)
REMARK    1  A    between atoms: C_1  and  N_2
REMARK    2  A    between atoms: C_6  and  S_7
REMARK    3  A    between atoms: S_7  and  C_8
REMARK    4  A    between atoms: C_8  and  C_9
REMARK    5  A    between atoms: N_11  and  N_12
REMARK    6  A    between atoms: C_13  and  C_14
REMARK    7  A    between atoms: C_17  and  N_18
REMARK                            x       y       z     vdW  Elec       q    Type
REMARK                         _______ _______ _______ _____ _____    ______ ____
ROOT
ATOM      1  C   UNL     1       5.154   4.666  17.499  0.00  0.00    +0.000 C 
ATOM      2  O   UNL     1       5.679   3.877  16.712  0.00  0.00    +0.000 OA
ATOM      3  N   UNL     1       4.741   5.907  17.049  0.00  0.00    +0.000 N 
ATOM      4  H   UNL     1       4.909   6.131  16.073  0.00  0.00    +0.000 HD
ENDROOT
BRANCH   3   5
ATOM      5  N   UNL     1       4.123   6.778  17.879  0.00  0.00    +0.000 NA
ATOM      6  C   UNL     1       2.836   6.871  17.806  0.00  0.00    +0.000 C 
BRANCH   6   7
ATOM      7  C   UNL     1       2.134   7.829  18.688  0.00  0.00    +0.000 A 
ATOM      8  C   UNL     1       1.658   9.037  18.154  0.00  0.00    +0.000 A 
ATOM      9  C   UNL     1       0.985   9.950  18.963  0.00  0.00    +0.000 A 
ATOM     10  C   UNL     1       0.789   9.652  20.315  0.00  0.00    +0.000 A 
ATOM     11  C   UNL     1       1.263   8.446  20.857  0.00  0.00    +0.000 A 
ATOM     12  C   UNL     1       1.938   7.530  20.040  0.00  0.00    +0.000 A 
BRANCH  10  13
ATOM     13  N   UNL     1       0.076  10.612  21.169  0.00  0.00    +0.000 N 
ATOM     14  O   UNL     1       0.394  10.668  22.365  0.00  0.00    +0.000 OA
ATOM     15  O   UNL     1      -0.799  11.309  20.639  0.00  0.00    +0.000 OA
ENDBRANCH  10  13
ENDBRANCH   6   7
ENDBRANCH   3   5
BRANCH   1  16
ATOM     16  C   UNL     1       4.870   4.358  18.970  0.00  0.00    +0.000 C 
BRANCH  16  17
ATOM     17  S   UNL     1       4.414   2.610  19.214  0.00  0.00    +0.000 S 
BRANCH  17  23
ATOM     18  C   UNL     1       1.326   3.550  18.663  0.00  0.00    +0.000 C 
ATOM     19  N   UNL     1       1.841   3.179  19.952  0.00  0.00    +0.000 N 
ATOM     20  N   UNL     1       1.044   3.196  21.035  0.00  0.00    +0.000 NA
ATOM     21  N   UNL     1       1.814   2.800  22.040  0.00  0.00    +0.000 NA
ATOM     22  N   UNL     1       3.093   2.530  21.606  0.00  0.00    +0.000 NA
ATOM     23  C   UNL     1       3.092   2.771  20.315  0.00  0.00    +0.000 A 
ENDBRANCH  17  23
ENDBRANCH  16  17
ENDBRANCH   1  16
TORSDOF 6
ENDMDL
MODEL 4
REMARK VINA RESULT:      -6.5      3.271      8.457
REMARK  Name = 
REMARK  7 active torsions:
REMARK  status: ('A' for Active; 'I' for Inactive)
REMARK    1  A    between atoms: C_1  and  N_2
REMARK    2  A    between atoms: C_6  and  S_7
REMARK    3  A    between atoms: S_7  and  C_8
REMARK    4  A    between atoms: C_8  and  C_9
REMARK    5  A    between atoms: N_11  and  N_12
REMARK    6  A    between atoms: C_13  and  C_14
REMARK    7  A    between atoms: C_17  and  N_18
REMARK                            x       y       z     vdW  Elec       q    Type
REMARK                         _______ _______ _______ _____ _____    ______ ____
ROOT
ATOM      1  C   UNL     1       1.322   8.087  20.575  0.00  0.00    +0.000 C 
ATOM      2  O   UNL     1       0.539   8.206  21.519  0.00  0.00    +0.000 OA
ATOM      3  N   UNL     1       2.088   6.941  20.463  0.00  0.00    +0.000 N 
ATOM      4  H   UNL     1       1.989   6.238  21.189  0.00  0.00    +0.000 HD
ENDROOT
BRANCH   3   5
ATOM      5  N   UNL     1       2.926   6.764  19.416  0.00  0.00    +0.000 NA
ATOM      6  C   UNL     1       2.988   5.586  18.888  0.00  0.00    +0.000 C 
BRANCH   6   7
ATOM      7  C   UNL     1       3.910   5.356  17.753  0.00  0.00    +0.000 A 
ATOM      8  C   UNL     1       4.475   6.457  17.090  0.00  0.00    +0.000 A 
ATOM      9  C   UNL     1       5.354   6.265  16.026  0.00  0.00    +0.000 A 
ATOM     10  C   UNL     1       5.667   4.963  15.624  0.00  0.00    +0.000 A 
ATOM     11  C   UNL     1       5.106   3.857  16.282  0.00  0.00    +0.000 A 
ATOM     12  C   UNL     1       4.224   4.053  17.352  0.00  0.00    +0.000 A 
BRANCH  10  13
ATOM     13  N   UNL     1       6.597   4.759  14.504  0.00  0.00    +0.000 N 
ATOM     14  O   UNL     1       6.291   3.918  13.646  0.00  0.00    +0.000 OA
ATOM     15  O   UNL     1       7.629   5.441  14.485  0.00  0.00    +0.000 OA
ENDBRANCH  10  13
ENDBRANCH   6   7
ENDBRANCH   3   5
BRANCH   1  16
ATOM     16  C   UNL     1       1.487   9.117  19.456  0.00  0.00    +0.000 C 
BRANCH  16  17
ATOM     17  S   UNL     1       0.011  10.172  19.291  0.00  0.00    +0.000 S 
BRANCH  17  23
ATOM     18  C   UNL     1      -0.315  13.294  18.363  0.00  0.00    +0.000 C 
ATOM     19  N   UNL     1       0.357  12.872  19.560  0.00  0.00    +0.000 N 
ATOM     20  N   UNL     1       0.900  13.779  20.392  0.00  0.00    +0.000 NA
ATOM     21  N   UNL     1       1.424  13.070  21.384  0.00  0.00    +0.000 NA
ATOM     22  N   UNL     1       1.218  11.722  21.191  0.00  0.00    +0.000 NA
ATOM     23  C   UNL     1       0.560  11.618  20.060  0.00  0.00    +0.000 A 
ENDBRANCH  17  23
ENDBRANCH  16  17
ENDBRANCH   1  16
TORSDOF 6
ENDMDL
MODEL 5
REMARK VINA RESULT:      -6.5      3.561      8.032
REMARK  Name = 
REMARK  7 active torsions:
REMARK  status: ('A' for Active; 'I' for Inactive)
REMARK    1  A    between atoms: C_1  and  N_2
REMARK    2  A    between atoms: C_6  and  S_7
REMARK    3  A    between atoms: S_7  and  C_8
REMARK    4  A    between atoms: C_8  and  C_9
REMARK    5  A    between atoms: N_11  and  N_12
REMARK    6  A    between atoms: C_13  and  C_14
REMARK    7  A    between atoms: C_17  and  N_18
REMARK                            x       y       z     vdW  Elec       q    Type
REMARK                         _______ _______ _______ _____ _____    ______ ____
ROOT
ATOM      1  C   UNL     1       1.058   8.469  20.717  0.00  0.00    +0.000 C 
ATOM      2  O   UNL     1       0.341   8.634  21.705  0.00  0.00    +0.000 OA
ATOM      3  N   UNL     1       1.840   7.331  20.623  0.00  0.00    +0.000 N 
ATOM      4  H   UNL     1       1.807   6.675  21.397  0.00  0.00    +0.000 HD
ENDROOT
BRANCH   3   5
ATOM      5  N   UNL     1       2.606   7.101  19.532  0.00  0.00    +0.000 NA
ATOM      6  C   UNL     1       2.915   5.875  19.261  0.00  0.00    +0.000 C 
BRANCH   6   7
ATOM      7  C   UNL     1       3.767   5.593  18.085  0.00  0.00    +0.000 A 
ATOM      8  C   UNL     1       4.297   6.663  17.345  0.00  0.00    +0.000 A 
ATOM      9  C   UNL     1       5.111   6.422  16.240  0.00  0.00    +0.000 A 
ATOM     10  C   UNL     1       5.395   5.103  15.875  0.00  0.00    +0.000 A 
ATOM     11  C   UNL     1       4.869   4.028  16.609  0.00  0.00    +0.000 A 
ATOM     12  C   UNL     1       4.052   4.274  17.721  0.00  0.00    +0.000 A 
BRANCH  10  13
ATOM     13  N   UNL     1       6.256   4.847  14.711  0.00  0.00    +0.000 N 
ATOM     14  O   UNL     1       5.805   4.132  13.806  0.00  0.00    +0.000 OA
ATOM     15  O   UNL     1       7.381   5.363  14.708  0.00  0.00    +0.000 OA
ENDBRANCH  10  13
ENDBRANCH   6   7
ENDBRANCH   3   5
BRANCH   1  16
ATOM     16  C   UNL     1       1.123   9.426  19.526  0.00  0.00    +0.000 C 
BRANCH  16  17
ATOM     17  S   UNL     1       0.147  10.936  19.826  0.00  0.00    +0.000 S 
BRANCH  17  23
ATOM     18  C   UNL     1      -2.809  12.336  19.688  0.00  0.00    +0.000 C 
ATOM     19  N   UNL     1      -2.317  11.389  18.727  0.00  0.00    +0.000 N 
ATOM     20  N   UNL     1      -3.078  11.024  17.679  0.00  0.00    +0.000 NA
ATOM     21  N   UNL     1      -2.337  10.161  16.996  0.00  0.00    +0.000 NA
ATOM     22  N   UNL     1      -1.112   9.975  17.598  0.00  0.00    +0.000 NA
ATOM     23  C   UNL     1      -1.118  10.739  18.666  0.00  0.00    +0.000 A 
ENDBRANCH  17  23
ENDBRANCH  16  17
ENDBRANCH   1  16
TORSDOF 6
ENDMDL
MODEL 6
REMARK VINA RESULT:      -6.5      2.474      4.413
REMARK  Name = 
REMARK  7 active torsions:
REMARK  status: ('A' for Active; 'I' for Inactive)
REMARK    1  A    between atoms: C_1  and  N_2
REMARK    2  A    between atoms: C_6  and  S_7
REMARK    3  A    between atoms: S_7  and  C_8
REMARK    4  A    between atoms: C_8  and  C_9
REMARK    5  A    between atoms: N_11  and  N_12
REMARK    6  A    between atoms: C_13  and  C_14
REMARK    7  A    between atoms: C_17  and  N_18
REMARK                            x       y       z     vdW  Elec       q    Type
REMARK                         _______ _______ _______ _____ _____    ______ ____
ROOT
ATOM      1  C   UNL     1       3.941   3.188  19.387  0.00  0.00    +0.000 C 
ATOM      2  O   UNL     1       4.262   2.044  19.711  0.00  0.00    +0.000 OA
ATOM      3  N   UNL     1       2.726   3.701  19.805  0.00  0.00    +0.000 N 
ATOM      4  H   UNL     1       2.126   3.095  20.355  0.00  0.00    +0.000 HD
ENDROOT
BRANCH   3   5
ATOM      5  N   UNL     1       2.364   4.969  19.501  0.00  0.00    +0.000 NA
ATOM      6  C   UNL     1       2.231   5.808  20.475  0.00  0.00    +0.000 C 
BRANCH   6   7
ATOM      7  C   UNL     1       1.818   7.197  20.175  0.00  0.00    +0.000 A 
ATOM      8  C   UNL     1       1.079   7.916  21.127  0.00  0.00    +0.000 A 
ATOM      9  C   UNL     1       0.687   9.229  20.871  0.00  0.00    +0.000 A 
ATOM     10  C   UNL     1       1.038   9.823  19.654  0.00  0.00    +0.000 A 
ATOM     11  C   UNL     1       1.777   9.109  18.698  0.00  0.00    +0.000 A 
ATOM     12  C   UNL     1       2.170   7.790  18.959  0.00  0.00    +0.000 A 
BRANCH  10  13
ATOM     13  N   UNL     1       0.629  11.208  19.384  0.00  0.00    +0.000 N 
ATOM     14  O   UNL     1      -0.351  11.651  19.999  0.00  0.00    +0.000 OA
ATOM     15  O   UNL     1       1.290  11.849  18.557  0.00  0.00    +0.000 OA
ENDBRANCH  10  13
ENDBRANCH   6   7
ENDBRANCH   3   5
BRANCH   1  16
ATOM     16  C   UNL     1       4.825   4.135  18.573  0.00  0.00    +0.000 C 
BRANCH  16  17
ATOM     17  S   UNL     1       4.625   3.867  16.782  0.00  0.00    +0.000 S 
BRANCH  17  23
ATOM     18  C   UNL     1       6.023   3.784  13.823  0.00  0.00    +0.000 C 
ATOM     19  N   UNL     1       6.461   4.625  14.902  0.00  0.00    +0.000 N 
ATOM     20  N   UNL     1       7.505   5.457  14.736  0.00  0.00    +0.000 NA
ATOM     21  N   UNL     1       7.638   6.083  15.898  0.00  0.00    +0.000 NA
ATOM     22  N   UNL     1       6.689   5.659  16.801  0.00  0.00    +0.000 NA
ATOM     23  C   UNL     1       5.971   4.758  16.169  0.00  0.00    +0.000 A 
ENDBRANCH  17  23
ENDBRANCH  16  17
ENDBRANCH   1  16
TORSDOF 6
ENDMDL
MODEL 7
REMARK VINA RESULT:      -6.5      1.491      2.153
REMARK  Name = 
REMARK  7 active torsions:
REMARK  status: ('A' for Active; 'I' for Inactive)
REMARK    1  A    between atoms: C_1  and  N_2
REMARK    2  A    between atoms: C_6  and  S_7
REMARK    3  A    between atoms: S_7  and  C_8
REMARK    4  A    between atoms: C_8  and  C_9
REMARK    5  A    between atoms: N_11  and  N_12
REMARK    6  A    between atoms: C_13  and  C_14
REMARK    7  A    between atoms: C_17  and  N_18
REMARK                            x       y       z     vdW  Elec       q    Type
REMARK                         _______ _______ _______ _____ _____    ______ ____
ROOT
ATOM      1  C   UNL     1       4.338   5.716  17.216  0.00  0.00    +0.000 C 
ATOM      2  O   UNL     1       4.897   5.258  16.219  0.00  0.00    +0.000 OA
ATOM      3  N   UNL     1       3.872   7.018  17.200  0.00  0.00    +0.000 N 
ATOM      4  H   UNL     1       4.031   7.562  16.358  0.00  0.00    +0.000 HD
ENDROOT
BRANCH   3   5
ATOM      5  N   UNL     1       3.217   7.536  18.265  0.00  0.00    +0.000 NA
ATOM      6  C   UNL     1       2.190   8.286  18.034  0.00  0.00    +0.000 C 
BRANCH   6   7
ATOM      7  C   UNL     1       1.465   8.882  19.177  0.00  0.00    +0.000 A 
ATOM      8  C   UNL     1       0.677  10.026  18.973  0.00  0.00    +0.000 A 
ATOM      9  C   UNL     1      -0.024  10.599  20.033  0.00  0.00    +0.000 A 
ATOM     10  C   UNL     1       0.067  10.022  21.304  0.00  0.00    +0.000 A 
ATOM     11  C   UNL     1       0.853   8.879  21.515  0.00  0.00    +0.000 A 
ATOM     12  C   UNL     1       1.555   8.304  20.448  0.00  0.00    +0.000 A 
BRANCH  10  13
ATOM     13  N   UNL     1      -0.674  10.623  22.422  0.00  0.00    +0.000 N 
ATOM     14  O   UNL     1      -1.489  11.518  22.159  0.00  0.00    +0.000 OA
ATOM     15  O   UNL     1      -0.438  10.197  23.560  0.00  0.00    +0.000 OA
ENDBRANCH  10  13
ENDBRANCH   6   7
ENDBRANCH   3   5
BRANCH   1  16
ATOM     16  C   UNL     1       4.068   4.922  18.496  0.00  0.00    +0.000 C 
BRANCH  16  17
ATOM     17  S   UNL     1       2.614   3.838  18.318  0.00  0.00    +0.000 S 
BRANCH  17  23
ATOM     18  C   UNL     1       4.519   2.038  20.279  0.00  0.00    +0.000 C 
ATOM     19  N   UNL     1       3.252   2.592  20.668  0.00  0.00    +0.000 N 
ATOM     20  N   UNL     1       2.773   2.393  21.910  0.00  0.00    +0.000 NA
ATOM     21  N   UNL     1       1.612   3.032  21.941  0.00  0.00    +0.000 NA
ATOM     22  N   UNL     1       1.347   3.637  20.732  0.00  0.00    +0.000 NA
ATOM     23  C   UNL     1       2.369   3.353  19.958  0.00  0.00    +0.000 A 
ENDBRANCH  17  23
ENDBRANCH  16  17
ENDBRANCH   1  16
TORSDOF 6
ENDMDL
MODEL 8
REMARK VINA RESULT:      -6.4      3.665      7.012
REMARK  Name = 
REMARK  7 active torsions:
REMARK  status: ('A' for Active; 'I' for Inactive)
REMARK    1  A    between atoms: C_1  and  N_2
REMARK    2  A    between atoms: C_6  and  S_7
REMARK    3  A    between atoms: S_7  and  C_8
REMARK    4  A    between atoms: C_8  and  C_9
REMARK    5  A    between atoms: N_11  and  N_12
REMARK    6  A    between atoms: C_13  and  C_14
REMARK    7  A    between atoms: C_17  and  N_18
REMARK                            x       y       z     vdW  Elec       q    Type
REMARK                         _______ _______ _______ _____ _____    ______ ____
ROOT
ATOM      1  C   UNL     1       2.995   2.564  21.021  0.00  0.00    +0.000 C 
ATOM      2  O   UNL     1       2.622   2.366  22.178  0.00  0.00    +0.000 OA
ATOM      3  N   UNL     1       4.348   2.639  20.743  0.00  0.00    +0.000 N 
ATOM      4  H   UNL     1       4.992   2.548  21.522  0.00  0.00    +0.000 HD
ENDROOT
BRANCH   3   5
ATOM      5  N   UNL     1       4.789   2.814  19.476  0.00  0.00    +0.000 NA
ATOM      6  C   UNL     1       5.288   3.965  19.166  0.00  0.00    +0.000 C 
BRANCH   6   7
ATOM      7  C   UNL     1       5.762   4.193  17.782  0.00  0.00    +0.000 A 
ATOM      8  C   UNL     1       6.992   4.834  17.572  0.00  0.00    +0.000 A 
ATOM      9  C   UNL     1       7.464   5.050  16.278  0.00  0.00    +0.000 A 
ATOM     10  C   UNL     1       6.697   4.621  15.190  0.00  0.00    +0.000 A 
ATOM     11  C   UNL     1       5.465   3.979  15.393  0.00  0.00    +0.000 A 
ATOM     12  C   UNL     1       4.995   3.762  16.695  0.00  0.00    +0.000 A 
BRANCH  10  13
ATOM     13  N   UNL     1       7.194   4.845  13.826  0.00  0.00    +0.000 N 
ATOM     14  O   UNL     1       6.687   4.181  12.911  0.00  0.00    +0.000 OA
ATOM     15  O   UNL     1       8.091   5.684  13.674  0.00  0.00    +0.000 OA
ENDBRANCH  10  13
ENDBRANCH   6   7
ENDBRANCH   3   5
BRANCH   1  16
ATOM     16  C   UNL     1       2.055   2.691  19.821  0.00  0.00    +0.000 C 
BRANCH  16  17
ATOM     17  S   UNL     1       0.904   4.090  20.015  0.00  0.00    +0.000 S 
BRANCH  17  23
ATOM     18  C   UNL     1       1.707   7.098  21.028  0.00  0.00    +0.000 C 
ATOM     19  N   UNL     1       2.040   6.563  19.736  0.00  0.00    +0.000 N 
ATOM     20  N   UNL     1       2.732   7.302  18.850  0.00  0.00    +0.000 NA
ATOM     21  N   UNL     1       2.875   6.524  17.786  0.00  0.00    +0.000 NA
ATOM     22  N   UNL     1       2.283   5.296  17.986  0.00  0.00    +0.000 NA
ATOM     23  C   UNL     1       1.771   5.339  19.195  0.00  0.00    +0.000 A 
ENDBRANCH  17  23
ENDBRANCH  16  17
ENDBRANCH   1  16
TORSDOF 6
ENDMDL
MODEL 9
REMARK VINA RESULT:      -6.4      1.089      1.194
REMARK  Name = 
REMARK  7 active torsions:
REMARK  status: ('A' for Active; 'I' for Inactive)
REMARK    1  A    between atoms: C_1  and  N_2
REMARK    2  A    between atoms: C_6  and  S_7
REMARK    3  A    between atoms: S_7  and  C_8
REMARK    4  A    between atoms: C_8  and  C_9
REMARK    5  A    between atoms: N_11  and  N_12
REMARK    6  A    between atoms: C_13  and  C_14
REMARK    7  A    between atoms: C_17  and  N_18
REMARK                            x       y       z     vdW  Elec       q    Type
REMARK                         _______ _______ _______ _____ _____    ______ ____
ROOT
ATOM      1  C   UNL     1       5.744   5.076  17.428  0.00  0.00    +0.000 C 
ATOM      2  O   UNL     1       6.359   4.254  16.747  0.00  0.00    +0.000 OA
ATOM      3  N   UNL     1       5.211   6.201  16.825  0.00  0.00    +0.000 N 
ATOM      4  H   UNL     1       5.368   6.318  15.829  0.00  0.00    +0.000 HD
ENDROOT
BRANCH   3   5
ATOM      5  N   UNL     1       4.495   7.100  17.539  0.00  0.00    +0.000 NA
ATOM      6  C   UNL     1       3.237   6.861  17.720  0.00  0.00    +0.000 C 
BRANCH   6   7
ATOM      7  C   UNL     1       2.424   7.835  18.480  0.00  0.00    +0.000 A 
ATOM      8  C   UNL     1       2.063   7.547  19.806  0.00  0.00    +0.000 A 
ATOM      9  C   UNL     1       1.306   8.454  20.545  0.00  0.00    +0.000 A 
ATOM     10  C   UNL     1       0.909   9.656  19.952  0.00  0.00    +0.000 A 
ATOM     11  C   UNL     1       1.266   9.952  18.627  0.00  0.00    +0.000 A 
ATOM     12  C   UNL     1       2.028   9.038  17.887  0.00  0.00    +0.000 A 
BRANCH  10  13
ATOM     13  N   UNL     1       0.114  10.616  20.731  0.00  0.00    +0.000 N 
ATOM     14  O   UNL     1       0.559  10.977  21.829  0.00  0.00    +0.000 OA
ATOM     15  O   UNL     1      -0.954  11.005  20.241  0.00  0.00    +0.000 OA
ENDBRANCH  10  13
ENDBRANCH   6   7
ENDBRANCH   3   5
BRANCH   1  16
ATOM     16  C   UNL     1       5.473   4.926  18.927  0.00  0.00    +0.000 C 
BRANCH  16  17
ATOM     17  S   UNL     1       4.844   3.264  19.331  0.00  0.00    +0.000 S 
BRANCH  17  23
ATOM     18  C   UNL     1       2.208   3.996  21.130  0.00  0.00    +0.000 C 
ATOM     19  N   UNL     1       2.176   3.732  19.719  0.00  0.00    +0.000 N 
ATOM     20  N   UNL     1       1.014   3.782  19.042  0.00  0.00    +0.000 NA
ATOM     21  N   UNL     1       1.332   3.502  17.785  0.00  0.00    +0.000 NA
ATOM     22  N   UNL     1       2.685   3.276  17.655  0.00  0.00    +0.000 NA
ATOM     23  C   UNL     1       3.190   3.421  18.859  0.00  0.00    +0.000 A 
ENDBRANCH  17  23
ENDBRANCH  16  17
ENDBRANCH   1  16
TORSDOF 6
ENDMDL
