MODEL 1
REMARK VINA RESULT:      -7.9      0.000      0.000
REMARK  Name = 
REMARK  2 active torsions:
REMARK  status: ('A' for Active; 'I' for Inactive)
REMARK    1  A    between atoms: N_9  and  C_10
REMARK    2  A    between atoms: C_10  and  C_11
REMARK                            x       y       z     vdW  Elec       q    Type
REMARK                         _______ _______ _______ _____ _____    ______ ____
ROOT
ATOM      1  N   UNL     1       1.428   2.712  22.324  0.00  0.00    +0.000 N 
ATOM      2  C   UNL     1       2.113   3.088  21.216  0.00  0.00    +0.000 C 
ATOM      3  N   UNL     1       1.977   4.294  20.786  0.00  0.00    +0.000 NA
ATOM      4  C   UNL     1       2.753   4.649  19.602  0.00  0.00    +0.000 C 
ATOM      5  C   UNL     1       2.937   6.178  19.657  0.00  0.00    +0.000 C 
ATOM      6  C   UNL     1       2.757   6.672  18.231  0.00  0.00    +0.000 C 
ATOM      7  C   UNL     1       1.607   5.822  17.732  0.00  0.00    +0.000 C 
ATOM      8  C   UNL     1       1.857   4.443  18.339  0.00  0.00    +0.000 C 
ATOM      9  N   UNL     1       3.955   3.837  19.420  0.00  0.00    +0.000 N 
ATOM     10  C   UNL     1       3.768   2.540  19.792  0.00  0.00    +0.000 C 
ATOM     11  N   UNL     1       4.559   1.626  19.178  0.00  0.00    +0.000 N 
ATOM     12  N   UNL     1       2.863   2.131  20.614  0.00  0.00    +0.000 NA
ATOM     13  H   UNL     1       0.623   3.294  22.501  0.00  0.00    +0.000 HD
ATOM     14  H   UNL     1       1.263   1.717  22.357  0.00  0.00    +0.000 HD
ATOM     15  H   UNL     1       4.605   1.773  18.175  0.00  0.00    +0.000 HD
ATOM     16  H   UNL     1       4.222   0.691  19.383  0.00  0.00    +0.000 HD
ENDROOT
BRANCH   9  17
ATOM     17  C   UNL     1       5.289   4.418  19.253  0.00  0.00    +0.000 C 
BRANCH  17  18
ATOM     18  C   UNL     1       5.764   4.409  17.809  0.00  0.00    +0.000 A 
ATOM     19  C   UNL     1       7.104   4.684  17.497  0.00  0.00    +0.000 A 
ATOM     20  C   UNL     1       7.523   4.800  16.171  0.00  0.00    +0.000 A 
ATOM     21  C   UNL     1       6.608   4.618  15.139  0.00  0.00    +0.000 A 
ATOM     22 CL   UNL     1       7.102   4.841  13.507  0.00  0.00    +0.000 Cl
ATOM     23  C   UNL     1       5.292   4.266  15.423  0.00  0.00    +0.000 A 
ATOM     24  C   UNL     1       4.876   4.147  16.753  0.00  0.00    +0.000 A 
ENDBRANCH  17  18
ENDBRANCH   9  17
TORSDOF 2
ENDMDL
MODEL 2
REMARK VINA RESULT:      -7.8      0.255      1.106
REMARK  Name = 
REMARK  2 active torsions:
REMARK  status: ('A' for Active; 'I' for Inactive)
REMARK    1  A    between atoms: N_9  and  C_10
REMARK    2  A    between atoms: C_10  and  C_11
REMARK                            x       y       z     vdW  Elec       q    Type
REMARK                         _______ _______ _______ _____ _____    ______ ____
ROOT
ATOM      1  N   UNL     1       1.416   2.612  22.151  0.00  0.00    +0.000 N 
ATOM      2  C   UNL     1       2.097   3.041  21.060  0.00  0.00    +0.000 C 
ATOM      3  N   UNL     1       2.047   4.291  20.753  0.00  0.00    +0.000 NA
ATOM      4  C   UNL     1       2.814   4.698  19.580  0.00  0.00    +0.000 C 
ATOM      5  C   UNL     1       3.124   6.196  19.775  0.00  0.00    +0.000 C 
ATOM      6  C   UNL     1       2.942   6.840  18.411  0.00  0.00    +0.000 C 
ATOM      7  C   UNL     1       1.714   6.136  17.876  0.00  0.00    +0.000 C 
ATOM      8  C   UNL     1       1.868   4.689  18.337  0.00  0.00    +0.000 C 
ATOM      9  N   UNL     1       3.941   3.817  19.277  0.00  0.00    +0.000 N 
ATOM     10  C   UNL     1       3.660   2.509  19.530  0.00  0.00    +0.000 C 
ATOM     11  N   UNL     1       4.357   1.601  18.803  0.00  0.00    +0.000 N 
ATOM     12  N   UNL     1       2.749   2.093  20.342  0.00  0.00    +0.000 NA
ATOM     13  H   UNL     1       0.667   3.235  22.413  0.00  0.00    +0.000 HD
ATOM     14  H   UNL     1       1.172   1.635  22.095  0.00  0.00    +0.000 HD
ATOM     15  H   UNL     1       4.385   1.842  17.817  0.00  0.00    +0.000 HD
ATOM     16  H   UNL     1       3.950   0.679  18.929  0.00  0.00    +0.000 HD
ENDROOT
BRANCH   9  17
ATOM     17  C   UNL     1       5.312   4.307  19.118  0.00  0.00    +0.000 C 
BRANCH  17  18
ATOM     18  C   UNL     1       5.714   4.482  17.663  0.00  0.00    +0.000 A 
ATOM     19  C   UNL     1       4.756   4.387  16.641  0.00  0.00    +0.000 A 
ATOM     20  C   UNL     1       5.134   4.423  15.298  0.00  0.00    +0.000 A 
ATOM     21  C   UNL     1       6.475   4.579  14.961  0.00  0.00    +0.000 A 
ATOM     22 CL   UNL     1       6.953   4.541  13.309  0.00  0.00    +0.000 Cl
ATOM     23  C   UNL     1       7.432   4.755  15.956  0.00  0.00    +0.000 A 
ATOM     24  C   UNL     1       7.050   4.723  17.301  0.00  0.00    +0.000 A 
ENDBRANCH  17  18
ENDBRANCH   9  17
TORSDOF 2
ENDMDL
MODEL 3
REMARK VINA RESULT:      -7.3      3.632      6.152
REMARK  Name = 
REMARK  2 active torsions:
REMARK  status: ('A' for Active; 'I' for Inactive)
REMARK    1  A    between atoms: N_9  and  C_10
REMARK    2  A    between atoms: C_10  and  C_11
REMARK                            x       y       z     vdW  Elec       q    Type
REMARK                         _______ _______ _______ _____ _____    ______ ____
ROOT
ATOM      1  N   UNL     1       7.578   5.156  13.279  0.00  0.00    +0.000 N 
ATOM      2  C   UNL     1       7.022   5.084  14.513  0.00  0.00    +0.000 C 
ATOM      3  N   UNL     1       7.582   5.724  15.481  0.00  0.00    +0.000 NA
ATOM      4  C   UNL     1       6.928   5.626  16.782  0.00  0.00    +0.000 C 
ATOM      5  C   UNL     1       7.346   6.887  17.563  0.00  0.00    +0.000 C 
ATOM      6  C   UNL     1       7.612   6.428  18.987  0.00  0.00    +0.000 C 
ATOM      7  C   UNL     1       8.316   5.104  18.778  0.00  0.00    +0.000 C 
ATOM      8  C   UNL     1       7.596   4.469  17.591  0.00  0.00    +0.000 C 
ATOM      9  N   UNL     1       5.497   5.333  16.703  0.00  0.00    +0.000 N 
ATOM     10  C   UNL     1       5.198   4.479  15.685  0.00  0.00    +0.000 C 
ATOM     11  N   UNL     1       4.080   3.728  15.849  0.00  0.00    +0.000 N 
ATOM     12  N   UNL     1       5.927   4.293  14.638  0.00  0.00    +0.000 NA
ATOM     13  H   UNL     1       8.554   5.412  13.306  0.00  0.00    +0.000 HD
ATOM     14  H   UNL     1       7.353   4.357  12.706  0.00  0.00    +0.000 HD
ATOM     15  H   UNL     1       4.032   3.314  16.774  0.00  0.00    +0.000 HD
ATOM     16  H   UNL     1       4.047   3.007  15.135  0.00  0.00    +0.000 HD
ENDROOT
BRANCH   9  17
ATOM     17  C   UNL     1       4.480   6.156  17.359  0.00  0.00    +0.000 C 
BRANCH  17  18
ATOM     18  C   UNL     1       3.705   5.403  18.429  0.00  0.00    +0.000 A 
ATOM     19  C   UNL     1       4.368   4.540  19.316  0.00  0.00    +0.000 A 
ATOM     20  C   UNL     1       3.653   3.752  20.218  0.00  0.00    +0.000 A 
ATOM     21  C   UNL     1       2.265   3.836  20.260  0.00  0.00    +0.000 A 
ATOM     22 CL   UNL     1       1.377   2.806  21.313  0.00  0.00    +0.000 Cl
ATOM     23  C   UNL     1       1.593   4.742  19.446  0.00  0.00    +0.000 A 
ATOM     24  C   UNL     1       2.312   5.533  18.545  0.00  0.00    +0.000 A 
ENDBRANCH  17  18
ENDBRANCH   9  17
TORSDOF 2
ENDMDL
MODEL 4
REMARK VINA RESULT:      -7.2      3.680      6.254
REMARK  Name = 
REMARK  2 active torsions:
REMARK  status: ('A' for Active; 'I' for Inactive)
REMARK    1  A    between atoms: N_9  and  C_10
REMARK    2  A    between atoms: C_10  and  C_11
REMARK                            x       y       z     vdW  Elec       q    Type
REMARK                         _______ _______ _______ _____ _____    ______ ____
ROOT
ATOM      1  N   UNL     1       7.749   5.309  13.234  0.00  0.00    +0.000 N 
ATOM      2  C   UNL     1       7.144   5.144  14.436  0.00  0.00    +0.000 C 
ATOM      3  N   UNL     1       7.595   5.799  15.449  0.00  0.00    +0.000 NA
ATOM      4  C   UNL     1       6.892   5.597  16.712  0.00  0.00    +0.000 C 
ATOM      5  C   UNL     1       7.152   6.864  17.550  0.00  0.00    +0.000 C 
ATOM      6  C   UNL     1       7.393   6.383  18.971  0.00  0.00    +0.000 C 
ATOM      7  C   UNL     1       8.228   5.138  18.759  0.00  0.00    +0.000 C 
ATOM      8  C   UNL     1       7.629   4.480  17.519  0.00  0.00    +0.000 C 
ATOM      9  N   UNL     1       5.502   5.174  16.553  0.00  0.00    +0.000 N 
ATOM     10  C   UNL     1       5.332   4.331  15.496  0.00  0.00    +0.000 C 
ATOM     11  N   UNL     1       4.285   3.475  15.582  0.00  0.00    +0.000 N 
ATOM     12  N   UNL     1       6.125   4.251  14.482  0.00  0.00    +0.000 NA
ATOM     13  H   UNL     1       8.694   5.654  13.317  0.00  0.00    +0.000 HD
ATOM     14  H   UNL     1       7.627   4.513  12.627  0.00  0.00    +0.000 HD
ATOM     15  H   UNL     1       4.232   3.026  16.490  0.00  0.00    +0.000 HD
ATOM     16  H   UNL     1       4.353   2.779  14.846  0.00  0.00    +0.000 HD
ENDROOT
BRANCH   9  17
ATOM     17  C   UNL     1       4.381   5.877  17.181  0.00  0.00    +0.000 C 
BRANCH  17  18
ATOM     18  C   UNL     1       3.605   5.005  18.156  0.00  0.00    +0.000 A 
ATOM     19  C   UNL     1       2.204   4.940  18.097  0.00  0.00    +0.000 A 
ATOM     20  C   UNL     1       1.477   4.243  19.062  0.00  0.00    +0.000 A 
ATOM     21  C   UNL     1       2.146   3.580  20.086  0.00  0.00    +0.000 A 
ATOM     22 CL   UNL     1       1.250   2.789  21.323  0.00  0.00    +0.000 Cl
ATOM     23  C   UNL     1       3.537   3.564  20.119  0.00  0.00    +0.000 A 
ATOM     24  C   UNL     1       4.264   4.261  19.149  0.00  0.00    +0.000 A 
ENDBRANCH  17  18
ENDBRANCH   9  17
TORSDOF 2
ENDMDL
MODEL 5
REMARK VINA RESULT:      -7.2      2.355      2.621
REMARK  Name = 
REMARK  2 active torsions:
REMARK  status: ('A' for Active; 'I' for Inactive)
REMARK    1  A    between atoms: N_9  and  C_10
REMARK    2  A    between atoms: C_10  and  C_11
REMARK                            x       y       z     vdW  Elec       q    Type
REMARK                         _______ _______ _______ _____ _____    ______ ____
ROOT
ATOM      1  N   UNL     1       0.560   1.697  18.604  0.00  0.00    +0.000 N 
ATOM      2  C   UNL     1       1.550   2.615  18.481  0.00  0.00    +0.000 C 
ATOM      3  N   UNL     1       1.436   3.734  19.109  0.00  0.00    +0.000 NA
ATOM      4  C   UNL     1       2.541   4.675  18.956  0.00  0.00    +0.000 C 
ATOM      5  C   UNL     1       2.507   5.576  20.206  0.00  0.00    +0.000 C 
ATOM      6  C   UNL     1       2.799   6.984  19.714  0.00  0.00    +0.000 C 
ATOM      7  C   UNL     1       2.021   7.047  18.417  0.00  0.00    +0.000 C 
ATOM      8  C   UNL     1       2.197   5.663  17.796  0.00  0.00    +0.000 C 
ATOM      9  N   UNL     1       3.815   4.040  18.624  0.00  0.00    +0.000 N 
ATOM     10  C   UNL     1       3.663   2.973  17.791  0.00  0.00    +0.000 C 
ATOM     11  N   UNL     1       4.727   2.677  17.005  0.00  0.00    +0.000 N 
ATOM     12  N   UNL     1       2.577   2.291  17.656  0.00  0.00    +0.000 NA
ATOM     13  H   UNL     1      -0.318   2.106  18.887  0.00  0.00    +0.000 HD
ATOM     14  H   UNL     1       0.514   1.069  17.816  0.00  0.00    +0.000 HD
ATOM     15  H   UNL     1       5.116   3.503  16.563  0.00  0.00    +0.000 HD
ATOM     16  H   UNL     1       4.453   1.996  16.303  0.00  0.00    +0.000 HD
ENDROOT
BRANCH   9  17
ATOM     17  C   UNL     1       5.038   4.259  19.399  0.00  0.00    +0.000 C 
BRANCH  17  18
ATOM     18  C   UNL     1       5.939   5.326  18.798  0.00  0.00    +0.000 A 
ATOM     19  C   UNL     1       7.209   5.575  19.340  0.00  0.00    +0.000 A 
ATOM     20  C   UNL     1       7.992   6.633  18.875  0.00  0.00    +0.000 A 
ATOM     21  C   UNL     1       7.521   7.440  17.845  0.00  0.00    +0.000 A 
ATOM     22 CL   UNL     1       8.448   8.794  17.327  0.00  0.00    +0.000 Cl
ATOM     23  C   UNL     1       6.300   7.163  17.239  0.00  0.00    +0.000 A 
ATOM     24  C   UNL     1       5.519   6.100  17.704  0.00  0.00    +0.000 A 
ENDBRANCH  17  18
ENDBRANCH   9  17
TORSDOF 2
ENDMDL
MODEL 6
REMARK VINA RESULT:      -7.1      3.607      5.855
REMARK  Name = 
REMARK  2 active torsions:
REMARK  status: ('A' for Active; 'I' for Inactive)
REMARK    1  A    between atoms: N_9  and  C_10
REMARK    2  A    between atoms: C_10  and  C_11
REMARK                            x       y       z     vdW  Elec       q    Type
REMARK                         _______ _______ _______ _____ _____    ______ ____
ROOT
ATOM      1  N   UNL     1       8.011   5.193  19.414  0.00  0.00    +0.000 N 
ATOM      2  C   UNL     1       7.099   5.284  18.415  0.00  0.00    +0.000 C 
ATOM      3  N   UNL     1       7.248   4.543  17.373  0.00  0.00    +0.000 NA
ATOM      4  C   UNL     1       6.226   4.669  16.339  0.00  0.00    +0.000 C 
ATOM      5  C   UNL     1       6.236   3.336  15.566  0.00  0.00    +0.000 C 
ATOM      6  C   UNL     1       6.079   3.702  14.100  0.00  0.00    +0.000 C 
ATOM      7  C   UNL     1       6.947   4.936  13.974  0.00  0.00    +0.000 C 
ATOM      8  C   UNL     1       6.717   5.702  15.275  0.00  0.00    +0.000 C 
ATOM      9  N   UNL     1       4.936   5.141  16.840  0.00  0.00    +0.000 N 
ATOM     10  C   UNL     1       5.070   6.065  17.832  0.00  0.00    +0.000 C 
ATOM     11  N   UNL     1       4.044   6.941  17.970  0.00  0.00    +0.000 N 
ATOM     12  N   UNL     1       6.111   6.200  18.579  0.00  0.00    +0.000 NA
ATOM     13  H   UNL     1       8.894   4.817  19.101  0.00  0.00    +0.000 HD
ATOM     14  H   UNL     1       8.067   6.036  19.965  0.00  0.00    +0.000 HD
ATOM     15  H   UNL     1       3.745   7.322  17.078  0.00  0.00    +0.000 HD
ATOM     16  H   UNL     1       4.317   7.689  18.600  0.00  0.00    +0.000 HD
ENDROOT
BRANCH   9  17
ATOM     17  C   UNL     1       3.681   4.424  16.603  0.00  0.00    +0.000 C 
BRANCH  17  18
ATOM     18  C   UNL     1       3.089   3.827  17.870  0.00  0.00    +0.000 A 
ATOM     19  C   UNL     1       1.775   4.133  18.256  0.00  0.00    +0.000 A 
ATOM     20  C   UNL     1       1.265   3.691  19.478  0.00  0.00    +0.000 A 
ATOM     21  C   UNL     1       2.058   2.916  20.317  0.00  0.00    +0.000 A 
ATOM     22 CL   UNL     1       1.462   2.439  21.859  0.00  0.00    +0.000 Cl
ATOM     23  C   UNL     1       3.336   2.534  19.919  0.00  0.00    +0.000 A 
ATOM     24  C   UNL     1       3.843   2.975  18.693  0.00  0.00    +0.000 A 
ENDBRANCH  17  18
ENDBRANCH   9  17
TORSDOF 2
ENDMDL
MODEL 7
REMARK VINA RESULT:      -6.8      3.617      5.775
REMARK  Name = 
REMARK  2 active torsions:
REMARK  status: ('A' for Active; 'I' for Inactive)
REMARK    1  A    between atoms: N_9  and  C_10
REMARK    2  A    between atoms: C_10  and  C_11
REMARK                            x       y       z     vdW  Elec       q    Type
REMARK                         _______ _______ _______ _____ _____    ______ ____
ROOT
ATOM      1  N   UNL     1       8.561   5.110  19.794  0.00  0.00    +0.000 N 
ATOM      2  C   UNL     1       7.805   5.486  18.734  0.00  0.00    +0.000 C 
ATOM      3  N   UNL     1       7.179   4.578  18.068  0.00  0.00    +0.000 NA
ATOM      4  C   UNL     1       6.366   5.044  16.949  0.00  0.00    +0.000 C 
ATOM      5  C   UNL     1       5.282   3.968  16.736  0.00  0.00    +0.000 C 
ATOM      6  C   UNL     1       5.142   3.809  15.231  0.00  0.00    +0.000 C 
ATOM      7  C   UNL     1       6.578   3.887  14.758  0.00  0.00    +0.000 C 
ATOM      8  C   UNL     1       7.217   4.955  15.643  0.00  0.00    +0.000 C 
ATOM      9  N   UNL     1       5.915   6.429  17.083  0.00  0.00    +0.000 N 
ATOM     10  C   UNL     1       6.853   7.226  17.667  0.00  0.00    +0.000 C 
ATOM     11  N   UNL     1       6.796   8.542  17.347  0.00  0.00    +0.000 N 
ATOM     12  N   UNL     1       7.807   6.808  18.427  0.00  0.00    +0.000 NA
ATOM     13  H   UNL     1       8.837   4.141  19.751  0.00  0.00    +0.000 HD
ATOM     14  H   UNL     1       9.300   5.766  19.994  0.00  0.00    +0.000 HD
ATOM     15  H   UNL     1       6.684   8.687  16.349  0.00  0.00    +0.000 HD
ATOM     16  H   UNL     1       7.633   9.010  17.680  0.00  0.00    +0.000 HD
ENDROOT
BRANCH   9  17
ATOM     17  C   UNL     1       4.508   6.819  16.984  0.00  0.00    +0.000 C 
BRANCH  17  18
ATOM     18  C   UNL     1       3.614   6.074  17.963  0.00  0.00    +0.000 A 
ATOM     19  C   UNL     1       3.964   5.981  19.319  0.00  0.00    +0.000 A 
ATOM     20  C   UNL     1       3.218   5.197  20.200  0.00  0.00    +0.000 A 
ATOM     21  C   UNL     1       2.096   4.516  19.738  0.00  0.00    +0.000 A 
ATOM     22 CL   UNL     1       1.223   3.484  20.802  0.00  0.00    +0.000 Cl
ATOM     23  C   UNL     1       1.685   4.657  18.416  0.00  0.00    +0.000 A 
ATOM     24  C   UNL     1       2.433   5.446  17.537  0.00  0.00    +0.000 A 
ENDBRANCH  17  18
ENDBRANCH   9  17
TORSDOF 2
ENDMDL
MODEL 8
REMARK VINA RESULT:      -6.8      3.649      5.873
REMARK  Name = 
REMARK  2 active torsions:
REMARK  status: ('A' for Active; 'I' for Inactive)
REMARK    1  A    between atoms: N_9  and  C_10
REMARK    2  A    between atoms: C_10  and  C_11
REMARK                            x       y       z     vdW  Elec       q    Type
REMARK                         _______ _______ _______ _____ _____    ______ ____
ROOT
ATOM      1  N   UNL     1       8.255   5.510  19.278  0.00  0.00    +0.000 N 
ATOM      2  C   UNL     1       7.315   5.538  18.302  0.00  0.00    +0.000 C 
ATOM      3  N   UNL     1       7.414   4.703  17.326  0.00  0.00    +0.000 NA
ATOM      4  C   UNL     1       6.364   4.765  16.314  0.00  0.00    +0.000 C 
ATOM      5  C   UNL     1       6.317   3.369  15.664  0.00  0.00    +0.000 C 
ATOM      6  C   UNL     1       6.123   3.608  14.176  0.00  0.00    +0.000 C 
ATOM      7  C   UNL     1       7.018   4.801  13.916  0.00  0.00    +0.000 C 
ATOM      8  C   UNL     1       6.848   5.685  15.148  0.00  0.00    +0.000 C 
ATOM      9  N   UNL     1       5.102   5.315  16.808  0.00  0.00    +0.000 N 
ATOM     10  C   UNL     1       5.289   6.320  17.709  0.00  0.00    +0.000 C 
ATOM     11  N   UNL     1       4.291   7.233  17.796  0.00  0.00    +0.000 N 
ATOM     12  N   UNL     1       6.357   6.491  18.411  0.00  0.00    +0.000 NA
ATOM     13  H   UNL     1       9.118   5.083  18.976  0.00  0.00    +0.000 HD
ATOM     14  H   UNL     1       8.349   6.396  19.751  0.00  0.00    +0.000 HD
ATOM     15  H   UNL     1       3.974   7.541  16.883  0.00  0.00    +0.000 HD
ATOM     16  H   UNL     1       4.602   8.025  18.349  0.00  0.00    +0.000 HD
ENDROOT
BRANCH   9  17
ATOM     17  C   UNL     1       3.823   4.616  16.671  0.00  0.00    +0.000 C 
BRANCH  17  18
ATOM     18  C   UNL     1       3.249   4.160  18.003  0.00  0.00    +0.000 A 
ATOM     19  C   UNL     1       3.978   3.297  18.836  0.00  0.00    +0.000 A 
ATOM     20  C   UNL     1       3.412   2.776  20.000  0.00  0.00    +0.000 A 
ATOM     21  C   UNL     1       2.116   3.132  20.358  0.00  0.00    +0.000 A 
ATOM     22 CL   UNL     1       1.386   2.428  21.747  0.00  0.00    +0.000 Cl
ATOM     23  C   UNL     1       1.403   4.048  19.589  0.00  0.00    +0.000 A 
ATOM     24  C   UNL     1       1.975   4.572  18.425  0.00  0.00    +0.000 A 
ENDBRANCH  17  18
ENDBRANCH   9  17
TORSDOF 2
ENDMDL
MODEL 9
REMARK VINA RESULT:      -6.8      3.946      6.121
REMARK  Name = 
REMARK  2 active torsions:
REMARK  status: ('A' for Active; 'I' for Inactive)
REMARK    1  A    between atoms: N_9  and  C_10
REMARK    2  A    between atoms: C_10  and  C_11
REMARK                            x       y       z     vdW  Elec       q    Type
REMARK                         _______ _______ _______ _____ _____    ______ ____
ROOT
ATOM      1  N   UNL     1       8.198   5.153  19.709  0.00  0.00    +0.000 N 
ATOM      2  C   UNL     1       7.602   5.557  18.561  0.00  0.00    +0.000 C 
ATOM      3  N   UNL     1       7.052   4.670  17.805  0.00  0.00    +0.000 NA
ATOM      4  C   UNL     1       6.408   5.166  16.592  0.00  0.00    +0.000 C 
ATOM      5  C   UNL     1       5.341   4.118  16.220  0.00  0.00    +0.000 C 
ATOM      6  C   UNL     1       5.403   3.977  14.709  0.00  0.00    +0.000 C 
ATOM      7  C   UNL     1       6.891   4.026  14.435  0.00  0.00    +0.000 C 
ATOM      8  C   UNL     1       7.427   5.070  15.412  0.00  0.00    +0.000 C 
ATOM      9  N   UNL     1       5.975   6.559  16.682  0.00  0.00    +0.000 N 
ATOM     10  C   UNL     1       6.841   7.328  17.398  0.00  0.00    +0.000 C 
ATOM     11  N   UNL     1       6.857   8.649  17.089  0.00  0.00    +0.000 N 
ATOM     12  N   UNL     1       7.674   6.881  18.274  0.00  0.00    +0.000 NA
ATOM     13  H   UNL     1       8.457   4.178  19.691  0.00  0.00    +0.000 HD
ATOM     14  H   UNL     1       8.918   5.789  20.016  0.00  0.00    +0.000 HD
ATOM     15  H   UNL     1       6.884   8.806  16.087  0.00  0.00    +0.000 HD
ATOM     16  H   UNL     1       7.651   9.094  17.539  0.00  0.00    +0.000 HD
ENDROOT
BRANCH   9  17
ATOM     17  C   UNL     1       4.602   6.984  16.398  0.00  0.00    +0.000 C 
BRANCH  17  18
ATOM     18  C   UNL     1       3.758   7.141  17.652  0.00  0.00    +0.000 A 
ATOM     19  C   UNL     1       3.775   6.155  18.652  0.00  0.00    +0.000 A 
ATOM     20  C   UNL     1       2.912   6.229  19.746  0.00  0.00    +0.000 A 
ATOM     21  C   UNL     1       2.038   7.305  19.866  0.00  0.00    +0.000 A 
ATOM     22 CL   UNL     1       0.917   7.356  21.170  0.00  0.00    +0.000 Cl
ATOM     23  C   UNL     1       2.060   8.333  18.929  0.00  0.00    +0.000 A 
ATOM     24  C   UNL     1       2.928   8.258  17.835  0.00  0.00    +0.000 A 
ENDBRANCH  17  18
ENDBRANCH   9  17
TORSDOF 2
ENDMDL
