MODEL 1
REMARK VINA RESULT:      -6.8      0.000      0.000
REMARK  Name = 
REMARK  2 active torsions:
REMARK  status: ('A' for Active; 'I' for Inactive)
REMARK    1  A    between atoms: C_2  and  C_4
REMARK    2  A    between atoms: C_9  and  C_10
REMARK                            x       y       z     vdW  Elec       q    Type
REMARK                         _______ _______ _______ _____ _____    ______ ____
ROOT
ATOM      1  C   UNL     1       3.654   3.366  19.838  0.00  0.00    +0.000 A 
ATOM      2  C   UNL     1       2.311   3.360  20.272  0.00  0.00    +0.000 A 
ATOM      3  C   UNL     1       1.577   4.543  20.346  0.00  0.00    +0.000 A 
ATOM      4  C   UNL     1       2.174   5.745  19.990  0.00  0.00    +0.000 A 
ATOM      5  C   UNL     1       3.500   5.759  19.553  0.00  0.00    +0.000 A 
ATOM      6  C   UNL     1       4.266   4.576  19.450  0.00  0.00    +0.000 A 
ENDROOT
BRANCH   6   7
ATOM      7  C   UNL     1       5.646   4.739  18.960  0.00  0.00    +0.000 A 
ATOM      8  N   UNL     1       6.610   5.404  19.581  0.00  0.00    +0.000 NA
ATOM      9  C   UNL     1       7.700   5.374  18.750  0.00  0.00    +0.000 A 
ATOM     10  C   UNL     1       7.407   4.703  17.592  0.00  0.00    +0.000 A 
ATOM     11  N   UNL     1       6.108   4.305  17.737  0.00  0.00    +0.000 N 
ATOM     12  H   UNL     1       5.565   3.753  17.083  0.00  0.00    +0.000 HD
ENDBRANCH   6   7
BRANCH   1  14
ATOM     13  N   UNL     1       4.093   1.259  18.699  0.00  0.00    +0.000 N 
ATOM     14  C   UNL     1       4.341   2.046  19.790  0.00  0.00    +0.000 C 
ATOM     15  O   UNL     1       5.118   1.674  20.661  0.00  0.00    +0.000 OA
ATOM     16  H   UNL     1       4.519   0.341  18.677  0.00  0.00    +0.000 HD
ATOM     17  H   UNL     1       3.391   1.474  18.004  0.00  0.00    +0.000 HD
ENDBRANCH   1  14
TORSDOF 2
ENDMDL
MODEL 2
REMARK VINA RESULT:      -6.7      1.289      1.289
REMARK  Name = 
REMARK  2 active torsions:
REMARK  status: ('A' for Active; 'I' for Inactive)
REMARK    1  A    between atoms: C_2  and  C_4
REMARK    2  A    between atoms: C_9  and  C_10
REMARK                            x       y       z     vdW  Elec       q    Type
REMARK                         _______ _______ _______ _____ _____    ______ ____
ROOT
ATOM      1  C   UNL     1       3.510   2.874  18.868  0.00  0.00    +0.000 A 
ATOM      2  C   UNL     1       2.109   2.726  18.942  0.00  0.00    +0.000 A 
ATOM      3  C   UNL     1       1.257   3.701  18.424  0.00  0.00    +0.000 A 
ATOM      4  C   UNL     1       1.793   4.834  17.827  0.00  0.00    +0.000 A 
ATOM      5  C   UNL     1       3.179   4.985  17.744  0.00  0.00    +0.000 A 
ATOM      6  C   UNL     1       4.069   4.008  18.243  0.00  0.00    +0.000 A 
ENDROOT
BRANCH   6   7
ATOM      7  C   UNL     1       5.505   4.292  18.072  0.00  0.00    +0.000 A 
ATOM      8  N   UNL     1       6.296   4.833  18.988  0.00  0.00    +0.000 NA
ATOM      9  C   UNL     1       7.523   4.993  18.396  0.00  0.00    +0.000 A 
ATOM     10  C   UNL     1       7.489   4.568  17.093  0.00  0.00    +0.000 A 
ATOM     11  N   UNL     1       6.211   4.126  16.902  0.00  0.00    +0.000 N 
ATOM     12  H   UNL     1       5.832   3.710  16.059  0.00  0.00    +0.000 HD
ENDBRANCH   6   7
BRANCH   1  14
ATOM     13  N   UNL     1       4.372   0.600  18.738  0.00  0.00    +0.000 N 
ATOM     14  C   UNL     1       4.324   1.770  19.446  0.00  0.00    +0.000 C 
ATOM     15  O   UNL     1       4.953   1.890  20.490  0.00  0.00    +0.000 OA
ATOM     16  H   UNL     1       4.885  -0.173  19.143  0.00  0.00    +0.000 HD
ATOM     17  H   UNL     1       3.798   0.415  17.926  0.00  0.00    +0.000 HD
ENDBRANCH   1  14
TORSDOF 2
ENDMDL
MODEL 3
REMARK VINA RESULT:      -6.6      1.399      1.716
REMARK  Name = 
REMARK  2 active torsions:
REMARK  status: ('A' for Active; 'I' for Inactive)
REMARK    1  A    between atoms: C_2  and  C_4
REMARK    2  A    between atoms: C_9  and  C_10
REMARK                            x       y       z     vdW  Elec       q    Type
REMARK                         _______ _______ _______ _____ _____    ______ ____
ROOT
ATOM      1  C   UNL     1       3.456   2.862  18.826  0.00  0.00    +0.000 A 
ATOM      2  C   UNL     1       2.078   2.710  19.087  0.00  0.00    +0.000 A 
ATOM      3  C   UNL     1       1.154   3.646  18.623  0.00  0.00    +0.000 A 
ATOM      4  C   UNL     1       1.594   4.744  17.896  0.00  0.00    +0.000 A 
ATOM      5  C   UNL     1       2.955   4.898  17.629  0.00  0.00    +0.000 A 
ATOM      6  C   UNL     1       3.916   3.960  18.069  0.00  0.00    +0.000 A 
ENDROOT
BRANCH   6   7
ATOM      7  C   UNL     1       5.314   4.242  17.700  0.00  0.00    +0.000 A 
ATOM      8  N   UNL     1       5.784   4.314  16.463  0.00  0.00    +0.000 NA
ATOM      9  C   UNL     1       7.137   4.515  16.573  0.00  0.00    +0.000 A 
ATOM     10  C   UNL     1       7.515   4.547  17.890  0.00  0.00    +0.000 A 
ATOM     11  N   UNL     1       6.355   4.376  18.591  0.00  0.00    +0.000 N 
ATOM     12  H   UNL     1       6.250   4.378  19.600  0.00  0.00    +0.000 HD
ENDBRANCH   6   7
BRANCH   1  14
ATOM     13  N   UNL     1       4.359   0.604  18.699  0.00  0.00    +0.000 N 
ATOM     14  C   UNL     1       4.353   1.801  19.362  0.00  0.00    +0.000 C 
ATOM     15  O   UNL     1       5.079   1.978  20.332  0.00  0.00    +0.000 OA
ATOM     16  H   UNL     1       4.931  -0.139  19.080  0.00  0.00    +0.000 HD
ATOM     17  H   UNL     1       3.712   0.374  17.957  0.00  0.00    +0.000 HD
ENDBRANCH   1  14
TORSDOF 2
ENDMDL
MODEL 4
REMARK VINA RESULT:      -6.6      0.561      1.105
REMARK  Name = 
REMARK  2 active torsions:
REMARK  status: ('A' for Active; 'I' for Inactive)
REMARK    1  A    between atoms: C_2  and  C_4
REMARK    2  A    between atoms: C_9  and  C_10
REMARK                            x       y       z     vdW  Elec       q    Type
REMARK                         _______ _______ _______ _____ _____    ______ ____
ROOT
ATOM      1  C   UNL     1       3.668   3.477  19.771  0.00  0.00    +0.000 A 
ATOM      2  C   UNL     1       2.456   3.572  20.487  0.00  0.00    +0.000 A 
ATOM      3  C   UNL     1       1.775   4.784  20.587  0.00  0.00    +0.000 A 
ATOM      4  C   UNL     1       2.296   5.916  19.974  0.00  0.00    +0.000 A 
ATOM      5  C   UNL     1       3.492   5.830  19.258  0.00  0.00    +0.000 A 
ATOM      6  C   UNL     1       4.197   4.613  19.123  0.00  0.00    +0.000 A 
ENDROOT
BRANCH   6   7
ATOM      7  C   UNL     1       5.435   4.665  18.327  0.00  0.00    +0.000 A 
ATOM      8  N   UNL     1       5.507   4.553  17.008  0.00  0.00    +0.000 NA
ATOM      9  C   UNL     1       6.840   4.578  16.688  0.00  0.00    +0.000 A 
ATOM     10  C   UNL     1       7.606   4.686  17.819  0.00  0.00    +0.000 A 
ATOM     11  N   UNL     1       6.708   4.742  18.846  0.00  0.00    +0.000 N 
ATOM     12  H   UNL     1       6.918   4.856  19.832  0.00  0.00    +0.000 HD
ENDBRANCH   6   7
BRANCH   1  14
ATOM     13  N   UNL     1       3.987   1.334  18.659  0.00  0.00    +0.000 N 
ATOM     14  C   UNL     1       4.306   2.133  19.724  0.00  0.00    +0.000 C 
ATOM     15  O   UNL     1       5.103   1.750  20.571  0.00  0.00    +0.000 OA
ATOM     16  H   UNL     1       4.379   0.401  18.639  0.00  0.00    +0.000 HD
ATOM     17  H   UNL     1       3.266   1.560  17.988  0.00  0.00    +0.000 HD
ENDBRANCH   1  14
TORSDOF 2
ENDMDL
MODEL 5
REMARK VINA RESULT:      -6.5      1.075      1.120
REMARK  Name = 
REMARK  2 active torsions:
REMARK  status: ('A' for Active; 'I' for Inactive)
REMARK    1  A    between atoms: C_2  and  C_4
REMARK    2  A    between atoms: C_9  and  C_10
REMARK                            x       y       z     vdW  Elec       q    Type
REMARK                         _______ _______ _______ _____ _____    ______ ____
ROOT
ATOM      1  C   UNL     1       3.454   3.453  19.569  0.00  0.00    +0.000 A 
ATOM      2  C   UNL     1       2.233   3.531  20.272  0.00  0.00    +0.000 A 
ATOM      3  C   UNL     1       1.626   4.762  20.520  0.00  0.00    +0.000 A 
ATOM      4  C   UNL     1       2.231   5.928  20.072  0.00  0.00    +0.000 A 
ATOM      5  C   UNL     1       3.436   5.859  19.370  0.00  0.00    +0.000 A 
ATOM      6  C   UNL     1       4.067   4.628  19.086  0.00  0.00    +0.000 A 
ENDROOT
BRANCH   6   7
ATOM      7  C   UNL     1       5.326   4.705  18.324  0.00  0.00    +0.000 A 
ATOM      8  N   UNL     1       6.537   4.487  18.815  0.00  0.00    +0.000 NA
ATOM      9  C   UNL     1       7.420   4.738  17.796  0.00  0.00    +0.000 A 
ATOM     10  C   UNL     1       6.754   5.137  16.667  0.00  0.00    +0.000 A 
ATOM     11  N   UNL     1       5.433   5.109  17.012  0.00  0.00    +0.000 N 
ATOM     12  H   UNL     1       4.643   5.316  16.410  0.00  0.00    +0.000 HD
ENDBRANCH   6   7
BRANCH   1  14
ATOM     13  N   UNL     1       5.084   1.731  20.122  0.00  0.00    +0.000 N 
ATOM     14  C   UNL     1       4.009   2.088  19.355  0.00  0.00    +0.000 C 
ATOM     15  O   UNL     1       3.525   1.297  18.556  0.00  0.00    +0.000 OA
ATOM     16  H   UNL     1       5.498   0.822  19.953  0.00  0.00    +0.000 HD
ATOM     17  H   UNL     1       5.580   2.375  20.722  0.00  0.00    +0.000 HD
ENDBRANCH   1  14
TORSDOF 2
ENDMDL
MODEL 6
REMARK VINA RESULT:      -6.3      2.522      3.378
REMARK  Name = 
REMARK  2 active torsions:
REMARK  status: ('A' for Active; 'I' for Inactive)
REMARK    1  A    between atoms: C_2  and  C_4
REMARK    2  A    between atoms: C_9  and  C_10
REMARK                            x       y       z     vdW  Elec       q    Type
REMARK                         _______ _______ _______ _____ _____    ______ ____
ROOT
ATOM      1  C   UNL     1       2.777   4.694  18.441  0.00  0.00    +0.000 A 
ATOM      2  C   UNL     1       1.527   4.095  18.707  0.00  0.00    +0.000 A 
ATOM      3  C   UNL     1       1.319   2.737  18.471  0.00  0.00    +0.000 A 
ATOM      4  C   UNL     1       2.354   1.961  17.965  0.00  0.00    +0.000 A 
ATOM      5  C   UNL     1       3.595   2.544  17.705  0.00  0.00    +0.000 A 
ATOM      6  C   UNL     1       3.845   3.913  17.950  0.00  0.00    +0.000 A 
ENDROOT
BRANCH   6   7
ATOM      7  C   UNL     1       5.205   4.389  17.644  0.00  0.00    +0.000 A 
ATOM      8  N   UNL     1       5.570   5.015  16.534  0.00  0.00    +0.000 NA
ATOM      9  C   UNL     1       6.925   5.207  16.624  0.00  0.00    +0.000 A 
ATOM     10  C   UNL     1       7.412   4.677  17.790  0.00  0.00    +0.000 A 
ATOM     11  N   UNL     1       6.316   4.166  18.426  0.00  0.00    +0.000 N 
ATOM     12  H   UNL     1       6.295   3.722  19.338  0.00  0.00    +0.000 HD
ENDBRANCH   6   7
BRANCH   1  14
ATOM     13  N   UNL     1       2.844   6.518  20.053  0.00  0.00    +0.000 N 
ATOM     14  C   UNL     1       2.891   6.148  18.736  0.00  0.00    +0.000 C 
ATOM     15  O   UNL     1       3.049   6.989  17.860  0.00  0.00    +0.000 OA
ATOM     16  H   UNL     1       2.875   7.507  20.263  0.00  0.00    +0.000 HD
ATOM     17  H   UNL     1       2.619   5.879  20.803  0.00  0.00    +0.000 HD
ENDBRANCH   1  14
TORSDOF 2
ENDMDL
MODEL 7
REMARK VINA RESULT:      -6.2      1.713      1.908
REMARK  Name = 
REMARK  2 active torsions:
REMARK  status: ('A' for Active; 'I' for Inactive)
REMARK    1  A    between atoms: C_2  and  C_4
REMARK    2  A    between atoms: C_9  and  C_10
REMARK                            x       y       z     vdW  Elec       q    Type
REMARK                         _______ _______ _______ _____ _____    ______ ____
ROOT
ATOM      1  C   UNL     1       2.621   3.291  18.908  0.00  0.00    +0.000 A 
ATOM      2  C   UNL     1       1.433   3.213  19.666  0.00  0.00    +0.000 A 
ATOM      3  C   UNL     1       1.079   4.231  20.550  0.00  0.00    +0.000 A 
ATOM      4  C   UNL     1       1.906   5.338  20.689  0.00  0.00    +0.000 A 
ATOM      5  C   UNL     1       3.080   5.426  19.938  0.00  0.00    +0.000 A 
ATOM      6  C   UNL     1       3.458   4.421  19.021  0.00  0.00    +0.000 A 
ENDROOT
BRANCH   6   7
ATOM      7  C   UNL     1       4.713   4.653  18.286  0.00  0.00    +0.000 A 
ATOM      8  N   UNL     1       4.824   5.317  17.144  0.00  0.00    +0.000 NA
ATOM      9  C   UNL     1       6.141   5.230  16.770  0.00  0.00    +0.000 A 
ATOM     10  C   UNL     1       6.852   4.487  17.676  0.00  0.00    +0.000 A 
ATOM     11  N   UNL     1       5.940   4.131  18.629  0.00  0.00    +0.000 N 
ATOM     12  H   UNL     1       6.121   3.600  19.474  0.00  0.00    +0.000 HD
ENDBRANCH   6   7
BRANCH   1  14
ATOM     13  N   UNL     1       3.751   1.184  18.446  0.00  0.00    +0.000 N 
ATOM     14  C   UNL     1       2.897   2.152  17.990  0.00  0.00    +0.000 C 
ATOM     15  O   UNL     1       2.375   2.051  16.887  0.00  0.00    +0.000 OA
ATOM     16  H   UNL     1       3.982   0.428  17.814  0.00  0.00    +0.000 HD
ATOM     17  H   UNL     1       4.281   1.267  19.302  0.00  0.00    +0.000 HD
ENDBRANCH   1  14
TORSDOF 2
ENDMDL
MODEL 8
REMARK VINA RESULT:      -6.2      2.403      3.181
REMARK  Name = 
REMARK  2 active torsions:
REMARK  status: ('A' for Active; 'I' for Inactive)
REMARK    1  A    between atoms: C_2  and  C_4
REMARK    2  A    between atoms: C_9  and  C_10
REMARK                            x       y       z     vdW  Elec       q    Type
REMARK                         _______ _______ _______ _____ _____    ______ ____
ROOT
ATOM      1  C   UNL     1       2.734   4.660  18.667  0.00  0.00    +0.000 A 
ATOM      2  C   UNL     1       1.480   4.013  18.619  0.00  0.00    +0.000 A 
ATOM      3  C   UNL     1       1.392   2.635  18.433  0.00  0.00    +0.000 A 
ATOM      4  C   UNL     1       2.552   1.885  18.291  0.00  0.00    +0.000 A 
ATOM      5  C   UNL     1       3.796   2.516  18.344  0.00  0.00    +0.000 A 
ATOM      6  C   UNL     1       3.921   3.908  18.549  0.00  0.00    +0.000 A 
ENDROOT
BRANCH   6   7
ATOM      7  C   UNL     1       5.296   4.435  18.598  0.00  0.00    +0.000 A 
ATOM      8  N   UNL     1       5.762   5.284  19.504  0.00  0.00    +0.000 NA
ATOM      9  C   UNL     1       7.053   5.571  19.138  0.00  0.00    +0.000 A 
ATOM     10  C   UNL     1       7.386   4.913  17.983  0.00  0.00    +0.000 A 
ATOM     11  N   UNL     1       6.270   4.197  17.654  0.00  0.00    +0.000 N 
ATOM     12  H   UNL     1       6.164   3.564  16.869  0.00  0.00    +0.000 HD
ENDBRANCH   6   7
BRANCH   1  14
ATOM     13  N   UNL     1       2.730   6.574  20.172  0.00  0.00    +0.000 N 
ATOM     14  C   UNL     1       2.712   6.133  18.876  0.00  0.00    +0.000 C 
ATOM     15  O   UNL     1       2.706   6.932  17.948  0.00  0.00    +0.000 OA
ATOM     16  H   UNL     1       2.670   7.573  20.328  0.00  0.00    +0.000 HD
ATOM     17  H   UNL     1       2.637   5.962  20.971  0.00  0.00    +0.000 HD
ENDBRANCH   1  14
TORSDOF 2
ENDMDL
MODEL 9
REMARK VINA RESULT:      -6.2      1.655      1.713
REMARK  Name = 
REMARK  2 active torsions:
REMARK  status: ('A' for Active; 'I' for Inactive)
REMARK    1  A    between atoms: C_2  and  C_4
REMARK    2  A    between atoms: C_9  and  C_10
REMARK                            x       y       z     vdW  Elec       q    Type
REMARK                         _______ _______ _______ _____ _____    ______ ____
ROOT
ATOM      1  C   UNL     1       2.667   3.391  18.957  0.00  0.00    +0.000 A 
ATOM      2  C   UNL     1       1.443   3.324  19.656  0.00  0.00    +0.000 A 
ATOM      3  C   UNL     1       1.036   4.365  20.489  0.00  0.00    +0.000 A 
ATOM      4  C   UNL     1       1.845   5.484  20.636  0.00  0.00    +0.000 A 
ATOM      5  C   UNL     1       3.054   5.561  19.943  0.00  0.00    +0.000 A 
ATOM      6  C   UNL     1       3.488   4.532  19.078  0.00  0.00    +0.000 A 
ENDROOT
BRANCH   6   7
ATOM      7  C   UNL     1       4.777   4.756  18.400  0.00  0.00    +0.000 A 
ATOM      8  N   UNL     1       5.939   4.234  18.766  0.00  0.00    +0.000 NA
ATOM      9  C   UNL     1       6.883   4.757  17.920  0.00  0.00    +0.000 A 
ATOM     10  C   UNL     1       6.307   5.628  17.032  0.00  0.00    +0.000 A 
ATOM     11  N   UNL     1       4.977   5.616  17.344  0.00  0.00    +0.000 N 
ATOM     12  H   UNL     1       4.238   6.123  16.869  0.00  0.00    +0.000 HD
ENDBRANCH   6   7
BRANCH   1  14
ATOM     13  N   UNL     1       4.008   1.408  18.517  0.00  0.00    +0.000 N 
ATOM     14  C   UNL     1       3.000   2.228  18.090  0.00  0.00    +0.000 C 
ATOM     15  O   UNL     1       2.394   1.982  17.055  0.00  0.00    +0.000 OA
ATOM     16  H   UNL     1       4.274   0.639  17.913  0.00  0.00    +0.000 HD
ATOM     17  H   UNL     1       4.602   1.618  19.308  0.00  0.00    +0.000 HD
ENDBRANCH   1  14
TORSDOF 2
ENDMDL
