MODEL 1
REMARK VINA RESULT:      -6.2      0.000      0.000
REMARK  Name = 
REMARK  8 active torsions:
REMARK  status: ('A' for Active; 'I' for Inactive)
REMARK    1  A    between atoms: C_1  and  C_2
REMARK    2  A    between atoms: C_2  and  O_3
REMARK    3  A    between atoms: C_2  and  C_4
REMARK    4  A    between atoms: C_4  and  N_5
REMARK    5  A    between atoms: N_8  and  C_9
REMARK    6  A    between atoms: C_9  and  C_10
REMARK    7  A    between atoms: C_9  and  C_11
REMARK    8  A    between atoms: C_22  and  C_23
REMARK                            x       y       z     vdW  Elec       q    Type
REMARK                         _______ _______ _______ _____ _____    ______ ____
ROOT
ATOM      1  C   UNL     1       2.660   5.182  19.787  0.00  0.00    +0.000 C 
ATOM      2  C   UNL     1       3.188   4.300  20.931  0.00  0.00    +0.000 C 
ENDROOT
BRANCH   1   3
ATOM      3  C   UNL     1       1.742   6.213  20.481  0.00  0.00    +0.000 C 
ATOM      4  O   UNL     1       0.803   5.859  21.190  0.00  0.00    +0.000 OA
ATOM      5  N   UNL     1       2.106   7.527  20.237  0.00  0.00    +0.000 N 
ATOM      6  C   UNL     1       1.392   8.615  20.726  0.00  0.00    +0.000 A 
ATOM      7  C   UNL     1       0.965   8.675  22.048  0.00  0.00    +0.000 A 
ATOM      8  C   UNL     1       0.228   9.777  22.476  0.00  0.00    +0.000 A 
ATOM      9  C   UNL     1      -0.088  10.770  21.552  0.00  0.00    +0.000 A 
ATOM     10 CL   UNL     1      -1.053  12.113  22.006  0.00  0.00    +0.000 Cl
ATOM     11  C   UNL     1       0.397  10.637  20.262  0.00  0.00    +0.000 A 
ATOM     12  N   UNL     1       1.166   9.606  19.839  0.00  0.00    +0.000 NA
ATOM     13  H   UNL     1       2.561   7.678  19.343  0.00  0.00    +0.000 HD
ENDBRANCH   1   3
BRANCH   1  17
ATOM     14  N   UNL     1       5.407   4.131  17.091  0.00  0.00    +0.000 NA
ATOM     15  C   UNL     1       5.563   4.086  18.561  0.00  0.00    +0.000 C 
ATOM     16  C   UNL     1       5.101   5.354  19.325  0.00  0.00    +0.000 C 
ATOM     17  N   UNL     1       3.742   5.858  19.016  0.00  0.00    +0.000 NA
ATOM     18  C   UNL     1       3.550   5.822  17.543  0.00  0.00    +0.000 C 
ATOM     19  C   UNL     1       4.017   4.555  16.763  0.00  0.00    +0.000 C 
ATOM     20  C   UNL     1       3.045   3.377  16.916  0.00  0.00    +0.000 C 
BRANCH  14  21
ATOM     21  C   UNL     1       6.377   5.041  16.437  0.00  0.00    +0.000 C 
BRANCH  21  23
ATOM     22  C   UNL     1       6.135   4.048  14.075  0.00  0.00    +0.000 C 
ATOM     23  C   UNL     1       7.087   4.544  15.154  0.00  0.00    +0.000 C 
BRANCH  23  24
ATOM     24  O   UNL     1       7.860   5.624  14.610  0.00  0.00    +0.000 OA
ATOM     25  H   UNL     1       8.008   6.270  15.322  0.00  0.00    +0.000 HD
ENDBRANCH  23  24
ENDBRANCH  21  23
ENDBRANCH  14  21
ENDBRANCH   1  17
TORSDOF 5
ENDMDL
MODEL 2
REMARK VINA RESULT:      -6.0      2.276      3.281
REMARK  Name = 
REMARK  8 active torsions:
REMARK  status: ('A' for Active; 'I' for Inactive)
REMARK    1  A    between atoms: C_1  and  C_2
REMARK    2  A    between atoms: C_2  and  O_3
REMARK    3  A    between atoms: C_2  and  C_4
REMARK    4  A    between atoms: C_4  and  N_5
REMARK    5  A    between atoms: N_8  and  C_9
REMARK    6  A    between atoms: C_9  and  C_10
REMARK    7  A    between atoms: C_9  and  C_11
REMARK    8  A    between atoms: C_22  and  C_23
REMARK                            x       y       z     vdW  Elec       q    Type
REMARK                         _______ _______ _______ _____ _____    ______ ____
ROOT
ATOM      1  C   UNL     1       2.617   7.133  19.449  0.00  0.00    +0.000 C 
ATOM      2  C   UNL     1       2.557   8.059  18.222  0.00  0.00    +0.000 C 
ENDROOT
BRANCH   1   3
ATOM      3  C   UNL     1       1.580   7.720  20.432  0.00  0.00    +0.000 C 
ATOM      4  O   UNL     1       0.989   7.008  21.240  0.00  0.00    +0.000 OA
ATOM      5  N   UNL     1       1.422   9.091  20.312  0.00  0.00    +0.000 N 
ATOM      6  C   UNL     1       0.509   9.818  21.066  0.00  0.00    +0.000 A 
ATOM      7  C   UNL     1       0.382   9.632  22.439  0.00  0.00    +0.000 A 
ATOM      8  C   UNL     1      -0.571  10.368  23.140  0.00  0.00    +0.000 A 
ATOM      9  C   UNL     1      -1.392  11.244  22.435  0.00  0.00    +0.000 A 
ATOM     10 CL   UNL     1      -2.629  12.122  23.235  0.00  0.00    +0.000 Cl
ATOM     11  C   UNL     1      -1.180  11.381  21.073  0.00  0.00    +0.000 A 
ATOM     12  N   UNL     1      -0.221  10.722  20.381  0.00  0.00    +0.000 NA
ATOM     13  H   UNL     1       1.596   9.454  19.381  0.00  0.00    +0.000 HD
ENDBRANCH   1   3
BRANCH   1  17
ATOM     14  N   UNL     1       4.498   4.064  17.728  0.00  0.00    +0.000 NA
ATOM     15  C   UNL     1       3.690   5.093  17.037  0.00  0.00    +0.000 C 
ATOM     16  C   UNL     1       2.314   5.409  17.678  0.00  0.00    +0.000 C 
ATOM     17  N   UNL     1       2.310   5.710  19.129  0.00  0.00    +0.000 NA
ATOM     18  C   UNL     1       3.191   4.730  19.815  0.00  0.00    +0.000 C 
ATOM     19  C   UNL     1       4.575   4.400  19.177  0.00  0.00    +0.000 C 
ATOM     20  C   UNL     1       5.614   5.502  19.420  0.00  0.00    +0.000 C 
BRANCH  14  21
ATOM     21  C   UNL     1       3.955   2.696  17.557  0.00  0.00    +0.000 C 
BRANCH  21  23
ATOM     22  C   UNL     1       2.228   1.572  19.098  0.00  0.00    +0.000 C 
ATOM     23  C   UNL     1       3.701   1.852  18.829  0.00  0.00    +0.000 C 
BRANCH  23  24
ATOM     24  O   UNL     1       4.378   0.595  18.689  0.00  0.00    +0.000 OA
ATOM     25  H   UNL     1       3.760  -0.030  18.269  0.00  0.00    +0.000 HD
ENDBRANCH  23  24
ENDBRANCH  21  23
ENDBRANCH  14  21
ENDBRANCH   1  17
TORSDOF 5
ENDMDL
MODEL 3
REMARK VINA RESULT:      -6.0      1.520      1.801
REMARK  Name = 
REMARK  8 active torsions:
REMARK  status: ('A' for Active; 'I' for Inactive)
REMARK    1  A    between atoms: C_1  and  C_2
REMARK    2  A    between atoms: C_2  and  O_3
REMARK    3  A    between atoms: C_2  and  C_4
REMARK    4  A    between atoms: C_4  and  N_5
REMARK    5  A    between atoms: N_8  and  C_9
REMARK    6  A    between atoms: C_9  and  C_10
REMARK    7  A    between atoms: C_9  and  C_11
REMARK    8  A    between atoms: C_22  and  C_23
REMARK                            x       y       z     vdW  Elec       q    Type
REMARK                         _______ _______ _______ _____ _____    ______ ____
ROOT
ATOM      1  C   UNL     1       2.265   6.136  19.623  0.00  0.00    +0.000 C 
ATOM      2  C   UNL     1       2.312   5.439  20.993  0.00  0.00    +0.000 C 
ENDROOT
BRANCH   1   3
ATOM      3  C   UNL     1       1.754   7.563  19.929  0.00  0.00    +0.000 C 
ATOM      4  O   UNL     1       2.182   8.540  19.320  0.00  0.00    +0.000 OA
ATOM      5  N   UNL     1       0.782   7.599  20.915  0.00  0.00    +0.000 N 
ATOM      6  C   UNL     1       0.216   8.782  21.379  0.00  0.00    +0.000 A 
ATOM      7  C   UNL     1      -0.217   9.775  20.507  0.00  0.00    +0.000 A 
ATOM      8  C   UNL     1      -0.749  10.953  21.030  0.00  0.00    +0.000 A 
ATOM      9  C   UNL     1      -0.797  11.110  22.412  0.00  0.00    +0.000 A 
ATOM     10 CL   UNL     1      -1.376  12.566  23.109  0.00  0.00    +0.000 Cl
ATOM     11  C   UNL     1      -0.363  10.059  23.203  0.00  0.00    +0.000 A 
ATOM     12  N   UNL     1       0.101   8.882  22.718  0.00  0.00    +0.000 NA
ATOM     13  H   UNL     1       0.852   6.858  21.603  0.00  0.00    +0.000 HD
ENDBRANCH   1   3
BRANCH   1  17
ATOM     14  N   UNL     1       4.633   3.547  17.725  0.00  0.00    +0.000 NA
ATOM     15  C   UNL     1       4.630   3.826  19.177  0.00  0.00    +0.000 C 
ATOM     16  C   UNL     1       4.618   5.325  19.574  0.00  0.00    +0.000 C 
ATOM     17  N   UNL     1       3.586   6.174  18.934  0.00  0.00    +0.000 NA
ATOM     18  C   UNL     1       3.526   5.834  17.489  0.00  0.00    +0.000 C 
ATOM     19  C   UNL     1       3.543   4.330  17.077  0.00  0.00    +0.000 C 
ATOM     20  C   UNL     1       2.187   3.645  17.293  0.00  0.00    +0.000 C 
BRANCH  14  21
ATOM     21  C   UNL     1       5.930   3.864  17.081  0.00  0.00    +0.000 C 
BRANCH  21  23
ATOM     22  C   UNL     1       6.969   5.367  15.269  0.00  0.00    +0.000 C 
ATOM     23  C   UNL     1       5.914   4.321  15.602  0.00  0.00    +0.000 C 
BRANCH  23  24
ATOM     24  O   UNL     1       6.138   3.176  14.766  0.00  0.00    +0.000 OA
ATOM     25  H   UNL     1       6.268   3.496  13.856  0.00  0.00    +0.000 HD
ENDBRANCH  23  24
ENDBRANCH  21  23
ENDBRANCH  14  21
ENDBRANCH   1  17
TORSDOF 5
ENDMDL
MODEL 4
REMARK VINA RESULT:      -6.0      2.681      4.278
REMARK  Name = 
REMARK  8 active torsions:
REMARK  status: ('A' for Active; 'I' for Inactive)
REMARK    1  A    between atoms: C_1  and  C_2
REMARK    2  A    between atoms: C_2  and  O_3
REMARK    3  A    between atoms: C_2  and  C_4
REMARK    4  A    between atoms: C_4  and  N_5
REMARK    5  A    between atoms: N_8  and  C_9
REMARK    6  A    between atoms: C_9  and  C_10
REMARK    7  A    between atoms: C_9  and  C_11
REMARK    8  A    between atoms: C_22  and  C_23
REMARK                            x       y       z     vdW  Elec       q    Type
REMARK                         _______ _______ _______ _____ _____    ______ ____
ROOT
ATOM      1  C   UNL     1       3.272   7.379  18.241  0.00  0.00    +0.000 C 
ATOM      2  C   UNL     1       3.683   7.127  16.780  0.00  0.00    +0.000 C 
ENDROOT
BRANCH   1   3
ATOM      3  C   UNL     1       2.306   8.583  18.172  0.00  0.00    +0.000 C 
ATOM      4  O   UNL     1       2.239   9.294  17.172  0.00  0.00    +0.000 OA
ATOM      5  N   UNL     1       1.542   8.742  19.317  0.00  0.00    +0.000 N 
ATOM      6  C   UNL     1       0.641   9.786  19.488  0.00  0.00    +0.000 A 
ATOM      7  C   UNL     1      -0.257  10.149  18.488  0.00  0.00    +0.000 A 
ATOM      8  C   UNL     1      -1.117  11.223  18.704  0.00  0.00    +0.000 A 
ATOM      9  C   UNL     1      -1.026  11.923  19.904  0.00  0.00    +0.000 A 
ATOM     10 CL   UNL     1      -2.011  13.297  20.194  0.00  0.00    +0.000 Cl
ATOM     11  C   UNL     1      -0.118  11.478  20.851  0.00  0.00    +0.000 A 
ATOM     12  N   UNL     1       0.685  10.400  20.687  0.00  0.00    +0.000 NA
ATOM     13  H   UNL     1       1.986   8.414  20.167  0.00  0.00    +0.000 HD
ENDBRANCH   1   3
BRANCH   1  17
ATOM     14  N   UNL     1       4.109   3.513  18.766  0.00  0.00    +0.000 NA
ATOM     15  C   UNL     1       3.417   4.108  17.601  0.00  0.00    +0.000 C 
ATOM     16  C   UNL     1       2.285   5.113  17.934  0.00  0.00    +0.000 C 
ATOM     17  N   UNL     1       2.620   6.202  18.883  0.00  0.00    +0.000 NA
ATOM     18  C   UNL     1       3.391   5.621  20.012  0.00  0.00    +0.000 C 
ATOM     19  C   UNL     1       4.529   4.604  19.690  0.00  0.00    +0.000 C 
ATOM     20  C   UNL     1       5.802   5.287  19.174  0.00  0.00    +0.000 C 
BRANCH  14  21
ATOM     21  C   UNL     1       3.270   2.532  19.494  0.00  0.00    +0.000 C 
BRANCH  21  23
ATOM     22  C   UNL     1       1.090   2.876  20.817  0.00  0.00    +0.000 C 
ATOM     23  C   UNL     1       2.609   2.984  20.818  0.00  0.00    +0.000 C 
BRANCH  23  24
ATOM     24  O   UNL     1       3.115   2.170  21.886  0.00  0.00    +0.000 OA
ATOM     25  H   UNL     1       3.826   2.668  22.326  0.00  0.00    +0.000 HD
ENDBRANCH  23  24
ENDBRANCH  21  23
ENDBRANCH  14  21
ENDBRANCH   1  17
TORSDOF 5
ENDMDL
MODEL 5
REMARK VINA RESULT:      -6.0      3.900      9.300
REMARK  Name = 
REMARK  8 active torsions:
REMARK  status: ('A' for Active; 'I' for Inactive)
REMARK    1  A    between atoms: C_1  and  C_2
REMARK    2  A    between atoms: C_2  and  O_3
REMARK    3  A    between atoms: C_2  and  C_4
REMARK    4  A    between atoms: C_4  and  N_5
REMARK    5  A    between atoms: N_8  and  C_9
REMARK    6  A    between atoms: C_9  and  C_10
REMARK    7  A    between atoms: C_9  and  C_11
REMARK    8  A    between atoms: C_22  and  C_23
REMARK                            x       y       z     vdW  Elec       q    Type
REMARK                         _______ _______ _______ _____ _____    ______ ____
ROOT
ATOM      1  C   UNL     1       1.048   9.725  21.179  0.00  0.00    +0.000 C 
ATOM      2  C   UNL     1       1.580   9.237  22.537  0.00  0.00    +0.000 C 
ENDROOT
BRANCH   1   3
ATOM      3  C   UNL     1       1.427   8.602  20.186  0.00  0.00    +0.000 C 
ATOM      4  O   UNL     1       1.477   8.808  18.976  0.00  0.00    +0.000 OA
ATOM      5  N   UNL     1       1.715   7.396  20.803  0.00  0.00    +0.000 N 
ATOM      6  C   UNL     1       2.035   6.241  20.098  0.00  0.00    +0.000 A 
ATOM      7  C   UNL     1       2.949   6.255  19.050  0.00  0.00    +0.000 A 
ATOM      8  C   UNL     1       3.210   5.073  18.359  0.00  0.00    +0.000 A 
ATOM      9  C   UNL     1       2.518   3.920  18.721  0.00  0.00    +0.000 A 
ATOM     10 CL   UNL     1       2.747   2.455  17.860  0.00  0.00    +0.000 Cl
ATOM     11  C   UNL     1       1.643   3.995  19.792  0.00  0.00    +0.000 A 
ATOM     12  N   UNL     1       1.419   5.117  20.515  0.00  0.00    +0.000 NA
ATOM     13  H   UNL     1       1.224   7.244  21.677  0.00  0.00    +0.000 HD
ENDBRANCH   1   3
BRANCH   1  17
ATOM     14  N   UNL     1      -1.370  12.897  21.245  0.00  0.00    +0.000 NA
ATOM     15  C   UNL     1      -0.814  12.197  22.424  0.00  0.00    +0.000 C 
ATOM     16  C   UNL     1      -0.917  10.651  22.396  0.00  0.00    +0.000 C 
ATOM     17  N   UNL     1      -0.422   9.972  21.175  0.00  0.00    +0.000 NA
ATOM     18  C   UNL     1      -0.907  10.725  19.990  0.00  0.00    +0.000 C 
ATOM     19  C   UNL     1      -0.814  12.281  20.007  0.00  0.00    +0.000 C 
ATOM     20  C   UNL     1       0.609  12.790  19.745  0.00  0.00    +0.000 C 
BRANCH  14  21
ATOM     21  C   UNL     1      -2.850  12.864  21.202  0.00  0.00    +0.000 C 
BRANCH  21  23
ATOM     22  C   UNL     1      -4.650  14.455  22.126  0.00  0.00    +0.000 C 
ATOM     23  C   UNL     1      -3.624  13.375  22.442  0.00  0.00    +0.000 C 
BRANCH  23  24
ATOM     24  O   UNL     1      -4.310  12.267  23.044  0.00  0.00    +0.000 OA
ATOM     25  H   UNL     1      -3.819  11.457  22.818  0.00  0.00    +0.000 HD
ENDBRANCH  23  24
ENDBRANCH  21  23
ENDBRANCH  14  21
ENDBRANCH   1  17
TORSDOF 5
ENDMDL
MODEL 6
REMARK VINA RESULT:      -5.9      3.887      8.733
REMARK  Name = 
REMARK  8 active torsions:
REMARK  status: ('A' for Active; 'I' for Inactive)
REMARK    1  A    between atoms: C_1  and  C_2
REMARK    2  A    between atoms: C_2  and  O_3
REMARK    3  A    between atoms: C_2  and  C_4
REMARK    4  A    between atoms: C_4  and  N_5
REMARK    5  A    between atoms: N_8  and  C_9
REMARK    6  A    between atoms: C_9  and  C_10
REMARK    7  A    between atoms: C_9  and  C_11
REMARK    8  A    between atoms: C_22  and  C_23
REMARK                            x       y       z     vdW  Elec       q    Type
REMARK                         _______ _______ _______ _____ _____    ______ ____
ROOT
ATOM      1  C   UNL     1       1.306   9.338  18.667  0.00  0.00    +0.000 C 
ATOM      2  C   UNL     1       2.528   9.874  17.902  0.00  0.00    +0.000 C 
ENDROOT
BRANCH   1   3
ATOM      3  C   UNL     1       1.807   8.039  19.339  0.00  0.00    +0.000 C 
ATOM      4  O   UNL     1       1.833   7.920  20.561  0.00  0.00    +0.000 OA
ATOM      5  N   UNL     1       2.182   7.060  18.434  0.00  0.00    +0.000 N 
ATOM      6  C   UNL     1       2.703   5.830  18.819  0.00  0.00    +0.000 A 
ATOM      7  C   UNL     1       2.125   5.078  19.836  0.00  0.00    +0.000 A 
ATOM      8  C   UNL     1       2.708   3.866  20.201  0.00  0.00    +0.000 A 
ATOM      9  C   UNL     1       3.875   3.464  19.555  0.00  0.00    +0.000 A 
ATOM     10 CL   UNL     1       4.674   2.017  20.013  0.00  0.00    +0.000 Cl
ATOM     11  C   UNL     1       4.368   4.266  18.540  0.00  0.00    +0.000 A 
ATOM     12  N   UNL     1       3.785   5.417  18.128  0.00  0.00    +0.000 NA
ATOM     13  H   UNL     1       2.528   7.416  17.550  0.00  0.00    +0.000 HD
ENDBRANCH   1   3
BRANCH   1  17
ATOM     14  N   UNL     1      -1.294  12.363  18.726  0.00  0.00    +0.000 NA
ATOM     15  C   UNL     1       0.149  12.456  18.410  0.00  0.00    +0.000 C 
ATOM     16  C   UNL     1       1.099  11.713  19.385  0.00  0.00    +0.000 C 
ATOM     17  N   UNL     1       0.776  10.296  19.678  0.00  0.00    +0.000 NA
ATOM     18  C   UNL     1      -0.688  10.186  19.909  0.00  0.00    +0.000 C 
ATOM     19  C   UNL     1      -1.653  10.933  18.939  0.00  0.00    +0.000 C 
ATOM     20  C   UNL     1      -1.813  10.212  17.595  0.00  0.00    +0.000 C 
BRANCH  14  21
ATOM     21  C   UNL     1      -1.674  13.160  19.915  0.00  0.00    +0.000 C 
BRANCH  21  23
ATOM     22  C   UNL     1      -3.084  12.820  22.042  0.00  0.00    +0.000 C 
ATOM     23  C   UNL     1      -3.080  12.932  20.523  0.00  0.00    +0.000 C 
BRANCH  23  24
ATOM     24  O   UNL     1      -3.925  14.030  20.151  0.00  0.00    +0.000 OA
ATOM     25  H   UNL     1      -4.080  13.973  19.192  0.00  0.00    +0.000 HD
ENDBRANCH  23  24
ENDBRANCH  21  23
ENDBRANCH  14  21
ENDBRANCH   1  17
TORSDOF 5
ENDMDL
MODEL 7
REMARK VINA RESULT:      -5.9      1.027      1.290
REMARK  Name = 
REMARK  8 active torsions:
REMARK  status: ('A' for Active; 'I' for Inactive)
REMARK    1  A    between atoms: C_1  and  C_2
REMARK    2  A    between atoms: C_2  and  O_3
REMARK    3  A    between atoms: C_2  and  C_4
REMARK    4  A    between atoms: C_4  and  N_5
REMARK    5  A    between atoms: N_8  and  C_9
REMARK    6  A    between atoms: C_9  and  C_10
REMARK    7  A    between atoms: C_9  and  C_11
REMARK    8  A    between atoms: C_22  and  C_23
REMARK                            x       y       z     vdW  Elec       q    Type
REMARK                         _______ _______ _______ _____ _____    ______ ____
ROOT
ATOM      1  C   UNL     1       2.445   5.472  19.103  0.00  0.00    +0.000 C 
ATOM      2  C   UNL     1       2.445   4.086  19.769  0.00  0.00    +0.000 C 
ENDROOT
BRANCH   1   3
ATOM      3  C   UNL     1       1.714   6.389  20.111  0.00  0.00    +0.000 C 
ATOM      4  O   UNL     1       1.123   5.927  21.084  0.00  0.00    +0.000 OA
ATOM      5  N   UNL     1       1.822   7.736  19.809  0.00  0.00    +0.000 N 
ATOM      6  C   UNL     1       1.204   8.732  20.556  0.00  0.00    +0.000 A 
ATOM      7  C   UNL     1       1.257   8.743  21.946  0.00  0.00    +0.000 A 
ATOM      8  C   UNL     1       0.594   9.750  22.644  0.00  0.00    +0.000 A 
ATOM      9  C   UNL     1      -0.130  10.698  21.925  0.00  0.00    +0.000 A 
ATOM     10 CL   UNL     1      -1.022  11.917  22.735  0.00  0.00    +0.000 Cl
ATOM     11  C   UNL     1      -0.109  10.622  20.542  0.00  0.00    +0.000 A 
ATOM     12  N   UNL     1       0.577   9.688  19.841  0.00  0.00    +0.000 NA
ATOM     13  H   UNL     1       1.920   7.938  18.820  0.00  0.00    +0.000 HD
ENDBRANCH   1   3
BRANCH   1  17
ATOM     14  N   UNL     1       5.865   3.984  17.689  0.00  0.00    +0.000 NA
ATOM     15  C   UNL     1       5.440   4.002  19.105  0.00  0.00    +0.000 C 
ATOM     16  C   UNL     1       4.878   5.353  19.620  0.00  0.00    +0.000 C 
ATOM     17  N   UNL     1       3.813   5.984  18.805  0.00  0.00    +0.000 NA
ATOM     18  C   UNL     1       4.197   5.889  17.374  0.00  0.00    +0.000 C 
ATOM     19  C   UNL     1       4.769   4.538  16.845  0.00  0.00    +0.000 C 
ATOM     20  C   UNL     1       3.678   3.483  16.620  0.00  0.00    +0.000 C 
BRANCH  14  21
ATOM     21  C   UNL     1       7.114   4.746  17.454  0.00  0.00    +0.000 C 
BRANCH  21  23
ATOM     22  C   UNL     1       7.600   7.272  17.407  0.00  0.00    +0.000 C 
ATOM     23  C   UNL     1       7.017   6.076  16.668  0.00  0.00    +0.000 C 
BRANCH  23  24
ATOM     24  O   UNL     1       7.722   5.928  15.427  0.00  0.00    +0.000 OA
ATOM     25  H   UNL     1       7.844   6.816  15.048  0.00  0.00    +0.000 HD
ENDBRANCH  23  24
ENDBRANCH  21  23
ENDBRANCH  14  21
ENDBRANCH   1  17
TORSDOF 5
ENDMDL
MODEL 8
REMARK VINA RESULT:      -5.9      3.945      8.932
REMARK  Name = 
REMARK  8 active torsions:
REMARK  status: ('A' for Active; 'I' for Inactive)
REMARK    1  A    between atoms: C_1  and  C_2
REMARK    2  A    between atoms: C_2  and  O_3
REMARK    3  A    between atoms: C_2  and  C_4
REMARK    4  A    between atoms: C_4  and  N_5
REMARK    5  A    between atoms: N_8  and  C_9
REMARK    6  A    between atoms: C_9  and  C_10
REMARK    7  A    between atoms: C_9  and  C_11
REMARK    8  A    between atoms: C_22  and  C_23
REMARK                            x       y       z     vdW  Elec       q    Type
REMARK                         _______ _______ _______ _____ _____    ______ ____
ROOT
ATOM      1  C   UNL     1       1.197   9.387  20.864  0.00  0.00    +0.000 C 
ATOM      2  C   UNL     1       1.553   9.088  22.330  0.00  0.00    +0.000 C 
ENDROOT
BRANCH   1   3
ATOM      3  C   UNL     1       1.697   8.151  20.081  0.00  0.00    +0.000 C 
ATOM      4  O   UNL     1       2.074   8.241  18.916  0.00  0.00    +0.000 OA
ATOM      5  N   UNL     1       1.690   6.986  20.830  0.00  0.00    +0.000 N 
ATOM      6  C   UNL     1       2.056   5.749  20.311  0.00  0.00    +0.000 A 
ATOM      7  C   UNL     1       3.204   5.591  19.541  0.00  0.00    +0.000 A 
ATOM      8  C   UNL     1       3.506   4.333  19.022  0.00  0.00    +0.000 A 
ATOM      9  C   UNL     1       2.628   3.280  19.265  0.00  0.00    +0.000 A 
ATOM     10 CL   UNL     1       2.913   1.729  18.593  0.00  0.00    +0.000 Cl
ATOM     11  C   UNL     1       1.521   3.525  20.061  0.00  0.00    +0.000 A 
ATOM     12  N   UNL     1       1.239   4.724  20.625  0.00  0.00    +0.000 NA
ATOM     13  H   UNL     1       0.979   6.955  21.553  0.00  0.00    +0.000 HD
ENDBRANCH   1   3
BRANCH   1  17
ATOM     14  N   UNL     1      -1.217  12.513  20.303  0.00  0.00    +0.000 NA
ATOM     15  C   UNL     1      -0.819  11.939  21.607  0.00  0.00    +0.000 C 
ATOM     16  C   UNL     1      -0.913  10.395  21.718  0.00  0.00    +0.000 C 
ATOM     17  N   UNL     1      -0.260   9.610  20.644  0.00  0.00    +0.000 NA
ATOM     18  C   UNL     1      -0.587  10.237  19.337  0.00  0.00    +0.000 C 
ATOM     19  C   UNL     1      -0.502  11.789  19.215  0.00  0.00    +0.000 C 
ATOM     20  C   UNL     1       0.942  12.293  19.093  0.00  0.00    +0.000 C 
BRANCH  14  21
ATOM     21  C   UNL     1      -2.680  12.452  20.071  0.00  0.00    +0.000 C 
BRANCH  21  23
ATOM     22  C   UNL     1      -4.228  13.131  22.011  0.00  0.00    +0.000 C 
ATOM     23  C   UNL     1      -3.562  13.553  20.708  0.00  0.00    +0.000 C 
BRANCH  23  24
ATOM     24  O   UNL     1      -2.745  14.701  20.974  0.00  0.00    +0.000 OA
ATOM     25  H   UNL     1      -2.810  15.295  20.206  0.00  0.00    +0.000 HD
ENDBRANCH  23  24
ENDBRANCH  21  23
ENDBRANCH  14  21
ENDBRANCH   1  17
TORSDOF 5
ENDMDL
MODEL 9
REMARK VINA RESULT:      -5.9      4.614      9.240
REMARK  Name = 
REMARK  8 active torsions:
REMARK  status: ('A' for Active; 'I' for Inactive)
REMARK    1  A    between atoms: C_1  and  C_2
REMARK    2  A    between atoms: C_2  and  O_3
REMARK    3  A    between atoms: C_2  and  C_4
REMARK    4  A    between atoms: C_4  and  N_5
REMARK    5  A    between atoms: N_8  and  C_9
REMARK    6  A    between atoms: C_9  and  C_10
REMARK    7  A    between atoms: C_9  and  C_11
REMARK    8  A    between atoms: C_22  and  C_23
REMARK                            x       y       z     vdW  Elec       q    Type
REMARK                         _______ _______ _______ _____ _____    ______ ____
ROOT
ATOM      1  C   UNL     1       0.934  10.426  19.470  0.00  0.00    +0.000 C 
ATOM      2  C   UNL     1      -0.231   9.788  20.245  0.00  0.00    +0.000 C 
ENDROOT
BRANCH   1   3
ATOM      3  C   UNL     1       1.551   9.260  18.665  0.00  0.00    +0.000 C 
ATOM      4  O   UNL     1       1.627   9.298  17.439  0.00  0.00    +0.000 OA
ATOM      5  N   UNL     1       2.010   8.224  19.461  0.00  0.00    +0.000 N 
ATOM      6  C   UNL     1       2.560   7.056  18.944  0.00  0.00    +0.000 A 
ATOM      7  C   UNL     1       3.511   7.084  17.929  0.00  0.00    +0.000 A 
ATOM      8  C   UNL     1       4.006   5.881  17.428  0.00  0.00    +0.000 A 
ATOM      9  C   UNL     1       3.505   4.687  17.939  0.00  0.00    +0.000 A 
ATOM     10 CL   UNL     1       4.026   3.179  17.311  0.00  0.00    +0.000 Cl
ATOM     11  C   UNL     1       2.576   4.755  18.964  0.00  0.00    +0.000 A 
ATOM     12  N   UNL     1       2.125   5.911  19.507  0.00  0.00    +0.000 NA
ATOM     13  H   UNL     1       1.509   8.112  20.335  0.00  0.00    +0.000 HD
ENDBRANCH   1   3
BRANCH   1  17
ATOM     14  N   UNL     1       0.194  14.332  19.810  0.00  0.00    +0.000 NA
ATOM     15  C   UNL     1      -0.776  13.236  20.027  0.00  0.00    +0.000 C 
ATOM     16  C   UNL     1      -0.798  12.134  18.937  0.00  0.00    +0.000 C 
ATOM     17  N   UNL     1       0.507  11.535  18.569  0.00  0.00    +0.000 NA
ATOM     18  C   UNL     1       1.505  12.627  18.437  0.00  0.00    +0.000 C 
ATOM     19  C   UNL     1       1.533  13.745  19.524  0.00  0.00    +0.000 C 
ATOM     20  C   UNL     1       2.209  13.287  20.823  0.00  0.00    +0.000 C 
BRANCH  14  21
ATOM     21  C   UNL     1      -0.202  15.241  18.710  0.00  0.00    +0.000 C 
BRANCH  21  23
ATOM     22  C   UNL     1      -0.713  17.638  17.924  0.00  0.00    +0.000 C 
ATOM     23  C   UNL     1      -0.717  16.653  19.084  0.00  0.00    +0.000 C 
BRANCH  23  24
ATOM     24  O   UNL     1      -2.062  16.537  19.570  0.00  0.00    +0.000 OA
ATOM     25  H   UNL     1      -2.023  16.131  20.454  0.00  0.00    +0.000 HD
ENDBRANCH  23  24
ENDBRANCH  21  23
ENDBRANCH  14  21
ENDBRANCH   1  17
TORSDOF 5
ENDMDL
