MODEL 1
REMARK VINA RESULT:      -7.0      0.000      0.000
REMARK  Name = 
REMARK  3 active torsions:
REMARK  status: ('A' for Active; 'I' for Inactive)
REMARK    1  A    between atoms: C_1  and  C_2
REMARK    2  A    between atoms: C_4  and  C_5
REMARK    3  A    between atoms: N_18  and  C_19
REMARK                            x       y       z     vdW  Elec       q    Type
REMARK                         _______ _______ _______ _____ _____    ______ ____
ROOT
ATOM      1  C   UNL     1       3.635   1.716  17.543  0.00  0.00    +0.000 C 
ATOM      2  C   UNL     1       3.908   3.127  18.055  0.00  0.00    +0.000 C 
ATOM      3  N   UNL     1       3.491   4.052  17.274  0.00  0.00    +0.000 NA
ATOM      4  C   UNL     1       3.626   5.465  17.639  0.00  0.00    +0.000 C 
ATOM      5  C   UNL     1       5.090   5.864  17.747  0.00  0.00    +0.000 A 
ATOM      6  C   UNL     1       5.596   6.865  16.894  0.00  0.00    +0.000 A 
ATOM      7  C   UNL     1       6.917   7.294  16.997  0.00  0.00    +0.000 A 
ATOM      8  C   UNL     1       7.754   6.723  17.946  0.00  0.00    +0.000 A 
ATOM      9  C   UNL     1       7.271   5.718  18.786  0.00  0.00    +0.000 A 
ATOM     10  C   UNL     1       5.940   5.264  18.693  0.00  0.00    +0.000 A 
ATOM     11  C   UNL     1       5.434   4.280  19.723  0.00  0.00    +0.000 C 
ATOM     12  N   UNL     1       4.529   3.219  19.289  0.00  0.00    +0.000 N 
ATOM     13  C   UNL     1       4.105   2.327  20.365  0.00  0.00    +0.000 C 
ENDROOT
BRANCH   4  14
ATOM     14  C   UNL     1       2.709   5.943  18.772  0.00  0.00    +0.000 A 
ATOM     15  C   UNL     1       2.014   5.040  19.599  0.00  0.00    +0.000 A 
ATOM     16  C   UNL     1       1.236   5.490  20.666  0.00  0.00    +0.000 A 
ATOM     17  C   UNL     1       1.159   6.853  20.945  0.00  0.00    +0.000 A 
ATOM     18  C   UNL     1       1.859   7.763  20.157  0.00  0.00    +0.000 A 
ATOM     19  C   UNL     1       2.631   7.310  19.084  0.00  0.00    +0.000 A 
ENDBRANCH   4  14
TORSDOF 1
ENDMDL
MODEL 2
REMARK VINA RESULT:      -6.9      1.743      4.382
REMARK  Name = 
REMARK  3 active torsions:
REMARK  status: ('A' for Active; 'I' for Inactive)
REMARK    1  A    between atoms: C_1  and  C_2
REMARK    2  A    between atoms: C_4  and  C_5
REMARK    3  A    between atoms: N_18  and  C_19
REMARK                            x       y       z     vdW  Elec       q    Type
REMARK                         _______ _______ _______ _____ _____    ______ ____
ROOT
ATOM      1  C   UNL     1       7.145   4.605  17.829  0.00  0.00    +0.000 C 
ATOM      2  C   UNL     1       5.647   4.776  18.062  0.00  0.00    +0.000 C 
ATOM      3  N   UNL     1       5.346   5.134  19.255  0.00  0.00    +0.000 NA
ATOM      4  C   UNL     1       3.955   5.394  19.635  0.00  0.00    +0.000 C 
ATOM      5  C   UNL     1       3.114   4.131  19.529  0.00  0.00    +0.000 A 
ATOM      6  C   UNL     1       2.492   3.619  20.684  0.00  0.00    +0.000 A 
ATOM      7  C   UNL     1       1.672   2.494  20.619  0.00  0.00    +0.000 A 
ATOM      8  C   UNL     1       1.470   1.860  19.400  0.00  0.00    +0.000 A 
ATOM      9  C   UNL     1       2.095   2.347  18.250  0.00  0.00    +0.000 A 
ATOM     10  C   UNL     1       2.933   3.479  18.296  0.00  0.00    +0.000 A 
ATOM     11  C   UNL     1       3.463   4.044  16.998  0.00  0.00    +0.000 C 
ATOM     12  N   UNL     1       4.829   4.558  16.967  0.00  0.00    +0.000 N 
ATOM     13  C   UNL     1       5.235   5.079  15.664  0.00  0.00    +0.000 C 
ENDROOT
BRANCH   4  14
ATOM     14  C   UNL     1       3.338   6.669  19.045  0.00  0.00    +0.000 A 
ATOM     15  C   UNL     1       3.780   7.214  17.825  0.00  0.00    +0.000 A 
ATOM     16  C   UNL     1       3.164   8.337  17.271  0.00  0.00    +0.000 A 
ATOM     17  C   UNL     1       2.074   8.922  17.913  0.00  0.00    +0.000 A 
ATOM     18  C   UNL     1       1.604   8.384  19.108  0.00  0.00    +0.000 A 
ATOM     19  C   UNL     1       2.227   7.265  19.665  0.00  0.00    +0.000 A 
ENDBRANCH   4  14
TORSDOF 1
ENDMDL
MODEL 3
REMARK VINA RESULT:      -6.9      1.758      4.356
REMARK  Name = 
REMARK  3 active torsions:
REMARK  status: ('A' for Active; 'I' for Inactive)
REMARK    1  A    between atoms: C_1  and  C_2
REMARK    2  A    between atoms: C_4  and  C_5
REMARK    3  A    between atoms: N_18  and  C_19
REMARK                            x       y       z     vdW  Elec       q    Type
REMARK                         _______ _______ _______ _____ _____    ______ ____
ROOT
ATOM      1  C   UNL     1       7.117   4.523  17.810  0.00  0.00    +0.000 C 
ATOM      2  C   UNL     1       5.620   4.691  18.048  0.00  0.00    +0.000 C 
ATOM      3  N   UNL     1       5.325   5.104  19.224  0.00  0.00    +0.000 NA
ATOM      4  C   UNL     1       3.934   5.368  19.603  0.00  0.00    +0.000 C 
ATOM      5  C   UNL     1       3.106   4.093  19.567  0.00  0.00    +0.000 A 
ATOM      6  C   UNL     1       2.499   3.632  20.752  0.00  0.00    +0.000 A 
ATOM      7  C   UNL     1       1.691   2.497  20.749  0.00  0.00    +0.000 A 
ATOM      8  C   UNL     1       1.486   1.802  19.565  0.00  0.00    +0.000 A 
ATOM      9  C   UNL     1       2.095   2.237  18.387  0.00  0.00    +0.000 A 
ATOM     10  C   UNL     1       2.922   3.379  18.370  0.00  0.00    +0.000 A 
ATOM     11  C   UNL     1       3.434   3.885  17.041  0.00  0.00    +0.000 C 
ATOM     12  N   UNL     1       4.795   4.411  16.973  0.00  0.00    +0.000 N 
ATOM     13  C   UNL     1       5.184   4.871  15.642  0.00  0.00    +0.000 C 
ENDROOT
BRANCH   4  14
ATOM     14  C   UNL     1       3.299   6.606  18.957  0.00  0.00    +0.000 A 
ATOM     15  C   UNL     1       2.184   7.251  19.523  0.00  0.00    +0.000 A 
ATOM     16  C   UNL     1       1.659   8.415  18.959  0.00  0.00    +0.000 A 
ATOM     17  C   UNL     1       2.259   8.972  17.830  0.00  0.00    +0.000 A 
ATOM     18  C   UNL     1       3.378   8.365  17.269  0.00  0.00    +0.000 A 
ATOM     19  C   UNL     1       3.896   7.197  17.832  0.00  0.00    +0.000 A 
ENDBRANCH   4  14
TORSDOF 1
ENDMDL
MODEL 4
REMARK VINA RESULT:      -6.7      1.250      1.677
REMARK  Name = 
REMARK  3 active torsions:
REMARK  status: ('A' for Active; 'I' for Inactive)
REMARK    1  A    between atoms: C_1  and  C_2
REMARK    2  A    between atoms: C_4  and  C_5
REMARK    3  A    between atoms: N_18  and  C_19
REMARK                            x       y       z     vdW  Elec       q    Type
REMARK                         _______ _______ _______ _____ _____    ______ ____
ROOT
ATOM      1  C   UNL     1       2.517   1.377  18.560  0.00  0.00    +0.000 C 
ATOM      2  C   UNL     1       3.152   2.761  18.474  0.00  0.00    +0.000 C 
ATOM      3  N   UNL     1       2.683   3.489  17.530  0.00  0.00    +0.000 NA
ATOM      4  C   UNL     1       3.145   4.866  17.339  0.00  0.00    +0.000 C 
ATOM      5  C   UNL     1       4.621   4.902  16.977  0.00  0.00    +0.000 A 
ATOM      6  C   UNL     1       5.015   5.449  15.740  0.00  0.00    +0.000 A 
ATOM      7  C   UNL     1       6.360   5.547  15.394  0.00  0.00    +0.000 A 
ATOM      8  C   UNL     1       7.332   5.091  16.275  0.00  0.00    +0.000 A 
ATOM      9  C   UNL     1       6.956   4.530  17.496  0.00  0.00    +0.000 A 
ATOM     10  C   UNL     1       5.600   4.416  17.863  0.00  0.00    +0.000 A 
ATOM     11  C   UNL     1       5.261   3.936  19.255  0.00  0.00    +0.000 C 
ATOM     12  N   UNL     1       4.110   3.055  19.429  0.00  0.00    +0.000 N 
ATOM     13  C   UNL     1       3.876   2.654  20.814  0.00  0.00    +0.000 C 
ENDROOT
BRANCH   4  14
ATOM     14  C   UNL     1       2.685   5.869  18.405  0.00  0.00    +0.000 A 
ATOM     15  C   UNL     1       2.729   7.259  18.188  0.00  0.00    +0.000 A 
ATOM     16  C   UNL     1       2.245   8.155  19.142  0.00  0.00    +0.000 A 
ATOM     17  C   UNL     1       1.681   7.676  20.324  0.00  0.00    +0.000 A 
ATOM     18  C   UNL     1       1.604   6.304  20.549  0.00  0.00    +0.000 A 
ATOM     19  C   UNL     1       2.096   5.410  19.595  0.00  0.00    +0.000 A 
ENDBRANCH   4  14
TORSDOF 1
ENDMDL
MODEL 5
REMARK VINA RESULT:      -6.7      0.333      1.153
REMARK  Name = 
REMARK  3 active torsions:
REMARK  status: ('A' for Active; 'I' for Inactive)
REMARK    1  A    between atoms: C_1  and  C_2
REMARK    2  A    between atoms: C_4  and  C_5
REMARK    3  A    between atoms: N_18  and  C_19
REMARK                            x       y       z     vdW  Elec       q    Type
REMARK                         _______ _______ _______ _____ _____    ______ ____
ROOT
ATOM      1  C   UNL     1       3.168   1.763  17.809  0.00  0.00    +0.000 C 
ATOM      2  C   UNL     1       3.582   3.175  18.211  0.00  0.00    +0.000 C 
ATOM      3  N   UNL     1       3.139   4.088  17.429  0.00  0.00    +0.000 NA
ATOM      4  C   UNL     1       3.400   5.504  17.700  0.00  0.00    +0.000 C 
ATOM      5  C   UNL     1       4.888   5.809  17.627  0.00  0.00    +0.000 A 
ATOM      6  C   UNL     1       5.357   6.732  16.672  0.00  0.00    +0.000 A 
ATOM      7  C   UNL     1       6.705   7.077  16.608  0.00  0.00    +0.000 A 
ATOM      8  C   UNL     1       7.605   6.497  17.491  0.00  0.00    +0.000 A 
ATOM      9  C   UNL     1       7.158   5.567  18.431  0.00  0.00    +0.000 A 
ATOM     10  C   UNL     1       5.799   5.200  18.508  0.00  0.00    +0.000 A 
ATOM     11  C   UNL     1       5.352   4.302  19.638  0.00  0.00    +0.000 C 
ATOM     12  N   UNL     1       4.341   3.285  19.363  0.00  0.00    +0.000 N 
ATOM     13  C   UNL     1       3.985   2.475  20.526  0.00  0.00    +0.000 C 
ENDROOT
BRANCH   4  14
ATOM     14  C   UNL     1       2.645   6.096  18.897  0.00  0.00    +0.000 A 
ATOM     15  C   UNL     1       2.541   7.485  19.099  0.00  0.00    +0.000 A 
ATOM     16  C   UNL     1       1.796   8.008  20.156  0.00  0.00    +0.000 A 
ATOM     17  C   UNL     1       1.115   7.150  21.019  0.00  0.00    +0.000 A 
ATOM     18  C   UNL     1       1.183   5.774  20.824  0.00  0.00    +0.000 A 
ATOM     19  C   UNL     1       1.937   5.253  19.769  0.00  0.00    +0.000 A 
ENDBRANCH   4  14
TORSDOF 1
ENDMDL
MODEL 6
REMARK VINA RESULT:      -6.5      1.311      1.391
REMARK  Name = 
REMARK  3 active torsions:
REMARK  status: ('A' for Active; 'I' for Inactive)
REMARK    1  A    between atoms: C_1  and  C_2
REMARK    2  A    between atoms: C_4  and  C_5
REMARK    3  A    between atoms: N_18  and  C_19
REMARK                            x       y       z     vdW  Elec       q    Type
REMARK                         _______ _______ _______ _____ _____    ______ ____
ROOT
ATOM      1  C   UNL     1       1.859   1.647  18.634  0.00  0.00    +0.000 C 
ATOM      2  C   UNL     1       2.605   2.978  18.629  0.00  0.00    +0.000 C 
ATOM      3  N   UNL     1       2.320   3.729  17.631  0.00  0.00    +0.000 NA
ATOM      4  C   UNL     1       2.909   5.064  17.500  0.00  0.00    +0.000 C 
ATOM      5  C   UNL     1       4.418   4.982  17.333  0.00  0.00    +0.000 A 
ATOM      6  C   UNL     1       5.009   5.483  16.156  0.00  0.00    +0.000 A 
ATOM      7  C   UNL     1       6.392   5.473  15.987  0.00  0.00    +0.000 A 
ATOM      8  C   UNL     1       7.203   4.953  16.987  0.00  0.00    +0.000 A 
ATOM      9  C   UNL     1       6.630   4.438  18.151  0.00  0.00    +0.000 A 
ATOM     10  C   UNL     1       5.233   4.432  18.338  0.00  0.00    +0.000 A 
ATOM     11  C   UNL     1       4.681   3.996  19.676  0.00  0.00    +0.000 C 
ATOM     12  N   UNL     1       3.451   3.208  19.700  0.00  0.00    +0.000 N 
ATOM     13  C   UNL     1       3.010   2.842  21.044  0.00  0.00    +0.000 C 
ENDROOT
BRANCH   4  14
ATOM     14  C   UNL     1       2.394   6.111  18.496  0.00  0.00    +0.000 A 
ATOM     15  C   UNL     1       2.015   5.769  19.808  0.00  0.00    +0.000 A 
ATOM     16  C   UNL     1       1.612   6.743  20.721  0.00  0.00    +0.000 A 
ATOM     17  C   UNL     1       1.606   8.087  20.348  0.00  0.00    +0.000 A 
ATOM     18  C   UNL     1       2.000   8.451  19.064  0.00  0.00    +0.000 A 
ATOM     19  C   UNL     1       2.396   7.472  18.150  0.00  0.00    +0.000 A 
ENDBRANCH   4  14
TORSDOF 1
ENDMDL
MODEL 7
REMARK VINA RESULT:      -6.4      1.436      1.745
REMARK  Name = 
REMARK  3 active torsions:
REMARK  status: ('A' for Active; 'I' for Inactive)
REMARK    1  A    between atoms: C_1  and  C_2
REMARK    2  A    between atoms: C_4  and  C_5
REMARK    3  A    between atoms: N_18  and  C_19
REMARK                            x       y       z     vdW  Elec       q    Type
REMARK                         _______ _______ _______ _____ _____    ______ ____
ROOT
ATOM      1  C   UNL     1       1.524   2.725  18.519  0.00  0.00    +0.000 C 
ATOM      2  C   UNL     1       2.317   4.020  18.662  0.00  0.00    +0.000 C 
ATOM      3  N   UNL     1       2.287   4.765  17.620  0.00  0.00    +0.000 NA
ATOM      4  C   UNL     1       2.953   6.070  17.606  0.00  0.00    +0.000 C 
ATOM      5  C   UNL     1       4.458   5.917  17.765  0.00  0.00    +0.000 A 
ATOM      6  C   UNL     1       5.309   6.369  16.738  0.00  0.00    +0.000 A 
ATOM      7  C   UNL     1       6.694   6.294  16.868  0.00  0.00    +0.000 A 
ATOM      8  C   UNL     1       7.248   5.757  18.022  0.00  0.00    +0.000 A 
ATOM      9  C   UNL     1       6.416   5.289  19.041  0.00  0.00    +0.000 A 
ATOM     10  C   UNL     1       5.013   5.350  18.926  0.00  0.00    +0.000 A 
ATOM     11  C   UNL     1       4.169   4.963  20.119  0.00  0.00    +0.000 C 
ATOM     12  N   UNL     1       2.927   4.232  19.886  0.00  0.00    +0.000 N 
ATOM     13  C   UNL     1       2.193   3.911  21.108  0.00  0.00    +0.000 C 
ENDROOT
BRANCH   4  14
ATOM     14  C   UNL     1       2.289   7.157  18.461  0.00  0.00    +0.000 A 
ATOM     15  C   UNL     1       2.095   7.001  19.846  0.00  0.00    +0.000 A 
ATOM     16  C   UNL     1       1.550   8.026  20.619  0.00  0.00    +0.000 A 
ATOM     17  C   UNL     1       1.212   9.241  20.026  0.00  0.00    +0.000 A 
ATOM     18  C   UNL     1       1.418   9.428  18.662  0.00  0.00    +0.000 A 
ATOM     19  C   UNL     1       1.958   8.396  17.889  0.00  0.00    +0.000 A 
ENDBRANCH   4  14
TORSDOF 1
ENDMDL
MODEL 8
REMARK VINA RESULT:      -6.3      1.464      1.903
REMARK  Name = 
REMARK  3 active torsions:
REMARK  status: ('A' for Active; 'I' for Inactive)
REMARK    1  A    between atoms: C_1  and  C_2
REMARK    2  A    between atoms: C_4  and  C_5
REMARK    3  A    between atoms: N_18  and  C_19
REMARK                            x       y       z     vdW  Elec       q    Type
REMARK                         _______ _______ _______ _____ _____    ______ ____
ROOT
ATOM      1  C   UNL     1       1.378   2.330  18.723  0.00  0.00    +0.000 C 
ATOM      2  C   UNL     1       2.255   3.577  18.727  0.00  0.00    +0.000 C 
ATOM      3  N   UNL     1       2.088   4.332  17.705  0.00  0.00    +0.000 NA
ATOM      4  C   UNL     1       2.815   5.598  17.577  0.00  0.00    +0.000 C 
ATOM      5  C   UNL     1       4.313   5.360  17.473  0.00  0.00    +0.000 A 
ATOM      6  C   UNL     1       4.998   5.775  16.314  0.00  0.00    +0.000 A 
ATOM      7  C   UNL     1       6.378   5.621  16.203  0.00  0.00    +0.000 A 
ATOM      8  C   UNL     1       7.092   5.043  17.245  0.00  0.00    +0.000 A 
ATOM      9  C   UNL     1       6.424   4.612  18.392  0.00  0.00    +0.000 A 
ATOM     10  C   UNL     1       5.027   4.752  18.521  0.00  0.00    +0.000 A 
ATOM     11  C   UNL     1       4.381   4.402  19.842  0.00  0.00    +0.000 C 
ATOM     12  N   UNL     1       3.078   3.743  19.828  0.00  0.00    +0.000 N 
ATOM     13  C   UNL     1       2.548   3.452  21.158  0.00  0.00    +0.000 C 
ENDROOT
BRANCH   4  14
ATOM     14  C   UNL     1       2.370   6.713  18.533  0.00  0.00    +0.000 A 
ATOM     15  C   UNL     1       2.202   8.042  18.100  0.00  0.00    +0.000 A 
ATOM     16  C   UNL     1       1.734   9.030  18.967  0.00  0.00    +0.000 A 
ATOM     17  C   UNL     1       1.398   8.702  20.280  0.00  0.00    +0.000 A 
ATOM     18  C   UNL     1       1.532   7.389  20.722  0.00  0.00    +0.000 A 
ATOM     19  C   UNL     1       2.008   6.404  19.854  0.00  0.00    +0.000 A 
ENDBRANCH   4  14
TORSDOF 1
ENDMDL
MODEL 9
REMARK VINA RESULT:      -6.2      5.290      7.503
REMARK  Name = 
REMARK  3 active torsions:
REMARK  status: ('A' for Active; 'I' for Inactive)
REMARK    1  A    between atoms: C_1  and  C_2
REMARK    2  A    between atoms: C_4  and  C_5
REMARK    3  A    between atoms: N_18  and  C_19
REMARK                            x       y       z     vdW  Elec       q    Type
REMARK                         _______ _______ _______ _____ _____    ______ ____
ROOT
ATOM      1  C   UNL     1       1.474   7.843  20.984  0.00  0.00    +0.000 C 
ATOM      2  C   UNL     1       0.982   9.187  20.455  0.00  0.00    +0.000 C 
ATOM      3  N   UNL     1       1.162   9.346  19.197  0.00  0.00    +0.000 NA
ATOM      4  C   UNL     1       0.700  10.560  18.517  0.00  0.00    +0.000 C 
ATOM      5  C   UNL     1       1.432  11.788  19.035  0.00  0.00    +0.000 A 
ATOM      6  C   UNL     1       2.212  12.551  18.144  0.00  0.00    +0.000 A 
ATOM      7  C   UNL     1       2.855  13.712  18.568  0.00  0.00    +0.000 A 
ATOM      8  C   UNL     1       2.736  14.121  19.890  0.00  0.00    +0.000 A 
ATOM      9  C   UNL     1       1.981  13.365  20.787  0.00  0.00    +0.000 A 
ATOM     10  C   UNL     1       1.327  12.184  20.380  0.00  0.00    +0.000 A 
ATOM     11  C   UNL     1       0.408  11.489  21.357  0.00  0.00    +0.000 C 
ATOM     12  N   UNL     1       0.390  10.029  21.381  0.00  0.00    +0.000 N 
ATOM     13  C   UNL     1      -0.534   9.465  22.362  0.00  0.00    +0.000 C 
ENDROOT
BRANCH   4  14
ATOM     14  C   UNL     1      -0.821  10.691  18.366  0.00  0.00    +0.000 A 
ATOM     15  C   UNL     1      -1.514  11.843  18.783  0.00  0.00    +0.000 A 
ATOM     16  C   UNL     1      -2.888  11.974  18.578  0.00  0.00    +0.000 A 
ATOM     17  C   UNL     1      -3.593  10.964  17.925  0.00  0.00    +0.000 A 
ATOM     18  C   UNL     1      -2.924   9.827  17.481  0.00  0.00    +0.000 A 
ATOM     19  C   UNL     1      -1.550   9.696  17.695  0.00  0.00    +0.000 A 
ENDBRANCH   4  14
TORSDOF 1
ENDMDL
