MODEL 1
REMARK VINA RESULT:      -7.5      0.000      0.000
REMARK  Name = 
REMARK  8 active torsions:
REMARK  status: ('A' for Active; 'I' for Inactive)
REMARK    1  A    between atoms: C_1  and  N_2
REMARK    2  A    between atoms: N_2  and  C_3
REMARK    3  A    between atoms: C_3  and  C_4
REMARK    4  A    between atoms: C_4  and  O_5
REMARK    5  A    between atoms: O_5  and  C_6
REMARK    6  A    between atoms: C_12  and  C_14
REMARK    7  A    between atoms: C_16  and  S_17
REMARK    8  A    between atoms: S_17  and  N_20
REMARK                            x       y       z     vdW  Elec       q    Type
REMARK                         _______ _______ _______ _____ _____    ______ ____
ROOT
ATOM      1  C   UNL     1       4.291   6.679  17.737  0.00  0.00    +0.000 A 
ATOM      2  C   UNL     1       3.284   7.608  17.440  0.00  0.00    +0.000 A 
ATOM      3  C   UNL     1       2.288   7.930  18.367  0.00  0.00    +0.000 A 
ATOM      4  C   UNL     1       2.211   7.204  19.547  0.00  0.00    +0.000 A 
ATOM      5  C   UNL     1       3.194   6.264  19.853  0.00  0.00    +0.000 A 
ATOM      6  C   UNL     1       4.273   6.049  18.987  0.00  0.00    +0.000 A 
ATOM      7 CL   UNL     1       5.613   5.165  19.624  0.00  0.00    +0.000 Cl
ENDROOT
BRANCH   1  10
ATOM      8  C   UNL     1       6.389   4.939  15.096  0.00  0.00    +0.000 C 
ATOM      9  N   UNL     1       5.315   5.104  16.070  0.00  0.00    +0.000 N 
ATOM     10  C   UNL     1       5.331   6.351  16.722  0.00  0.00    +0.000 C 
ATOM     11  O   UNL     1       6.209   7.180  16.508  0.00  0.00    +0.000 OA
BRANCH   9  12
ATOM     12  C   UNL     1       4.184   4.153  16.100  0.00  0.00    +0.000 C 
BRANCH  12  13
ATOM     13  C   UNL     1       4.177   3.090  17.186  0.00  0.00    +0.000 C 
BRANCH  13  14
ATOM     14  O   UNL     1       2.825   2.655  17.401  0.00  0.00    +0.000 OA
BRANCH  14  15
ATOM     15  C   UNL     1       2.369   2.819  18.676  0.00  0.00    +0.000 A 
ATOM     16  C   UNL     1       3.265   2.499  19.699  0.00  0.00    +0.000 A 
ATOM     17  C   UNL     1       2.889   2.667  21.033  0.00  0.00    +0.000 A 
ATOM     18  C   UNL     1       1.626   3.173  21.339  0.00  0.00    +0.000 A 
ATOM     19  C   UNL     1       0.736   3.498  20.317  0.00  0.00    +0.000 A 
ATOM     20  C   UNL     1       1.107   3.317  18.987  0.00  0.00    +0.000 A 
ENDBRANCH  14  15
ENDBRANCH  13  14
ENDBRANCH  12  13
ENDBRANCH   9  12
ENDBRANCH   1  10
BRANCH   3  21
ATOM     21  S   UNL     1       1.387   9.465  18.143  0.00  0.00    +0.000 S 
ATOM     22  O   UNL     1       2.334  10.404  17.557  0.00  0.00    +0.000 OA
ATOM     23  O   UNL     1       0.154   9.135  17.473  0.00  0.00    +0.000 OA
BRANCH  21  24
ATOM     24  N   UNL     1       1.021  10.002  19.722  0.00  0.00    +0.000 NA
ATOM     25  C   UNL     1       1.012  11.475  19.901  0.00  0.00    +0.000 C 
ATOM     26  C   UNL     1       0.768  11.895  21.342  0.00  0.00    +0.000 C 
ATOM     27  C   UNL     1      -0.430  11.180  21.942  0.00  0.00    +0.000 C 
ATOM     28  C   UNL     1      -0.201   9.679  21.883  0.00  0.00    +0.000 C 
ATOM     29  C   UNL     1       0.009   9.202  20.453  0.00  0.00    +0.000 C 
ENDBRANCH  21  24
ENDBRANCH   3  21
TORSDOF 7
ENDMDL
MODEL 2
REMARK VINA RESULT:      -7.1      2.643      4.765
REMARK  Name = 
REMARK  8 active torsions:
REMARK  status: ('A' for Active; 'I' for Inactive)
REMARK    1  A    between atoms: C_1  and  N_2
REMARK    2  A    between atoms: N_2  and  C_3
REMARK    3  A    between atoms: C_3  and  C_4
REMARK    4  A    between atoms: C_4  and  O_5
REMARK    5  A    between atoms: O_5  and  C_6
REMARK    6  A    between atoms: C_12  and  C_14
REMARK    7  A    between atoms: C_16  and  S_17
REMARK    8  A    between atoms: S_17  and  N_20
REMARK                            x       y       z     vdW  Elec       q    Type
REMARK                         _______ _______ _______ _____ _____    ______ ____
ROOT
ATOM      1  C   UNL     1       1.857   5.612  19.830  0.00  0.00    +0.000 A 
ATOM      2  C   UNL     1       1.592   6.698  20.676  0.00  0.00    +0.000 A 
ATOM      3  C   UNL     1       1.649   8.017  20.215  0.00  0.00    +0.000 A 
ATOM      4  C   UNL     1       2.123   8.258  18.934  0.00  0.00    +0.000 A 
ATOM      5  C   UNL     1       2.408   7.191  18.083  0.00  0.00    +0.000 A 
ATOM      6  C   UNL     1       2.208   5.870  18.501  0.00  0.00    +0.000 A 
ATOM      7 CL   UNL     1       2.219   4.658  17.269  0.00  0.00    +0.000 Cl
ENDROOT
BRANCH   1  10
ATOM      8  C   UNL     1       2.747   2.104  20.974  0.00  0.00    +0.000 C 
ATOM      9  N   UNL     1       2.965   3.438  20.424  0.00  0.00    +0.000 N 
ATOM     10  C   UNL     1       1.797   4.220  20.358  0.00  0.00    +0.000 C 
ATOM     11  O   UNL     1       0.704   3.776  20.690  0.00  0.00    +0.000 OA
BRANCH   9  12
ATOM     12  C   UNL     1       4.339   3.961  20.261  0.00  0.00    +0.000 C 
BRANCH  12  13
ATOM     13  C   UNL     1       5.025   3.752  18.922  0.00  0.00    +0.000 C 
BRANCH  13  14
ATOM     14  O   UNL     1       6.392   4.179  19.029  0.00  0.00    +0.000 OA
BRANCH  14  15
ATOM     15  C   UNL     1       6.648   5.412  18.504  0.00  0.00    +0.000 A 
ATOM     16  C   UNL     1       7.814   6.042  18.948  0.00  0.00    +0.000 A 
ATOM     17  C   UNL     1       8.166   7.294  18.439  0.00  0.00    +0.000 A 
ATOM     18  C   UNL     1       7.363   7.902  17.474  0.00  0.00    +0.000 A 
ATOM     19  C   UNL     1       6.204   7.269  17.028  0.00  0.00    +0.000 A 
ATOM     20  C   UNL     1       5.846   6.027  17.546  0.00  0.00    +0.000 A 
ENDBRANCH  14  15
ENDBRANCH  13  14
ENDBRANCH  12  13
ENDBRANCH   9  12
ENDBRANCH   1  10
BRANCH   3  21
ATOM     21  S   UNL     1       0.800   9.283  21.161  0.00  0.00    +0.000 S 
ATOM     22  O   UNL     1      -0.476   8.700  21.555  0.00  0.00    +0.000 OA
ATOM     23  O   UNL     1       1.733   9.768  22.147  0.00  0.00    +0.000 OA
BRANCH  21  24
ATOM     24  N   UNL     1       0.485  10.537  20.046  0.00  0.00    +0.000 NA
ATOM     25  C   UNL     1      -0.880  10.536  19.465  0.00  0.00    +0.000 C 
ATOM     26  C   UNL     1      -1.078  11.618  18.416  0.00  0.00    +0.000 C 
ATOM     27  C   UNL     1      -0.604  12.974  18.909  0.00  0.00    +0.000 C 
ATOM     28  C   UNL     1       0.867  12.889  19.278  0.00  0.00    +0.000 C 
ATOM     29  C   UNL     1       1.112  11.844  20.358  0.00  0.00    +0.000 C 
ENDBRANCH  21  24
ENDBRANCH   3  21
TORSDOF 7
ENDMDL
MODEL 3
REMARK VINA RESULT:      -7.1      2.557      6.791
REMARK  Name = 
REMARK  8 active torsions:
REMARK  status: ('A' for Active; 'I' for Inactive)
REMARK    1  A    between atoms: C_1  and  N_2
REMARK    2  A    between atoms: N_2  and  C_3
REMARK    3  A    between atoms: C_3  and  C_4
REMARK    4  A    between atoms: C_4  and  O_5
REMARK    5  A    between atoms: O_5  and  C_6
REMARK    6  A    between atoms: C_12  and  C_14
REMARK    7  A    between atoms: C_16  and  S_17
REMARK    8  A    between atoms: S_17  and  N_20
REMARK                            x       y       z     vdW  Elec       q    Type
REMARK                         _______ _______ _______ _____ _____    ______ ____
ROOT
ATOM      1  C   UNL     1       3.451   6.361  17.583  0.00  0.00    +0.000 A 
ATOM      2  C   UNL     1       4.837   6.376  17.370  0.00  0.00    +0.000 A 
ATOM      3  C   UNL     1       5.537   5.218  17.019  0.00  0.00    +0.000 A 
ATOM      4  C   UNL     1       4.869   4.003  17.029  0.00  0.00    +0.000 A 
ATOM      5  C   UNL     1       3.493   3.965  17.255  0.00  0.00    +0.000 A 
ATOM      6  C   UNL     1       2.769   5.145  17.461  0.00  0.00    +0.000 A 
ATOM      7 CL   UNL     1       1.049   5.028  17.347  0.00  0.00    +0.000 Cl
ENDROOT
BRANCH   1  10
ATOM      8  C   UNL     1       1.545   9.035  19.485  0.00  0.00    +0.000 C 
ATOM      9  N   UNL     1       2.200   7.752  19.259  0.00  0.00    +0.000 N 
ATOM     10  C   UNL     1       2.737   7.611  17.966  0.00  0.00    +0.000 C 
ATOM     11  O   UNL     1       2.605   8.483  17.114  0.00  0.00    +0.000 OA
BRANCH   9  12
ATOM     12  C   UNL     1       2.506   6.861  20.399  0.00  0.00    +0.000 C 
BRANCH  12  13
ATOM     13  C   UNL     1       1.393   5.969  20.924  0.00  0.00    +0.000 C 
BRANCH  13  14
ATOM     14  O   UNL     1       1.975   4.788  21.497  0.00  0.00    +0.000 OA
BRANCH  14  15
ATOM     15  C   UNL     1       1.980   3.698  20.677  0.00  0.00    +0.000 A 
ATOM     16  C   UNL     1       3.199   3.029  20.548  0.00  0.00    +0.000 A 
ATOM     17  C   UNL     1       3.285   1.885  19.751  0.00  0.00    +0.000 A 
ATOM     18  C   UNL     1       2.148   1.404  19.103  0.00  0.00    +0.000 A 
ATOM     19  C   UNL     1       0.931   2.069  19.239  0.00  0.00    +0.000 A 
ATOM     20  C   UNL     1       0.849   3.218  20.022  0.00  0.00    +0.000 A 
ENDBRANCH  14  15
ENDBRANCH  13  14
ENDBRANCH  12  13
ENDBRANCH   9  12
ENDBRANCH   1  10
BRANCH   3  21
ATOM     21  S   UNL     1       7.150   5.403  16.255  0.00  0.00    +0.000 S 
ATOM     22  O   UNL     1       7.503   6.808  16.400  0.00  0.00    +0.000 OA
ATOM     23  O   UNL     1       7.991   4.363  16.793  0.00  0.00    +0.000 OA
BRANCH  21  24
ATOM     24  N   UNL     1       6.895   5.092  14.595  0.00  0.00    +0.000 NA
ATOM     25  C   UNL     1       7.985   5.540  13.695  0.00  0.00    +0.000 C 
ATOM     26  C   UNL     1       7.668   5.318  12.225  0.00  0.00    +0.000 C 
ATOM     27  C   UNL     1       7.174   3.907  11.962  0.00  0.00    +0.000 C 
ATOM     28  C   UNL     1       5.930   3.647  12.793  0.00  0.00    +0.000 C 
ATOM     29  C   UNL     1       6.206   3.816  14.281  0.00  0.00    +0.000 C 
ENDBRANCH  21  24
ENDBRANCH   3  21
TORSDOF 7
ENDMDL
MODEL 4
REMARK VINA RESULT:      -7.0      0.613      1.219
REMARK  Name = 
REMARK  8 active torsions:
REMARK  status: ('A' for Active; 'I' for Inactive)
REMARK    1  A    between atoms: C_1  and  N_2
REMARK    2  A    between atoms: N_2  and  C_3
REMARK    3  A    between atoms: C_3  and  C_4
REMARK    4  A    between atoms: C_4  and  O_5
REMARK    5  A    between atoms: O_5  and  C_6
REMARK    6  A    between atoms: C_12  and  C_14
REMARK    7  A    between atoms: C_16  and  S_17
REMARK    8  A    between atoms: S_17  and  N_20
REMARK                            x       y       z     vdW  Elec       q    Type
REMARK                         _______ _______ _______ _____ _____    ______ ____
ROOT
ATOM      1  C   UNL     1       4.263   6.643  17.757  0.00  0.00    +0.000 A 
ATOM      2  C   UNL     1       3.243   7.575  17.514  0.00  0.00    +0.000 A 
ATOM      3  C   UNL     1       2.265   7.857  18.472  0.00  0.00    +0.000 A 
ATOM      4  C   UNL     1       2.218   7.089  19.627  0.00  0.00    +0.000 A 
ATOM      5  C   UNL     1       3.213   6.146  19.878  0.00  0.00    +0.000 A 
ATOM      6  C   UNL     1       4.275   5.969  18.983  0.00  0.00    +0.000 A 
ATOM      7 CL   UNL     1       5.634   5.072  19.561  0.00  0.00    +0.000 Cl
ENDROOT
BRANCH   1  10
ATOM      8  C   UNL     1       6.338   4.996  15.039  0.00  0.00    +0.000 C 
ATOM      9  N   UNL     1       5.288   5.118  16.045  0.00  0.00    +0.000 N 
ATOM     10  C   UNL     1       5.283   6.358  16.709  0.00  0.00    +0.000 C 
ATOM     11  O   UNL     1       6.127   7.217  16.479  0.00  0.00    +0.000 OA
BRANCH   9  12
ATOM     12  C   UNL     1       4.188   4.130  16.097  0.00  0.00    +0.000 C 
BRANCH  12  13
ATOM     13  C   UNL     1       4.262   3.039  17.151  0.00  0.00    +0.000 C 
BRANCH  13  14
ATOM     14  O   UNL     1       2.933   2.570  17.428  0.00  0.00    +0.000 OA
BRANCH  14  15
ATOM     15  C   UNL     1       2.522   2.745  18.716  0.00  0.00    +0.000 A 
ATOM     16  C   UNL     1       1.221   3.225  18.889  0.00  0.00    +0.000 A 
ATOM     17  C   UNL     1       0.710   3.405  20.176  0.00  0.00    +0.000 A 
ATOM     18  C   UNL     1       1.494   3.085  21.285  0.00  0.00    +0.000 A 
ATOM     19  C   UNL     1       2.789   2.600  21.110  0.00  0.00    +0.000 A 
ATOM     20  C   UNL     1       3.302   2.435  19.827  0.00  0.00    +0.000 A 
ENDBRANCH  14  15
ENDBRANCH  13  14
ENDBRANCH  12  13
ENDBRANCH   9  12
ENDBRANCH   1  10
BRANCH   3  21
ATOM     21  S   UNL     1       1.350   9.393  18.321  0.00  0.00    +0.000 S 
ATOM     22  O   UNL     1       2.350  10.443  18.185  0.00  0.00    +0.000 OA
ATOM     23  O   UNL     1       0.345   9.185  17.309  0.00  0.00    +0.000 OA
BRANCH  21  24
ATOM     24  N   UNL     1       0.571   9.597  19.827  0.00  0.00    +0.000 NA
ATOM     25  C   UNL     1       1.419   9.337  21.016  0.00  0.00    +0.000 C 
ATOM     26  C   UNL     1       0.654   9.449  22.325  0.00  0.00    +0.000 C 
ATOM     27  C   UNL     1      -0.155  10.732  22.397  0.00  0.00    +0.000 C 
ATOM     28  C   UNL     1      -1.131  10.776  21.234  0.00  0.00    +0.000 C 
ATOM     29  C   UNL     1      -0.409  10.708  19.895  0.00  0.00    +0.000 C 
ENDBRANCH  21  24
ENDBRANCH   3  21
TORSDOF 7
ENDMDL
MODEL 5
REMARK VINA RESULT:      -6.9      2.469      4.606
REMARK  Name = 
REMARK  8 active torsions:
REMARK  status: ('A' for Active; 'I' for Inactive)
REMARK    1  A    between atoms: C_1  and  N_2
REMARK    2  A    between atoms: N_2  and  C_3
REMARK    3  A    between atoms: C_3  and  C_4
REMARK    4  A    between atoms: C_4  and  O_5
REMARK    5  A    between atoms: O_5  and  C_6
REMARK    6  A    between atoms: C_12  and  C_14
REMARK    7  A    between atoms: C_16  and  S_17
REMARK    8  A    between atoms: S_17  and  N_20
REMARK                            x       y       z     vdW  Elec       q    Type
REMARK                         _______ _______ _______ _____ _____    ______ ____
ROOT
ATOM      1  C   UNL     1       1.888   5.747  19.886  0.00  0.00    +0.000 A 
ATOM      2  C   UNL     1       1.580   6.867  20.672  0.00  0.00    +0.000 A 
ATOM      3  C   UNL     1       1.601   8.161  20.144  0.00  0.00    +0.000 A 
ATOM      4  C   UNL     1       2.083   8.351  18.857  0.00  0.00    +0.000 A 
ATOM      5  C   UNL     1       2.410   7.251  18.066  0.00  0.00    +0.000 A 
ATOM      6  C   UNL     1       2.247   5.948  18.549  0.00  0.00    +0.000 A 
ATOM      7 CL   UNL     1       2.310   4.675  17.382  0.00  0.00    +0.000 Cl
ENDROOT
BRANCH   1  10
ATOM      8  C   UNL     1       2.852   2.290  21.121  0.00  0.00    +0.000 C 
ATOM      9  N   UNL     1       3.030   3.594  20.490  0.00  0.00    +0.000 N 
ATOM     10  C   UNL     1       1.865   4.383  20.484  0.00  0.00    +0.000 C 
ATOM     11  O   UNL     1       0.801   3.966  20.928  0.00  0.00    +0.000 OA
BRANCH   9  12
ATOM     12  C   UNL     1       4.388   4.095  20.187  0.00  0.00    +0.000 C 
BRANCH  12  13
ATOM     13  C   UNL     1       5.264   3.263  19.265  0.00  0.00    +0.000 C 
BRANCH  13  14
ATOM     14  O   UNL     1       6.284   4.106  18.708  0.00  0.00    +0.000 OA
BRANCH  14  15
ATOM     15  C   UNL     1       5.954   4.695  17.523  0.00  0.00    +0.000 A 
ATOM     16  C   UNL     1       5.853   6.089  17.533  0.00  0.00    +0.000 A 
ATOM     17  C   UNL     1       5.549   6.774  16.355  0.00  0.00    +0.000 A 
ATOM     18  C   UNL     1       5.366   6.066  15.168  0.00  0.00    +0.000 A 
ATOM     19  C   UNL     1       5.473   4.676  15.158  0.00  0.00    +0.000 A 
ATOM     20  C   UNL     1       5.763   3.992  16.336  0.00  0.00    +0.000 A 
ENDBRANCH  14  15
ENDBRANCH  13  14
ENDBRANCH  12  13
ENDBRANCH   9  12
ENDBRANCH   1  10
BRANCH   3  21
ATOM     21  S   UNL     1       0.702   9.446  21.016  0.00  0.00    +0.000 S 
ATOM     22  O   UNL     1      -0.560   8.846  21.424  0.00  0.00    +0.000 OA
ATOM     23  O   UNL     1       1.608  10.009  21.986  0.00  0.00    +0.000 OA
BRANCH  21  24
ATOM     24  N   UNL     1       0.364  10.633  19.834  0.00  0.00    +0.000 NA
ATOM     25  C   UNL     1      -1.030  10.640  19.329  0.00  0.00    +0.000 C 
ATOM     26  C   UNL     1      -1.253  11.655  18.220  0.00  0.00    +0.000 C 
ATOM     27  C   UNL     1      -0.711  13.024  18.591  0.00  0.00    +0.000 C 
ATOM     28  C   UNL     1       0.775  12.913  18.886  0.00  0.00    +0.000 C 
ATOM     29  C   UNL     1       1.048  11.936  20.021  0.00  0.00    +0.000 C 
ENDBRANCH  21  24
ENDBRANCH   3  21
TORSDOF 7
ENDMDL
MODEL 6
REMARK VINA RESULT:      -6.8      2.761      7.006
REMARK  Name = 
REMARK  8 active torsions:
REMARK  status: ('A' for Active; 'I' for Inactive)
REMARK    1  A    between atoms: C_1  and  N_2
REMARK    2  A    between atoms: N_2  and  C_3
REMARK    3  A    between atoms: C_3  and  C_4
REMARK    4  A    between atoms: C_4  and  O_5
REMARK    5  A    between atoms: O_5  and  C_6
REMARK    6  A    between atoms: C_12  and  C_14
REMARK    7  A    between atoms: C_16  and  S_17
REMARK    8  A    between atoms: S_17  and  N_20
REMARK                            x       y       z     vdW  Elec       q    Type
REMARK                         _______ _______ _______ _____ _____    ______ ____
ROOT
ATOM      1  C   UNL     1       2.787   4.456  18.972  0.00  0.00    +0.000 A 
ATOM      2  C   UNL     1       3.944   4.748  18.235  0.00  0.00    +0.000 A 
ATOM      3  C   UNL     1       4.432   3.872  17.261  0.00  0.00    +0.000 A 
ATOM      4  C   UNL     1       3.845   2.622  17.129  0.00  0.00    +0.000 A 
ATOM      5  C   UNL     1       2.704   2.306  17.865  0.00  0.00    +0.000 A 
ATOM      6  C   UNL     1       2.130   3.243  18.733  0.00  0.00    +0.000 A 
ATOM      7 CL   UNL     1       0.532   2.903  19.294  0.00  0.00    +0.000 Cl
ENDROOT
BRANCH   1  10
ATOM      8  C   UNL     1       1.624   7.566  20.810  0.00  0.00    +0.000 C 
ATOM      9  N   UNL     1       2.117   6.766  19.694  0.00  0.00    +0.000 N 
ATOM     10  C   UNL     1       2.300   5.407  20.010  0.00  0.00    +0.000 C 
ATOM     11  O   UNL     1       2.105   4.975  21.141  0.00  0.00    +0.000 OA
BRANCH   9  12
ATOM     12  C   UNL     1       2.110   7.318  18.322  0.00  0.00    +0.000 C 
BRANCH  12  13
ATOM     13  C   UNL     1       2.646   8.725  18.118  0.00  0.00    +0.000 C 
BRANCH  13  14
ATOM     14  O   UNL     1       1.686   9.484  17.368  0.00  0.00    +0.000 OA
BRANCH  14  15
ATOM     15  C   UNL     1       0.684  10.033  18.113  0.00  0.00    +0.000 A 
ATOM     16  C   UNL     1       1.082  10.831  19.189  0.00  0.00    +0.000 A 
ATOM     17  C   UNL     1       0.120  11.456  19.986  0.00  0.00    +0.000 A 
ATOM     18  C   UNL     1      -1.234  11.297  19.692  0.00  0.00    +0.000 A 
ATOM     19  C   UNL     1      -1.629  10.506  18.615  0.00  0.00    +0.000 A 
ATOM     20  C   UNL     1      -0.669   9.872  17.829  0.00  0.00    +0.000 A 
ENDBRANCH  14  15
ENDBRANCH  13  14
ENDBRANCH  12  13
ENDBRANCH   9  12
ENDBRANCH   1  10
BRANCH   3  21
ATOM     21  S   UNL     1       5.553   4.524  16.021  0.00  0.00    +0.000 S 
ATOM     22  O   UNL     1       6.175   3.366  15.393  0.00  0.00    +0.000 OA
ATOM     23  O   UNL     1       4.807   5.482  15.243  0.00  0.00    +0.000 OA
BRANCH  21  24
ATOM     24  N   UNL     1       6.756   5.356  16.901  0.00  0.00    +0.000 NA
ATOM     25  C   UNL     1       6.629   6.834  16.901  0.00  0.00    +0.000 C 
ATOM     26  C   UNL     1       7.772   7.527  17.625  0.00  0.00    +0.000 C 
ATOM     27  C   UNL     1       8.026   6.917  18.992  0.00  0.00    +0.000 C 
ATOM     28  C   UNL     1       8.348   5.441  18.831  0.00  0.00    +0.000 C 
ATOM     29  C   UNL     1       7.213   4.693  18.147  0.00  0.00    +0.000 C 
ENDBRANCH  21  24
ENDBRANCH   3  21
TORSDOF 7
ENDMDL
MODEL 7
REMARK VINA RESULT:      -6.8      2.649      7.911
REMARK  Name = 
REMARK  8 active torsions:
REMARK  status: ('A' for Active; 'I' for Inactive)
REMARK    1  A    between atoms: C_1  and  N_2
REMARK    2  A    between atoms: N_2  and  C_3
REMARK    3  A    between atoms: C_3  and  C_4
REMARK    4  A    between atoms: C_4  and  O_5
REMARK    5  A    between atoms: O_5  and  C_6
REMARK    6  A    between atoms: C_12  and  C_14
REMARK    7  A    between atoms: C_16  and  S_17
REMARK    8  A    between atoms: S_17  and  N_20
REMARK                            x       y       z     vdW  Elec       q    Type
REMARK                         _______ _______ _______ _____ _____    ______ ____
ROOT
ATOM      1  C   UNL     1       3.300   5.179  18.643  0.00  0.00    +0.000 A 
ATOM      2  C   UNL     1       4.586   5.535  18.211  0.00  0.00    +0.000 A 
ATOM      3  C   UNL     1       5.258   4.800  17.229  0.00  0.00    +0.000 A 
ATOM      4  C   UNL     1       4.700   3.611  16.784  0.00  0.00    +0.000 A 
ATOM      5  C   UNL     1       3.430   3.232  17.215  0.00  0.00    +0.000 A 
ATOM      6  C   UNL     1       2.697   4.046  18.086  0.00  0.00    +0.000 A 
ATOM      7 CL   UNL     1       1.015   3.689  18.251  0.00  0.00    +0.000 Cl
ENDROOT
BRANCH   1  10
ATOM      8  C   UNL     1       1.627   7.972  20.594  0.00  0.00    +0.000 C 
ATOM      9  N   UNL     1       2.304   7.331  19.472  0.00  0.00    +0.000 N 
ATOM     10  C   UNL     1       2.618   5.978  19.700  0.00  0.00    +0.000 C 
ATOM     11  O   UNL     1       2.379   5.432  20.771  0.00  0.00    +0.000 OA
BRANCH   9  12
ATOM     12  C   UNL     1       2.349   7.995  18.151  0.00  0.00    +0.000 C 
BRANCH  12  13
ATOM     13  C   UNL     1       1.795   9.405  18.045  0.00  0.00    +0.000 C 
BRANCH  13  14
ATOM     14  O   UNL     1       0.430   9.336  17.606  0.00  0.00    +0.000 OA
BRANCH  14  15
ATOM     15  C   UNL     1      -0.406  10.237  18.197  0.00  0.00    +0.000 A 
ATOM     16  C   UNL     1      -1.716  10.274  17.712  0.00  0.00    +0.000 A 
ATOM     17  C   UNL     1      -2.646  11.147  18.281  0.00  0.00    +0.000 A 
ATOM     18  C   UNL     1      -2.268  11.965  19.347  0.00  0.00    +0.000 A 
ATOM     19  C   UNL     1      -0.963  11.921  19.834  0.00  0.00    +0.000 A 
ATOM     20  C   UNL     1      -0.033  11.061  19.256  0.00  0.00    +0.000 A 
ENDBRANCH  14  15
ENDBRANCH  13  14
ENDBRANCH  12  13
ENDBRANCH   9  12
ENDBRANCH   1  10
BRANCH   3  21
ATOM     21  S   UNL     1       6.615   5.590  16.362  0.00  0.00    +0.000 S 
ATOM     22  O   UNL     1       6.382   7.024  16.473  0.00  0.00    +0.000 OA
ATOM     23  O   UNL     1       7.832   4.993  16.852  0.00  0.00    +0.000 OA
BRANCH  21  24
ATOM     24  N   UNL     1       6.414   5.149  14.724  0.00  0.00    +0.000 NA
ATOM     25  C   UNL     1       7.648   5.198  13.902  0.00  0.00    +0.000 C 
ATOM     26  C   UNL     1       7.396   4.881  12.437  0.00  0.00    +0.000 C 
ATOM     27  C   UNL     1       6.576   3.614  12.267  0.00  0.00    +0.000 C 
ATOM     28  C   UNL     1       5.248   3.776  12.987  0.00  0.00    +0.000 C 
ATOM     29  C   UNL     1       5.446   4.054  14.470  0.00  0.00    +0.000 C 
ENDBRANCH  21  24
ENDBRANCH   3  21
TORSDOF 7
ENDMDL
MODEL 8
REMARK VINA RESULT:      -6.8      0.574      1.126
REMARK  Name = 
REMARK  8 active torsions:
REMARK  status: ('A' for Active; 'I' for Inactive)
REMARK    1  A    between atoms: C_1  and  N_2
REMARK    2  A    between atoms: N_2  and  C_3
REMARK    3  A    between atoms: C_3  and  C_4
REMARK    4  A    between atoms: C_4  and  O_5
REMARK    5  A    between atoms: O_5  and  C_6
REMARK    6  A    between atoms: C_12  and  C_14
REMARK    7  A    between atoms: C_16  and  S_17
REMARK    8  A    between atoms: S_17  and  N_20
REMARK                            x       y       z     vdW  Elec       q    Type
REMARK                         _______ _______ _______ _____ _____    ______ ____
ROOT
ATOM      1  C   UNL     1       3.896   6.690  17.835  0.00  0.00    +0.000 A 
ATOM      2  C   UNL     1       2.891   7.650  17.648  0.00  0.00    +0.000 A 
ATOM      3  C   UNL     1       2.016   8.006  18.679  0.00  0.00    +0.000 A 
ATOM      4  C   UNL     1       2.051   7.287  19.864  0.00  0.00    +0.000 A 
ATOM      5  C   UNL     1       3.033   6.317  20.064  0.00  0.00    +0.000 A 
ATOM      6  C   UNL     1       4.000   6.066  19.083  0.00  0.00    +0.000 A 
ATOM      7 CL   UNL     1       5.376   5.141  19.571  0.00  0.00    +0.000 Cl
ENDROOT
BRANCH   1  10
ATOM      8  C   UNL     1       5.736   4.821  15.092  0.00  0.00    +0.000 C 
ATOM      9  N   UNL     1       4.803   5.017  16.197  0.00  0.00    +0.000 N 
ATOM     10  C   UNL     1       4.804   6.327  16.711  0.00  0.00    +0.000 C 
ATOM     11  O   UNL     1       5.566   7.187  16.285  0.00  0.00    +0.000 OA
BRANCH   9  12
ATOM     12  C   UNL     1       3.774   3.997  16.493  0.00  0.00    +0.000 C 
BRANCH  12  13
ATOM     13  C   UNL     1       4.179   2.805  17.343  0.00  0.00    +0.000 C 
BRANCH  13  14
ATOM     14  O   UNL     1       2.998   2.080  17.719  0.00  0.00    +0.000 OA
BRANCH  14  15
ATOM     15  C   UNL     1       2.436   2.475  18.897  0.00  0.00    +0.000 A 
ATOM     16  C   UNL     1       3.226   2.324  20.039  0.00  0.00    +0.000 A 
ATOM     17  C   UNL     1       2.738   2.732  21.283  0.00  0.00    +0.000 A 
ATOM     18  C   UNL     1       1.471   3.308  21.376  0.00  0.00    +0.000 A 
ATOM     19  C   UNL     1       0.687   3.464  20.234  0.00  0.00    +0.000 A 
ATOM     20  C   UNL     1       1.169   3.044  18.997  0.00  0.00    +0.000 A 
ENDBRANCH  14  15
ENDBRANCH  13  14
ENDBRANCH  12  13
ENDBRANCH   9  12
ENDBRANCH   1  10
BRANCH   3  21
ATOM     21  S   UNL     1       1.144   9.568  18.547  0.00  0.00    +0.000 S 
ATOM     22  O   UNL     1       2.172  10.592  18.422  0.00  0.00    +0.000 OA
ATOM     23  O   UNL     1       0.132   9.400  17.534  0.00  0.00    +0.000 OA
BRANCH  21  24
ATOM     24  N   UNL     1       0.372   9.776  20.057  0.00  0.00    +0.000 NA
ATOM     25  C   UNL     1       0.215   8.540  20.860  0.00  0.00    +0.000 C 
ATOM     26  C   UNL     1      -0.554   8.767  22.152  0.00  0.00    +0.000 C 
ATOM     27  C   UNL     1      -0.016   9.957  22.926  0.00  0.00    +0.000 C 
ATOM     28  C   UNL     1      -0.102  11.201  22.059  0.00  0.00    +0.000 C 
ATOM     29  C   UNL     1       0.688  11.039  20.768  0.00  0.00    +0.000 C 
ENDBRANCH  21  24
ENDBRANCH   3  21
TORSDOF 7
ENDMDL
MODEL 9
REMARK VINA RESULT:      -6.6      2.590      4.749
REMARK  Name = 
REMARK  8 active torsions:
REMARK  status: ('A' for Active; 'I' for Inactive)
REMARK    1  A    between atoms: C_1  and  N_2
REMARK    2  A    between atoms: N_2  and  C_3
REMARK    3  A    between atoms: C_3  and  C_4
REMARK    4  A    between atoms: C_4  and  O_5
REMARK    5  A    between atoms: O_5  and  C_6
REMARK    6  A    between atoms: C_12  and  C_14
REMARK    7  A    between atoms: C_16  and  S_17
REMARK    8  A    between atoms: S_17  and  N_20
REMARK                            x       y       z     vdW  Elec       q    Type
REMARK                         _______ _______ _______ _____ _____    ______ ____
ROOT
ATOM      1  C   UNL     1       1.906   5.942  19.800  0.00  0.00    +0.000 A 
ATOM      2  C   UNL     1       1.591   7.058  20.589  0.00  0.00    +0.000 A 
ATOM      3  C   UNL     1       1.573   8.350  20.057  0.00  0.00    +0.000 A 
ATOM      4  C   UNL     1       2.021   8.545  18.758  0.00  0.00    +0.000 A 
ATOM      5  C   UNL     1       2.355   7.450  17.963  0.00  0.00    +0.000 A 
ATOM      6  C   UNL     1       2.230   6.145  18.454  0.00  0.00    +0.000 A 
ATOM      7 CL   UNL     1       2.295   4.870  17.290  0.00  0.00    +0.000 Cl
ENDROOT
BRANCH   1  10
ATOM      8  C   UNL     1       2.967   2.505  21.012  0.00  0.00    +0.000 C 
ATOM      9  N   UNL     1       3.103   3.809  20.371  0.00  0.00    +0.000 N 
ATOM     10  C   UNL     1       1.926   4.580  20.403  0.00  0.00    +0.000 C 
ATOM     11  O   UNL     1       0.885   4.148  20.885  0.00  0.00    +0.000 OA
BRANCH   9  12
ATOM     12  C   UNL     1       4.441   4.330  20.018  0.00  0.00    +0.000 C 
BRANCH  12  13
ATOM     13  C   UNL     1       5.315   3.487  19.105  0.00  0.00    +0.000 C 
BRANCH  13  14
ATOM     14  O   UNL     1       5.460   4.163  17.847  0.00  0.00    +0.000 OA
BRANCH  14  15
ATOM     15  C   UNL     1       6.253   5.271  17.881  0.00  0.00    +0.000 A 
ATOM     16  C   UNL     1       5.823   6.362  17.121  0.00  0.00    +0.000 A 
ATOM     17  C   UNL     1       6.561   7.548  17.124  0.00  0.00    +0.000 A 
ATOM     18  C   UNL     1       7.715   7.645  17.902  0.00  0.00    +0.000 A 
ATOM     19  C   UNL     1       8.138   6.558  18.665  0.00  0.00    +0.000 A 
ATOM     20  C   UNL     1       7.410   5.372  18.650  0.00  0.00    +0.000 A 
ENDBRANCH  14  15
ENDBRANCH  13  14
ENDBRANCH  12  13
ENDBRANCH   9  12
ENDBRANCH   1  10
BRANCH   3  21
ATOM     21  S   UNL     1       0.666   9.619  20.943  0.00  0.00    +0.000 S 
ATOM     22  O   UNL     1      -0.620   9.027  21.286  0.00  0.00    +0.000 OA
ATOM     23  O   UNL     1       1.547  10.129  21.964  0.00  0.00    +0.000 OA
BRANCH  21  24
ATOM     24  N   UNL     1       0.390  10.854  19.796  0.00  0.00    +0.000 NA
ATOM     25  C   UNL     1      -1.024  11.029  19.387  0.00  0.00    +0.000 C 
ATOM     26  C   UNL     1      -1.201  12.080  18.303  0.00  0.00    +0.000 C 
ATOM     27  C   UNL     1      -0.480  13.371  18.646  0.00  0.00    +0.000 C 
ATOM     28  C   UNL     1       1.000  13.084  18.837  0.00  0.00    +0.000 C 
ATOM     29  C   UNL     1       1.233  12.066  19.944  0.00  0.00    +0.000 C 
ENDBRANCH  21  24
ENDBRANCH   3  21
TORSDOF 7
ENDMDL
