MODEL 1
REMARK VINA RESULT:      -7.3      0.000      0.000
REMARK  Name = 
REMARK  9 active torsions:
REMARK  status: ('A' for Active; 'I' for Inactive)
REMARK    1  A    between atoms: C_1  and  C_2
REMARK    2  A    between atoms: C_2  and  C_3
REMARK    3  A    between atoms: C_3  and  C_4
REMARK    4  A    between atoms: C_4  and  N_5
REMARK    5  A    between atoms: C_8  and  C_9
REMARK    6  A    between atoms: N_11  and  C_12
REMARK    7  A    between atoms: C_16  and  N_17
REMARK    8  A    between atoms: C_19  and  O_20
REMARK    9  A    between atoms: O_20  and  C_21
REMARK                            x       y       z     vdW  Elec       q    Type
REMARK                         _______ _______ _______ _____ _____    ______ ____
ROOT
ATOM      1  C   UNL     1       3.545   2.427  18.536  0.00  0.00    +0.000 C 
ATOM      2  O   UNL     1       3.907   1.507  17.801  0.00  0.00    +0.000 OA
ATOM      3  N   UNL     1       4.072   3.707  18.476  0.00  0.00    +0.000 N 
ATOM      4  H   UNL     1       3.486   4.473  18.782  0.00  0.00    +0.000 HD
ENDROOT
BRANCH   3   5
ATOM      5  C   UNL     1       5.018   4.064  17.490  0.00  0.00    +0.000 A 
ATOM      6  C   UNL     1       4.730   3.882  16.132  0.00  0.00    +0.000 A 
ATOM      7  C   UNL     1       5.653   4.292  15.166  0.00  0.00    +0.000 A 
ATOM      8 CL   UNL     1       5.288   4.012  13.501  0.00  0.00    +0.000 Cl
ATOM      9  C   UNL     1       6.839   4.944  15.543  0.00  0.00    +0.000 A 
ATOM     10  C   UNL     1       7.150   5.041  16.910  0.00  0.00    +0.000 A 
ATOM     11  C   UNL     1       6.252   4.599  17.888  0.00  0.00    +0.000 A 
BRANCH   9  12
ATOM     12  N   UNL     1       7.816   5.311  14.596  0.00  0.00    +0.000 N 
ATOM     13  H   UNL     1       8.563   4.620  14.536  0.00  0.00    +0.000 HD
ATOM     14  H   UNL     1       7.437   5.546  13.685  0.00  0.00    +0.000 HD
ENDBRANCH   9  12
BRANCH  11  15
ATOM     15  O   UNL     1       6.456   4.698  19.244  0.00  0.00    +0.000 OA
ATOM     16  C   UNL     1       7.466   5.604  19.675  0.00  0.00    +0.000 C 
ENDBRANCH  11  15
ENDBRANCH   3   5
BRANCH   1  20
ATOM     17  N   UNL     1       1.475   4.813  20.600  0.00  0.00    +0.000 NA
ATOM     18  C   UNL     1       1.122   4.336  19.253  0.00  0.00    +0.000 C 
ATOM     19  C   UNL     1       1.136   2.804  19.180  0.00  0.00    +0.000 C 
ATOM     20  C   UNL     1       2.484   2.213  19.621  0.00  0.00    +0.000 C 
ATOM     21  C   UNL     1       2.847   2.788  20.993  0.00  0.00    +0.000 C 
ATOM     22  C   UNL     1       2.797   4.316  21.004  0.00  0.00    +0.000 C 
BRANCH  17  23
ATOM     23  C   UNL     1       1.452   6.287  20.687  0.00  0.00    +0.000 C 
BRANCH  23  24
ATOM     24  C   UNL     1       2.338   7.020  19.668  0.00  0.00    +0.000 C 
BRANCH  24  26
ATOM     25  C   UNL     1       2.063   8.669  17.785  0.00  0.00    +0.000 C 
ATOM     26  C   UNL     1       1.779   8.382  19.252  0.00  0.00    +0.000 C 
ENDBRANCH  24  26
ENDBRANCH  23  24
ENDBRANCH  17  23
ENDBRANCH   1  20
TORSDOF 7
ENDMDL
MODEL 2
REMARK VINA RESULT:      -7.3      2.655      6.733
REMARK  Name = 
REMARK  9 active torsions:
REMARK  status: ('A' for Active; 'I' for Inactive)
REMARK    1  A    between atoms: C_1  and  C_2
REMARK    2  A    between atoms: C_2  and  C_3
REMARK    3  A    between atoms: C_3  and  C_4
REMARK    4  A    between atoms: C_4  and  N_5
REMARK    5  A    between atoms: C_8  and  C_9
REMARK    6  A    between atoms: N_11  and  C_12
REMARK    7  A    between atoms: C_16  and  N_17
REMARK    8  A    between atoms: C_19  and  O_20
REMARK    9  A    between atoms: O_20  and  C_21
REMARK                            x       y       z     vdW  Elec       q    Type
REMARK                         _______ _______ _______ _____ _____    ______ ____
ROOT
ATOM      1  C   UNL     1       5.116   5.976  18.131  0.00  0.00    +0.000 C 
ATOM      2  O   UNL     1       5.738   5.436  19.047  0.00  0.00    +0.000 OA
ATOM      3  N   UNL     1       3.759   5.798  17.918  0.00  0.00    +0.000 N 
ATOM      4  H   UNL     1       3.253   6.541  17.452  0.00  0.00    +0.000 HD
ENDROOT
BRANCH   3   5
ATOM      5  C   UNL     1       2.971   5.035  18.808  0.00  0.00    +0.000 A 
ATOM      6  C   UNL     1       2.884   3.645  18.665  0.00  0.00    +0.000 A 
ATOM      7  C   UNL     1       2.147   2.897  19.587  0.00  0.00    +0.000 A 
ATOM      8 CL   UNL     1       2.021   1.190  19.358  0.00  0.00    +0.000 Cl
ATOM      9  C   UNL     1       1.544   3.522  20.692  0.00  0.00    +0.000 A 
ATOM     10  C   UNL     1       1.570   4.924  20.772  0.00  0.00    +0.000 A 
ATOM     11  C   UNL     1       2.272   5.688  19.834  0.00  0.00    +0.000 A 
BRANCH   9  12
ATOM     12  N   UNL     1       0.742   2.804  21.602  0.00  0.00    +0.000 N 
ATOM     13  H   UNL     1       0.655   3.290  22.494  0.00  0.00    +0.000 HD
ATOM     14  H   UNL     1      -0.159   2.527  21.227  0.00  0.00    +0.000 HD
ENDBRANCH   9  12
BRANCH  11  15
ATOM     15  O   UNL     1       2.387   7.058  19.864  0.00  0.00    +0.000 OA
ATOM     16  C   UNL     1       1.537   7.752  20.769  0.00  0.00    +0.000 C 
ENDBRANCH  11  15
ENDBRANCH   3   5
BRANCH   1  20
ATOM     17  N   UNL     1       6.677   5.310  14.760  0.00  0.00    +0.000 NA
ATOM     18  C   UNL     1       5.250   5.589  14.991  0.00  0.00    +0.000 C 
ATOM     19  C   UNL     1       5.053   6.888  15.780  0.00  0.00    +0.000 C 
ATOM     20  C   UNL     1       5.818   6.881  17.113  0.00  0.00    +0.000 C 
ATOM     21  C   UNL     1       7.281   6.519  16.837  0.00  0.00    +0.000 C 
ATOM     22  C   UNL     1       7.407   5.225  16.032  0.00  0.00    +0.000 C 
BRANCH  17  23
ATOM     23  C   UNL     1       6.879   4.068  13.989  0.00  0.00    +0.000 C 
BRANCH  23  24
ATOM     24  C   UNL     1       6.460   4.134  12.512  0.00  0.00    +0.000 C 
BRANCH  24  26
ATOM     25  C   UNL     1       4.353   3.260  11.447  0.00  0.00    +0.000 C 
ATOM     26  C   UNL     1       5.703   2.891  12.043  0.00  0.00    +0.000 C 
ENDBRANCH  24  26
ENDBRANCH  23  24
ENDBRANCH  17  23
ENDBRANCH   1  20
TORSDOF 7
ENDMDL
MODEL 3
REMARK VINA RESULT:      -7.1      3.033      6.261
REMARK  Name = 
REMARK  9 active torsions:
REMARK  status: ('A' for Active; 'I' for Inactive)
REMARK    1  A    between atoms: C_1  and  C_2
REMARK    2  A    between atoms: C_2  and  C_3
REMARK    3  A    between atoms: C_3  and  C_4
REMARK    4  A    between atoms: C_4  and  N_5
REMARK    5  A    between atoms: C_8  and  C_9
REMARK    6  A    between atoms: N_11  and  C_12
REMARK    7  A    between atoms: C_16  and  N_17
REMARK    8  A    between atoms: C_19  and  O_20
REMARK    9  A    between atoms: O_20  and  C_21
REMARK                            x       y       z     vdW  Elec       q    Type
REMARK                         _______ _______ _______ _____ _____    ______ ____
ROOT
ATOM      1  C   UNL     1       5.231   4.016  17.408  0.00  0.00    +0.000 C 
ATOM      2  O   UNL     1       4.128   4.059  16.861  0.00  0.00    +0.000 OA
ATOM      3  N   UNL     1       5.403   3.845  18.772  0.00  0.00    +0.000 N 
ATOM      4  H   UNL     1       6.265   3.419  19.088  0.00  0.00    +0.000 HD
ENDROOT
BRANCH   3   5
ATOM      5  C   UNL     1       4.302   3.620  19.627  0.00  0.00    +0.000 A 
ATOM      6  C   UNL     1       3.284   4.575  19.739  0.00  0.00    +0.000 A 
ATOM      7  C   UNL     1       2.174   4.313  20.546  0.00  0.00    +0.000 A 
ATOM      8 CL   UNL     1       0.957   5.530  20.699  0.00  0.00    +0.000 Cl
ATOM      9  C   UNL     1       2.039   3.074  21.195  0.00  0.00    +0.000 A 
ATOM     10  C   UNL     1       3.107   2.164  21.140  0.00  0.00    +0.000 A 
ATOM     11  C   UNL     1       4.243   2.429  20.367  0.00  0.00    +0.000 A 
BRANCH   9  12
ATOM     12  N   UNL     1       0.962   2.807  22.064  0.00  0.00    +0.000 N 
ATOM     13  H   UNL     1       0.173   2.389  21.571  0.00  0.00    +0.000 HD
ATOM     14  H   UNL     1       1.222   2.277  22.889  0.00  0.00    +0.000 HD
ENDBRANCH   9  12
BRANCH  11  15
ATOM     15  O   UNL     1       5.311   1.576  20.221  0.00  0.00    +0.000 OA
ATOM     16  C   UNL     1       5.612   0.732  21.326  0.00  0.00    +0.000 C 
ENDBRANCH  11  15
ENDBRANCH   3   5
BRANCH   1  20
ATOM     17  N   UNL     1       7.548   6.948  16.881  0.00  0.00    +0.000 NA
ATOM     18  C   UNL     1       7.613   6.013  18.016  0.00  0.00    +0.000 C 
ATOM     19  C   UNL     1       7.691   4.558  17.540  0.00  0.00    +0.000 C 
ATOM     20  C   UNL     1       6.527   4.187  16.608  0.00  0.00    +0.000 C 
ATOM     21  C   UNL     1       6.452   5.222  15.481  0.00  0.00    +0.000 C 
ATOM     22  C   UNL     1       6.394   6.652  16.022  0.00  0.00    +0.000 C 
BRANCH  17  23
ATOM     23  C   UNL     1       7.486   8.354  17.326  0.00  0.00    +0.000 C 
BRANCH  23  24
ATOM     24  C   UNL     1       8.443   8.725  18.470  0.00  0.00    +0.000 C 
BRANCH  24  26
ATOM     25  C   UNL     1       9.460  10.654  19.729  0.00  0.00    +0.000 C 
ATOM     26  C   UNL     1       8.965  10.160  18.378  0.00  0.00    +0.000 C 
ENDBRANCH  24  26
ENDBRANCH  23  24
ENDBRANCH  17  23
ENDBRANCH   1  20
TORSDOF 7
ENDMDL
MODEL 4
REMARK VINA RESULT:      -7.0      0.994      1.020
REMARK  Name = 
REMARK  9 active torsions:
REMARK  status: ('A' for Active; 'I' for Inactive)
REMARK    1  A    between atoms: C_1  and  C_2
REMARK    2  A    between atoms: C_2  and  C_3
REMARK    3  A    between atoms: C_3  and  C_4
REMARK    4  A    between atoms: C_4  and  N_5
REMARK    5  A    between atoms: C_8  and  C_9
REMARK    6  A    between atoms: N_11  and  C_12
REMARK    7  A    between atoms: C_16  and  N_17
REMARK    8  A    between atoms: C_19  and  O_20
REMARK    9  A    between atoms: O_20  and  C_21
REMARK                            x       y       z     vdW  Elec       q    Type
REMARK                         _______ _______ _______ _____ _____    ______ ____
ROOT
ATOM      1  C   UNL     1       3.413   2.804  17.621  0.00  0.00    +0.000 C 
ATOM      2  O   UNL     1       2.824   3.033  16.564  0.00  0.00    +0.000 OA
ATOM      3  N   UNL     1       4.769   3.019  17.804  0.00  0.00    +0.000 N 
ATOM      4  H   UNL     1       5.094   3.207  18.744  0.00  0.00    +0.000 HD
ENDROOT
BRANCH   3   5
ATOM      5  C   UNL     1       5.561   3.607  16.792  0.00  0.00    +0.000 A 
ATOM      6  C   UNL     1       5.334   3.299  15.445  0.00  0.00    +0.000 A 
ATOM      7  C   UNL     1       6.087   3.931  14.453  0.00  0.00    +0.000 A 
ATOM      8 CL   UNL     1       5.814   3.497  12.803  0.00  0.00    +0.000 Cl
ATOM      9  C   UNL     1       7.027   4.919  14.792  0.00  0.00    +0.000 A 
ATOM     10  C   UNL     1       7.302   5.152  16.149  0.00  0.00    +0.000 A 
ATOM     11  C   UNL     1       6.582   4.498  17.154  0.00  0.00    +0.000 A 
BRANCH   9  12
ATOM     12  N   UNL     1       7.846   5.527  13.819  0.00  0.00    +0.000 N 
ATOM     13  H   UNL     1       8.461   6.230  14.228  0.00  0.00    +0.000 HD
ATOM     14  H   UNL     1       8.352   4.868  13.236  0.00  0.00    +0.000 HD
ENDBRANCH   9  12
BRANCH  11  15
ATOM     15  O   UNL     1       6.754   4.701  18.504  0.00  0.00    +0.000 OA
ATOM     16  C   UNL     1       7.589   5.788  18.886  0.00  0.00    +0.000 C 
ENDBRANCH  11  15
ENDBRANCH   3   5
BRANCH   1  20
ATOM     17  N   UNL     1       1.493   4.378  20.463  0.00  0.00    +0.000 NA
ATOM     18  C   UNL     1       0.928   4.041  19.146  0.00  0.00    +0.000 C 
ATOM     19  C   UNL     1       1.187   2.574  18.784  0.00  0.00    +0.000 C 
ATOM     20  C   UNL     1       2.681   2.217  18.833  0.00  0.00    +0.000 C 
ATOM     21  C   UNL     1       3.244   2.646  20.191  0.00  0.00    +0.000 C 
ATOM     22  C   UNL     1       2.938   4.113  20.499  0.00  0.00    +0.000 C 
BRANCH  17  23
ATOM     23  C   UNL     1       1.239   5.786  20.830  0.00  0.00    +0.000 C 
BRANCH  23  24
ATOM     24  C   UNL     1       2.343   6.778  20.432  0.00  0.00    +0.000 C 
BRANCH  24  26
ATOM     25  C   UNL     1       3.180   6.960  18.064  0.00  0.00    +0.000 C 
ATOM     26  C   UNL     1       2.119   7.410  19.057  0.00  0.00    +0.000 C 
ENDBRANCH  24  26
ENDBRANCH  23  24
ENDBRANCH  17  23
ENDBRANCH   1  20
TORSDOF 7
ENDMDL
MODEL 5
REMARK VINA RESULT:      -7.0      1.110      1.260
REMARK  Name = 
REMARK  9 active torsions:
REMARK  status: ('A' for Active; 'I' for Inactive)
REMARK    1  A    between atoms: C_1  and  C_2
REMARK    2  A    between atoms: C_2  and  C_3
REMARK    3  A    between atoms: C_3  and  C_4
REMARK    4  A    between atoms: C_4  and  N_5
REMARK    5  A    between atoms: C_8  and  C_9
REMARK    6  A    between atoms: N_11  and  C_12
REMARK    7  A    between atoms: C_16  and  N_17
REMARK    8  A    between atoms: C_19  and  O_20
REMARK    9  A    between atoms: O_20  and  C_21
REMARK                            x       y       z     vdW  Elec       q    Type
REMARK                         _______ _______ _______ _____ _____    ______ ____
ROOT
ATOM      1  C   UNL     1       3.380   2.883  17.571  0.00  0.00    +0.000 C 
ATOM      2  O   UNL     1       2.795   3.221  16.541  0.00  0.00    +0.000 OA
ATOM      3  N   UNL     1       4.750   2.993  17.744  0.00  0.00    +0.000 N 
ATOM      4  H   UNL     1       5.099   3.097  18.689  0.00  0.00    +0.000 HD
ENDROOT
BRANCH   3   5
ATOM      5  C   UNL     1       5.568   3.591  16.760  0.00  0.00    +0.000 A 
ATOM      6  C   UNL     1       5.352   3.325  15.402  0.00  0.00    +0.000 A 
ATOM      7  C   UNL     1       6.132   3.967  14.437  0.00  0.00    +0.000 A 
ATOM      8 CL   UNL     1       5.872   3.584  12.773  0.00  0.00    +0.000 Cl
ATOM      9  C   UNL     1       7.088   4.925  14.814  0.00  0.00    +0.000 A 
ATOM     10  C   UNL     1       7.350   5.115  16.181  0.00  0.00    +0.000 A 
ATOM     11  C   UNL     1       6.602   4.450  17.159  0.00  0.00    +0.000 A 
BRANCH   9  12
ATOM     12  N   UNL     1       7.933   5.541  13.869  0.00  0.00    +0.000 N 
ATOM     13  H   UNL     1       7.600   6.471  13.614  0.00  0.00    +0.000 HD
ATOM     14  H   UNL     1       8.912   5.544  14.133  0.00  0.00    +0.000 HD
ENDBRANCH   9  12
BRANCH  11  15
ATOM     15  O   UNL     1       6.760   4.612  18.515  0.00  0.00    +0.000 OA
ATOM     16  C   UNL     1       7.347   5.834  18.950  0.00  0.00    +0.000 C 
ENDBRANCH  11  15
ENDBRANCH   3   5
BRANCH   1  20
ATOM     17  N   UNL     1       1.639   4.393  20.560  0.00  0.00    +0.000 NA
ATOM     18  C   UNL     1       1.027   4.197  19.235  0.00  0.00    +0.000 C 
ATOM     19  C   UNL     1       1.163   2.744  18.766  0.00  0.00    +0.000 C 
ATOM     20  C   UNL     1       2.625   2.270  18.755  0.00  0.00    +0.000 C 
ATOM     21  C   UNL     1       3.243   2.555  20.127  0.00  0.00    +0.000 C 
ATOM     22  C   UNL     1       3.059   4.015  20.544  0.00  0.00    +0.000 C 
BRANCH  17  23
ATOM     23  C   UNL     1       1.503   5.786  21.030  0.00  0.00    +0.000 C 
BRANCH  23  24
ATOM     24  C   UNL     1       2.016   6.861  20.059  0.00  0.00    +0.000 C 
BRANCH  24  26
ATOM     25  C   UNL     1       0.385   8.297  21.331  0.00  0.00    +0.000 C 
ATOM     26  C   UNL     1       1.649   8.284  20.484  0.00  0.00    +0.000 C 
ENDBRANCH  24  26
ENDBRANCH  23  24
ENDBRANCH  17  23
ENDBRANCH   1  20
TORSDOF 7
ENDMDL
MODEL 6
REMARK VINA RESULT:      -6.7      2.950      6.156
REMARK  Name = 
REMARK  9 active torsions:
REMARK  status: ('A' for Active; 'I' for Inactive)
REMARK    1  A    between atoms: C_1  and  C_2
REMARK    2  A    between atoms: C_2  and  C_3
REMARK    3  A    between atoms: C_3  and  C_4
REMARK    4  A    between atoms: C_4  and  N_5
REMARK    5  A    between atoms: C_8  and  C_9
REMARK    6  A    between atoms: N_11  and  C_12
REMARK    7  A    between atoms: C_16  and  N_17
REMARK    8  A    between atoms: C_19  and  O_20
REMARK    9  A    between atoms: O_20  and  C_21
REMARK                            x       y       z     vdW  Elec       q    Type
REMARK                         _______ _______ _______ _____ _____    ______ ____
ROOT
ATOM      1  C   UNL     1       4.584   4.385  16.682  0.00  0.00    +0.000 C 
ATOM      2  O   UNL     1       4.838   3.203  16.916  0.00  0.00    +0.000 OA
ATOM      3  N   UNL     1       3.585   5.096  17.327  0.00  0.00    +0.000 N 
ATOM      4  H   UNL     1       3.693   6.099  17.401  0.00  0.00    +0.000 HD
ENDROOT
BRANCH   3   5
ATOM      5  C   UNL     1       2.836   4.518  18.377  0.00  0.00    +0.000 A 
ATOM      6  C   UNL     1       2.288   3.238  18.236  0.00  0.00    +0.000 A 
ATOM      7  C   UNL     1       1.597   2.657  19.302  0.00  0.00    +0.000 A 
ATOM      8 CL   UNL     1       0.894   1.095  19.082  0.00  0.00    +0.000 Cl
ATOM      9  C   UNL     1       1.504   3.321  20.537  0.00  0.00    +0.000 A 
ATOM     10  C   UNL     1       1.985   4.637  20.634  0.00  0.00    +0.000 A 
ATOM     11  C   UNL     1       2.644   5.246  19.560  0.00  0.00    +0.000 A 
BRANCH   9  12
ATOM     12  N   UNL     1       0.761   2.789  21.610  0.00  0.00    +0.000 N 
ATOM     13  H   UNL     1       0.991   3.244  22.493  0.00  0.00    +0.000 HD
ATOM     14  H   UNL     1      -0.240   2.761  21.444  0.00  0.00    +0.000 HD
ENDBRANCH   9  12
BRANCH  11  15
ATOM     15  O   UNL     1       3.185   6.510  19.585  0.00  0.00    +0.000 OA
ATOM     16  C   UNL     1       2.332   7.579  19.192  0.00  0.00    +0.000 C 
ENDBRANCH  11  15
ENDBRANCH   3   5
BRANCH   1  20
ATOM     17  N   UNL     1       7.363   6.932  16.863  0.00  0.00    +0.000 NA
ATOM     18  C   UNL     1       7.554   5.473  16.850  0.00  0.00    +0.000 C 
ATOM     19  C   UNL     1       6.845   4.826  15.654  0.00  0.00    +0.000 C 
ATOM     20  C   UNL     1       5.348   5.170  15.610  0.00  0.00    +0.000 C 
ATOM     21  C   UNL     1       5.191   6.691  15.696  0.00  0.00    +0.000 C 
ATOM     22  C   UNL     1       5.935   7.275  16.898  0.00  0.00    +0.000 C 
BRANCH  17  23
ATOM     23  C   UNL     1       8.052   7.569  18.003  0.00  0.00    +0.000 C 
BRANCH  23  24
ATOM     24  C   UNL     1       8.138   9.103  17.947  0.00  0.00    +0.000 C 
BRANCH  24  26
ATOM     25  C   UNL     1       9.642  11.042  18.507  0.00  0.00    +0.000 C 
ATOM     26  C   UNL     1       9.118   9.690  18.964  0.00  0.00    +0.000 C 
ENDBRANCH  24  26
ENDBRANCH  23  24
ENDBRANCH  17  23
ENDBRANCH   1  20
TORSDOF 7
ENDMDL
MODEL 7
REMARK VINA RESULT:      -6.4      3.436      5.550
REMARK  Name = 
REMARK  9 active torsions:
REMARK  status: ('A' for Active; 'I' for Inactive)
REMARK    1  A    between atoms: C_1  and  C_2
REMARK    2  A    between atoms: C_2  and  C_3
REMARK    3  A    between atoms: C_3  and  C_4
REMARK    4  A    between atoms: C_4  and  N_5
REMARK    5  A    between atoms: C_8  and  C_9
REMARK    6  A    between atoms: N_11  and  C_12
REMARK    7  A    between atoms: C_16  and  N_17
REMARK    8  A    between atoms: C_19  and  O_20
REMARK    9  A    between atoms: O_20  and  C_21
REMARK                            x       y       z     vdW  Elec       q    Type
REMARK                         _______ _______ _______ _____ _____    ______ ____
ROOT
ATOM      1  C   UNL     1       2.217   7.620  18.953  0.00  0.00    +0.000 C 
ATOM      2  O   UNL     1       1.936   7.344  17.786  0.00  0.00    +0.000 OA
ATOM      3  N   UNL     1       2.586   6.674  19.896  0.00  0.00    +0.000 N 
ATOM      4  H   UNL     1       3.176   6.976  20.661  0.00  0.00    +0.000 HD
ENDROOT
BRANCH   3   5
ATOM      5  C   UNL     1       2.749   5.315  19.545  0.00  0.00    +0.000 A 
ATOM      6  C   UNL     1       1.634   4.478  19.414  0.00  0.00    +0.000 A 
ATOM      7  C   UNL     1       1.806   3.151  19.013  0.00  0.00    +0.000 A 
ATOM      8 CL   UNL     1       0.415   2.132  18.904  0.00  0.00    +0.000 Cl
ATOM      9  C   UNL     1       3.081   2.667  18.678  0.00  0.00    +0.000 A 
ATOM     10  C   UNL     1       4.196   3.494  18.897  0.00  0.00    +0.000 A 
ATOM     11  C   UNL     1       4.041   4.813  19.336  0.00  0.00    +0.000 A 
BRANCH   9  12
ATOM     12  N   UNL     1       3.294   1.318  18.331  0.00  0.00    +0.000 N 
ATOM     13  H   UNL     1       3.593   1.219  17.361  0.00  0.00    +0.000 HD
ATOM     14  H   UNL     1       3.903   0.819  18.971  0.00  0.00    +0.000 HD
ENDBRANCH   9  12
BRANCH  11  15
ATOM     15  O   UNL     1       5.072   5.702  19.531  0.00  0.00    +0.000 OA
ATOM     16  C   UNL     1       6.093   5.727  18.540  0.00  0.00    +0.000 C 
ENDBRANCH  11  15
ENDBRANCH   3   5
BRANCH   1  20
ATOM     17  N   UNL     1      -0.540  10.197  18.984  0.00  0.00    +0.000 NA
ATOM     18  C   UNL     1      -0.347   9.153  20.004  0.00  0.00    +0.000 C 
ATOM     19  C   UNL     1       1.077   9.182  20.573  0.00  0.00    +0.000 C 
ATOM     20  C   UNL     1       2.144   9.059  19.474  0.00  0.00    +0.000 C 
ATOM     21  C   UNL     1       1.867  10.116  18.400  0.00  0.00    +0.000 C 
ATOM     22  C   UNL     1       0.427  10.045  17.888  0.00  0.00    +0.000 C 
BRANCH  17  23
ATOM     23  C   UNL     1      -1.912  10.189  18.438  0.00  0.00    +0.000 C 
BRANCH  23  24
ATOM     24  C   UNL     1      -2.027   9.805  16.955  0.00  0.00    +0.000 C 
BRANCH  24  26
ATOM     25  C   UNL     1      -3.119  10.303  14.741  0.00  0.00    +0.000 C 
ATOM     26  C   UNL     1      -2.765  10.849  16.116  0.00  0.00    +0.000 C 
ENDBRANCH  24  26
ENDBRANCH  23  24
ENDBRANCH  17  23
ENDBRANCH   1  20
TORSDOF 7
ENDMDL
MODEL 8
REMARK VINA RESULT:      -6.4      2.973      5.995
REMARK  Name = 
REMARK  9 active torsions:
REMARK  status: ('A' for Active; 'I' for Inactive)
REMARK    1  A    between atoms: C_1  and  C_2
REMARK    2  A    between atoms: C_2  and  C_3
REMARK    3  A    between atoms: C_3  and  C_4
REMARK    4  A    between atoms: C_4  and  N_5
REMARK    5  A    between atoms: C_8  and  C_9
REMARK    6  A    between atoms: N_11  and  C_12
REMARK    7  A    between atoms: C_16  and  N_17
REMARK    8  A    between atoms: C_19  and  O_20
REMARK    9  A    between atoms: O_20  and  C_21
REMARK                            x       y       z     vdW  Elec       q    Type
REMARK                         _______ _______ _______ _____ _____    ______ ____
ROOT
ATOM      1  C   UNL     1       2.709   4.786  17.762  0.00  0.00    +0.000 C 
ATOM      2  O   UNL     1       1.527   4.860  17.422  0.00  0.00    +0.000 OA
ATOM      3  N   UNL     1       3.330   5.718  18.577  0.00  0.00    +0.000 N 
ATOM      4  H   UNL     1       4.118   5.408  19.132  0.00  0.00    +0.000 HD
ENDROOT
BRANCH   3   5
ATOM      5  C   UNL     1       2.608   6.788  19.150  0.00  0.00    +0.000 A 
ATOM      6  C   UNL     1       2.459   7.995  18.456  0.00  0.00    +0.000 A 
ATOM      7  C   UNL     1       1.695   9.025  19.011  0.00  0.00    +0.000 A 
ATOM      8 CL   UNL     1       1.567  10.517  18.151  0.00  0.00    +0.000 Cl
ATOM      9  C   UNL     1       1.023   8.836  20.230  0.00  0.00    +0.000 A 
ATOM     10  C   UNL     1       1.253   7.654  20.952  0.00  0.00    +0.000 A 
ATOM     11  C   UNL     1       2.047   6.630  20.426  0.00  0.00    +0.000 A 
BRANCH   9  12
ATOM     12  N   UNL     1       0.297   9.877  20.845  0.00  0.00    +0.000 N 
ATOM     13  H   UNL     1      -0.678   9.621  20.995  0.00  0.00    +0.000 HD
ATOM     14  H   UNL     1       0.732  10.240  21.686  0.00  0.00    +0.000 HD
ENDBRANCH   9  12
BRANCH  11  15
ATOM     15  O   UNL     1       2.286   5.424  21.043  0.00  0.00    +0.000 OA
ATOM     16  C   UNL     1       1.316   4.401  20.848  0.00  0.00    +0.000 C 
ENDBRANCH  11  15
ENDBRANCH   3   5
BRANCH   1  20
ATOM     17  N   UNL     1       6.456   4.423  17.503  0.00  0.00    +0.000 NA
ATOM     18  C   UNL     1       5.660   4.135  18.708  0.00  0.00    +0.000 C 
ATOM     19  C   UNL     1       4.521   3.154  18.405  0.00  0.00    +0.000 C 
ATOM     20  C   UNL     1       3.612   3.651  17.270  0.00  0.00    +0.000 C 
ATOM     21  C   UNL     1       4.485   4.004  16.062  0.00  0.00    +0.000 C 
ATOM     22  C   UNL     1       5.611   4.970  16.434  0.00  0.00    +0.000 C 
BRANCH  17  23
ATOM     23  C   UNL     1       7.565   5.356  17.784  0.00  0.00    +0.000 C 
BRANCH  23  24
ATOM     24  C   UNL     1       7.207   6.848  17.701  0.00  0.00    +0.000 C 
BRANCH  24  26
ATOM     25  C   UNL     1       8.207   9.153  17.864  0.00  0.00    +0.000 C 
ATOM     26  C   UNL     1       8.193   7.748  18.448  0.00  0.00    +0.000 C 
ENDBRANCH  24  26
ENDBRANCH  23  24
ENDBRANCH  17  23
ENDBRANCH   1  20
TORSDOF 7
ENDMDL
MODEL 9
REMARK VINA RESULT:      -6.4      1.192      1.405
REMARK  Name = 
REMARK  9 active torsions:
REMARK  status: ('A' for Active; 'I' for Inactive)
REMARK    1  A    between atoms: C_1  and  C_2
REMARK    2  A    between atoms: C_2  and  C_3
REMARK    3  A    between atoms: C_3  and  C_4
REMARK    4  A    between atoms: C_4  and  N_5
REMARK    5  A    between atoms: C_8  and  C_9
REMARK    6  A    between atoms: N_11  and  C_12
REMARK    7  A    between atoms: C_16  and  N_17
REMARK    8  A    between atoms: C_19  and  O_20
REMARK    9  A    between atoms: O_20  and  C_21
REMARK                            x       y       z     vdW  Elec       q    Type
REMARK                         _______ _______ _______ _____ _____    ______ ____
ROOT
ATOM      1  C   UNL     1       3.850   3.179  17.781  0.00  0.00    +0.000 C 
ATOM      2  O   UNL     1       4.470   2.153  17.496  0.00  0.00    +0.000 OA
ATOM      3  N   UNL     1       4.174   4.431  17.287  0.00  0.00    +0.000 N 
ATOM      4  H   UNL     1       3.433   5.116  17.215  0.00  0.00    +0.000 HD
ENDROOT
BRANCH   3   5
ATOM      5  C   UNL     1       5.207   4.600  16.338  0.00  0.00    +0.000 A 
ATOM      6  C   UNL     1       5.105   4.019  15.068  0.00  0.00    +0.000 A 
ATOM      7  C   UNL     1       6.109   4.241  14.121  0.00  0.00    +0.000 A 
ATOM      8 CL   UNL     1       5.976   3.474  12.579  0.00  0.00    +0.000 Cl
ATOM      9  C   UNL     1       7.187   5.093  14.411  0.00  0.00    +0.000 A 
ATOM     10  C   UNL     1       7.317   5.598  15.716  0.00  0.00    +0.000 A 
ATOM     11  C   UNL     1       6.339   5.351  16.686  0.00  0.00    +0.000 A 
BRANCH   9  12
ATOM     12  N   UNL     1       8.245   5.286  13.500  0.00  0.00    +0.000 N 
ATOM     13  H   UNL     1       8.914   5.978  13.838  0.00  0.00    +0.000 HD
ATOM     14  H   UNL     1       8.699   4.426  13.209  0.00  0.00    +0.000 HD
ENDBRANCH   9  12
BRANCH  11  15
ATOM     15  O   UNL     1       6.364   5.843  17.970  0.00  0.00    +0.000 OA
ATOM     16  C   UNL     1       7.572   5.661  18.702  0.00  0.00    +0.000 C 
ENDBRANCH  11  15
ENDBRANCH   3   5
BRANCH   1  20
ATOM     17  N   UNL     1       1.949   5.900  19.577  0.00  0.00    +0.000 NA
ATOM     18  C   UNL     1       1.668   5.434  18.209  0.00  0.00    +0.000 C 
ATOM     19  C   UNL     1       1.468   3.914  18.165  0.00  0.00    +0.000 C 
ATOM     20  C   UNL     1       2.666   3.153  18.754  0.00  0.00    +0.000 C 
ATOM     21  C   UNL     1       2.968   3.714  20.146  0.00  0.00    +0.000 C 
ATOM     22  C   UNL     1       3.139   5.234  20.124  0.00  0.00    +0.000 C 
BRANCH  17  23
ATOM     23  C   UNL     1       2.131   7.364  19.636  0.00  0.00    +0.000 C 
BRANCH  23  24
ATOM     24  C   UNL     1       2.475   8.038  18.298  0.00  0.00    +0.000 C 
BRANCH  24  26
ATOM     25  C   UNL     1       0.984   9.856  19.197  0.00  0.00    +0.000 C 
ATOM     26  C   UNL     1       1.537   9.193  17.945  0.00  0.00    +0.000 C 
ENDBRANCH  24  26
ENDBRANCH  23  24
ENDBRANCH  17  23
ENDBRANCH   1  20
TORSDOF 7
ENDMDL
