MODEL 1
REMARK VINA RESULT:      -7.9      0.000      0.000
REMARK  Name = 
REMARK  4 active torsions:
REMARK  status: ('A' for Active; 'I' for Inactive)
REMARK    1  A    between atoms: C_1  and  C_2
REMARK    2  A    between atoms: C_2  and  C_3
REMARK    3  A    between atoms: C_11  and  C_12
REMARK    4  A    between atoms: C_12  and  N_14
REMARK                            x       y       z     vdW  Elec       q    Type
REMARK                         _______ _______ _______ _____ _____    ______ ____
ROOT
ATOM      1  C   UNL     1       2.541   4.277  21.622  0.00  0.00    +0.000 C 
ATOM      2  C   UNL     1       2.246   4.677  20.158  0.00  0.00    +0.000 C 
ATOM      3  C   UNL     1       1.642   6.105  20.168  0.00  0.00    +0.000 C 
ATOM      4  C   UNL     1       1.144   3.753  19.579  0.00  0.00    +0.000 C 
ATOM      5  C   UNL     1       1.608   2.326  19.364  0.00  0.00    +0.000 C 
ATOM      6  S   UNL     1       2.807   2.276  18.067  0.00  0.00    +0.000 S 
ATOM      7  O   UNL     1       3.578   1.058  18.232  0.00  0.00    +0.000 OA
ATOM      8  O   UNL     1       2.143   2.589  16.818  0.00  0.00    +0.000 OA
ATOM      9  C   UNL     1       3.890   3.634  18.421  0.00  0.00    +0.000 A 
ATOM     10  C   UNL     1       5.113   3.633  17.724  0.00  0.00    +0.000 A 
ATOM     11  C   UNL     1       6.040   4.655  17.941  0.00  0.00    +0.000 A 
ATOM     12  C   UNL     1       5.741   5.652  18.871  0.00  0.00    +0.000 A 
ATOM     13  C   UNL     1       4.529   5.635  19.572  0.00  0.00    +0.000 A 
ATOM     14  C   UNL     1       3.558   4.635  19.356  0.00  0.00    +0.000 A 
ENDROOT
BRANCH  11  15
ATOM     15  C   UNL     1       7.331   4.709  17.193  0.00  0.00    +0.000 C 
ATOM     16  O   UNL     1       8.293   4.110  17.679  0.00  0.00    +0.000 OA
BRANCH  15  17
ATOM     17  N   UNL     1       7.325   5.426  16.026  0.00  0.00    +0.000 NA
ATOM     18  C   UNL     1       7.006   4.842  14.921  0.00  0.00    +0.000 C 
ATOM     19  N   UNL     1       6.632   3.555  14.724  0.00  0.00    +0.000 N 
ATOM     20  N   UNL     1       6.973   5.542  13.771  0.00  0.00    +0.000 N 
ATOM     21  H   UNL     1       6.834   2.955  15.524  0.00  0.00    +0.000 HD
ATOM     22  H   UNL     1       6.821   3.125  13.832  0.00  0.00    +0.000 HD
ATOM     23  H   UNL     1       7.192   6.528  13.805  0.00  0.00    +0.000 HD
ATOM     24  H   UNL     1       6.806   5.115  12.876  0.00  0.00    +0.000 HD
ENDBRANCH  15  17
ENDBRANCH  11  15
TORSDOF 2
ENDMDL
MODEL 2
REMARK VINA RESULT:      -7.7      1.902      2.603
REMARK  Name = 
REMARK  4 active torsions:
REMARK  status: ('A' for Active; 'I' for Inactive)
REMARK    1  A    between atoms: C_1  and  C_2
REMARK    2  A    between atoms: C_2  and  C_3
REMARK    3  A    between atoms: C_11  and  C_12
REMARK    4  A    between atoms: C_12  and  N_14
REMARK                            x       y       z     vdW  Elec       q    Type
REMARK                         _______ _______ _______ _____ _____    ______ ____
ROOT
ATOM      1  C   UNL     1       1.457   5.038  20.056  0.00  0.00    +0.000 C 
ATOM      2  C   UNL     1       1.799   4.145  18.840  0.00  0.00    +0.000 C 
ATOM      3  C   UNL     1       0.777   4.459  17.717  0.00  0.00    +0.000 C 
ATOM      4  C   UNL     1       1.578   2.656  19.212  0.00  0.00    +0.000 C 
ATOM      5  C   UNL     1       2.591   2.129  20.209  0.00  0.00    +0.000 C 
ATOM      6  S   UNL     1       4.188   2.056  19.456  0.00  0.00    +0.000 S 
ATOM      7  O   UNL     1       5.173   2.055  20.521  0.00  0.00    +0.000 OA
ATOM      8  O   UNL     1       4.168   1.023  18.440  0.00  0.00    +0.000 OA
ATOM      9  C   UNL     1       4.340   3.603  18.603  0.00  0.00    +0.000 A 
ATOM     10  C   UNL     1       5.640   3.938  18.180  0.00  0.00    +0.000 A 
ATOM     11  C   UNL     1       5.866   5.141  17.509  0.00  0.00    +0.000 A 
ATOM     12  C   UNL     1       4.792   6.006  17.290  0.00  0.00    +0.000 A 
ATOM     13  C   UNL     1       3.505   5.672  17.731  0.00  0.00    +0.000 A 
ATOM     14  C   UNL     1       3.236   4.451  18.385  0.00  0.00    +0.000 A 
ENDROOT
BRANCH  11  15
ATOM     15  C   UNL     1       7.223   5.514  17.011  0.00  0.00    +0.000 C 
ATOM     16  O   UNL     1       8.001   4.596  16.745  0.00  0.00    +0.000 OA
BRANCH  15  17
ATOM     17  N   UNL     1       7.479   6.855  16.896  0.00  0.00    +0.000 NA
ATOM     18  C   UNL     1       7.985   7.495  17.896  0.00  0.00    +0.000 C 
ATOM     19  N   UNL     1       8.344   7.015  19.110  0.00  0.00    +0.000 N 
ATOM     20  N   UNL     1       8.264   8.808  17.787  0.00  0.00    +0.000 N 
ATOM     21  H   UNL     1       7.970   6.084  19.297  0.00  0.00    +0.000 HD
ATOM     22  H   UNL     1       8.316   7.635  19.905  0.00  0.00    +0.000 HD
ATOM     23  H   UNL     1       8.078   9.264  16.905  0.00  0.00    +0.000 HD
ATOM     24  H   UNL     1       8.586   9.364  18.560  0.00  0.00    +0.000 HD
ENDBRANCH  15  17
ENDBRANCH  11  15
TORSDOF 2
ENDMDL
MODEL 3
REMARK VINA RESULT:      -7.6      4.768      6.319
REMARK  Name = 
REMARK  4 active torsions:
REMARK  status: ('A' for Active; 'I' for Inactive)
REMARK    1  A    between atoms: C_1  and  C_2
REMARK    2  A    between atoms: C_2  and  C_3
REMARK    3  A    between atoms: C_11  and  C_12
REMARK    4  A    between atoms: C_12  and  N_14
REMARK                            x       y       z     vdW  Elec       q    Type
REMARK                         _______ _______ _______ _____ _____    ______ ____
ROOT
ATOM      1  C   UNL     1       4.690   3.412  19.163  0.00  0.00    +0.000 C 
ATOM      2  C   UNL     1       4.093   3.817  17.795  0.00  0.00    +0.000 C 
ATOM      3  C   UNL     1       2.941   2.831  17.469  0.00  0.00    +0.000 C 
ATOM      4  C   UNL     1       5.155   3.611  16.684  0.00  0.00    +0.000 C 
ATOM      5  C   UNL     1       6.304   4.596  16.761  0.00  0.00    +0.000 C 
ATOM      6  S   UNL     1       5.725   6.221  16.379  0.00  0.00    +0.000 S 
ATOM      7  O   UNL     1       6.670   7.165  16.945  0.00  0.00    +0.000 OA
ATOM      8  O   UNL     1       5.363   6.259  14.977  0.00  0.00    +0.000 OA
ATOM      9  C   UNL     1       4.217   6.375  17.297  0.00  0.00    +0.000 A 
ATOM     10  C   UNL     1       3.712   7.682  17.422  0.00  0.00    +0.000 A 
ATOM     11  C   UNL     1       2.534   7.910  18.136  0.00  0.00    +0.000 A 
ATOM     12  C   UNL     1       1.888   6.828  18.737  0.00  0.00    +0.000 A 
ATOM     13  C   UNL     1       2.407   5.533  18.622  0.00  0.00    +0.000 A 
ATOM     14  C   UNL     1       3.578   5.263  17.883  0.00  0.00    +0.000 A 
ENDROOT
BRANCH  11  15
ATOM     15  C   UNL     1       1.947   9.277  18.258  0.00  0.00    +0.000 C 
ATOM     16  O   UNL     1       2.256  10.106  17.399  0.00  0.00    +0.000 OA
BRANCH  15  17
ATOM     17  N   UNL     1       1.112   9.486  19.324  0.00  0.00    +0.000 NA
ATOM     18  C   UNL     1       0.030  10.170  19.161  0.00  0.00    +0.000 C 
ATOM     19  N   UNL     1      -0.451  10.732  18.027  0.00  0.00    +0.000 N 
ATOM     20  N   UNL     1      -0.811  10.361  20.195  0.00  0.00    +0.000 N 
ATOM     21  H   UNL     1       0.244  10.779  17.280  0.00  0.00    +0.000 HD
ATOM     22  H   UNL     1      -1.029  11.555  18.099  0.00  0.00    +0.000 HD
ATOM     23  H   UNL     1      -0.575   9.946  21.086  0.00  0.00    +0.000 HD
ATOM     24  H   UNL     1      -1.624  10.949  20.137  0.00  0.00    +0.000 HD
ENDBRANCH  15  17
ENDBRANCH  11  15
TORSDOF 2
ENDMDL
MODEL 4
REMARK VINA RESULT:      -7.6      1.016      1.249
REMARK  Name = 
REMARK  4 active torsions:
REMARK  status: ('A' for Active; 'I' for Inactive)
REMARK    1  A    between atoms: C_1  and  C_2
REMARK    2  A    between atoms: C_2  and  C_3
REMARK    3  A    between atoms: C_11  and  C_12
REMARK    4  A    between atoms: C_12  and  N_14
REMARK                            x       y       z     vdW  Elec       q    Type
REMARK                         _______ _______ _______ _____ _____    ______ ____
ROOT
ATOM      1  C   UNL     1       2.605   3.846  21.782  0.00  0.00    +0.000 C 
ATOM      2  C   UNL     1       2.249   4.769  20.593  0.00  0.00    +0.000 C 
ATOM      3  C   UNL     1       2.155   6.220  21.129  0.00  0.00    +0.000 C 
ATOM      4  C   UNL     1       0.833   4.416  20.069  0.00  0.00    +0.000 C 
ATOM      5  C   UNL     1       0.766   3.070  19.376  0.00  0.00    +0.000 C 
ATOM      6  S   UNL     1       1.680   3.130  17.865  0.00  0.00    +0.000 S 
ATOM      7  O   UNL     1       2.024   1.766  17.508  0.00  0.00    +0.000 OA
ATOM      8  O   UNL     1       0.982   4.002  16.942  0.00  0.00    +0.000 OA
ATOM      9  C   UNL     1       3.189   3.954  18.299  0.00  0.00    +0.000 A 
ATOM     10  C   UNL     1       4.228   3.855  17.356  0.00  0.00    +0.000 A 
ATOM     11  C   UNL     1       5.460   4.461  17.610  0.00  0.00    +0.000 A 
ATOM     12  C   UNL     1       5.644   5.139  18.816  0.00  0.00    +0.000 A 
ATOM     13  C   UNL     1       4.609   5.217  19.756  0.00  0.00    +0.000 A 
ATOM     14  C   UNL     1       3.343   4.643  19.519  0.00  0.00    +0.000 A 
ENDROOT
BRANCH  11  15
ATOM     15  C   UNL     1       6.574   4.410  16.617  0.00  0.00    +0.000 C 
ATOM     16  O   UNL     1       7.645   4.931  16.939  0.00  0.00    +0.000 OA
BRANCH  15  17
ATOM     17  N   UNL     1       6.300   3.783  15.430  0.00  0.00    +0.000 NA
ATOM     18  C   UNL     1       6.728   4.296  14.326  0.00  0.00    +0.000 C 
ATOM     19  N   UNL     1       7.468   5.415  14.146  0.00  0.00    +0.000 N 
ATOM     20  N   UNL     1       6.486   3.677  13.155  0.00  0.00    +0.000 N 
ATOM     21  H   UNL     1       7.501   6.009  14.976  0.00  0.00    +0.000 HD
ATOM     22  H   UNL     1       7.376   5.926  13.282  0.00  0.00    +0.000 HD
ATOM     23  H   UNL     1       5.977   2.804  13.172  0.00  0.00    +0.000 HD
ATOM     24  H   UNL     1       6.731   4.076  12.265  0.00  0.00    +0.000 HD
ENDBRANCH  15  17
ENDBRANCH  11  15
TORSDOF 2
ENDMDL
MODEL 5
REMARK VINA RESULT:      -7.6      4.766      6.220
REMARK  Name = 
REMARK  4 active torsions:
REMARK  status: ('A' for Active; 'I' for Inactive)
REMARK    1  A    between atoms: C_1  and  C_2
REMARK    2  A    between atoms: C_2  and  C_3
REMARK    3  A    between atoms: C_11  and  C_12
REMARK    4  A    between atoms: C_12  and  N_14
REMARK                            x       y       z     vdW  Elec       q    Type
REMARK                         _______ _______ _______ _____ _____    ______ ____
ROOT
ATOM      1  C   UNL     1       1.327  11.579  18.752  0.00  0.00    +0.000 C 
ATOM      2  C   UNL     1       0.329  10.417  18.968  0.00  0.00    +0.000 C 
ATOM      3  C   UNL     1      -0.563  10.316  17.704  0.00  0.00    +0.000 C 
ATOM      4  C   UNL     1      -0.628  10.766  20.138  0.00  0.00    +0.000 C 
ATOM      5  C   UNL     1       0.053  10.771  21.491  0.00  0.00    +0.000 C 
ATOM      6  S   UNL     1       0.532   9.127  21.926  0.00  0.00    +0.000 S 
ATOM      7  O   UNL     1       1.588   9.227  22.915  0.00  0.00    +0.000 OA
ATOM      8  O   UNL     1      -0.666   8.351  22.172  0.00  0.00    +0.000 OA
ATOM      9  C   UNL     1       1.261   8.478  20.445  0.00  0.00    +0.000 A 
ATOM     10  C   UNL     1       2.010   7.297  20.603  0.00  0.00    +0.000 A 
ATOM     11  C   UNL     1       2.632   6.714  19.498  0.00  0.00    +0.000 A 
ATOM     12  C   UNL     1       2.518   7.332  18.252  0.00  0.00    +0.000 A 
ATOM     13  C   UNL     1       1.786   8.517  18.108  0.00  0.00    +0.000 A 
ATOM     14  C   UNL     1       1.119   9.118  19.197  0.00  0.00    +0.000 A 
ENDROOT
BRANCH  11  15
ATOM     15  C   UNL     1       3.403   5.440  19.619  0.00  0.00    +0.000 C 
ATOM     16  O   UNL     1       2.873   4.514  20.236  0.00  0.00    +0.000 OA
BRANCH  15  17
ATOM     17  N   UNL     1       4.638   5.421  19.027  0.00  0.00    +0.000 NA
ATOM     18  C   UNL     1       5.302   4.315  18.975  0.00  0.00    +0.000 C 
ATOM     19  N   UNL     1       4.939   3.091  19.424  0.00  0.00    +0.000 N 
ATOM     20  N   UNL     1       6.507   4.278  18.374  0.00  0.00    +0.000 N 
ATOM     21  H   UNL     1       4.134   3.119  20.051  0.00  0.00    +0.000 HD
ATOM     22  H   UNL     1       5.658   2.444  19.710  0.00  0.00    +0.000 HD
ATOM     23  H   UNL     1       6.862   5.130  17.962  0.00  0.00    +0.000 HD
ATOM     24  H   UNL     1       7.094   3.462  18.377  0.00  0.00    +0.000 HD
ENDBRANCH  15  17
ENDBRANCH  11  15
TORSDOF 2
ENDMDL
MODEL 6
REMARK VINA RESULT:      -7.5      1.559      1.673
REMARK  Name = 
REMARK  4 active torsions:
REMARK  status: ('A' for Active; 'I' for Inactive)
REMARK    1  A    between atoms: C_1  and  C_2
REMARK    2  A    between atoms: C_2  and  C_3
REMARK    3  A    between atoms: C_11  and  C_12
REMARK    4  A    between atoms: C_12  and  N_14
REMARK                            x       y       z     vdW  Elec       q    Type
REMARK                         _______ _______ _______ _____ _____    ______ ____
ROOT
ATOM      1  C   UNL     1       2.636   4.626  21.604  0.00  0.00    +0.000 C 
ATOM      2  C   UNL     1       1.789   4.615  20.310  0.00  0.00    +0.000 C 
ATOM      3  C   UNL     1       0.733   5.745  20.425  0.00  0.00    +0.000 C 
ATOM      4  C   UNL     1       0.988   3.291  20.225  0.00  0.00    +0.000 C 
ATOM      5  C   UNL     1       1.858   2.077  19.969  0.00  0.00    +0.000 C 
ATOM      6  S   UNL     1       2.541   2.163  18.342  0.00  0.00    +0.000 S 
ATOM      7  O   UNL     1       3.718   1.316  18.317  0.00  0.00    +0.000 OA
ATOM      8  O   UNL     1       1.466   1.996  17.385  0.00  0.00    +0.000 OA
ATOM      9  C   UNL     1       3.098   3.839  18.190  0.00  0.00    +0.000 A 
ATOM     10  C   UNL     1       3.964   4.097  17.112  0.00  0.00    +0.000 A 
ATOM     11  C   UNL     1       4.467   5.385  16.913  0.00  0.00    +0.000 A 
ATOM     12  C   UNL     1       4.115   6.394  17.811  0.00  0.00    +0.000 A 
ATOM     13  C   UNL     1       3.267   6.124  18.891  0.00  0.00    +0.000 A 
ATOM     14  C   UNL     1       2.717   4.843  19.105  0.00  0.00    +0.000 A 
ENDROOT
BRANCH  11  15
ATOM     15  C   UNL     1       5.357   5.705  15.758  0.00  0.00    +0.000 C 
ATOM     16  O   UNL     1       5.948   6.787  15.781  0.00  0.00    +0.000 OA
BRANCH  15  17
ATOM     17  N   UNL     1       5.434   4.757  14.771  0.00  0.00    +0.000 NA
ATOM     18  C   UNL     1       6.545   4.589  14.136  0.00  0.00    +0.000 C 
ATOM     19  N   UNL     1       7.726   5.227  14.316  0.00  0.00    +0.000 N 
ATOM     20  N   UNL     1       6.641   3.644  13.181  0.00  0.00    +0.000 N 
ATOM     21  H   UNL     1       7.640   6.071  14.883  0.00  0.00    +0.000 HD
ATOM     22  H   UNL     1       8.351   5.323  13.531  0.00  0.00    +0.000 HD
ATOM     23  H   UNL     1       5.830   3.073  12.991  0.00  0.00    +0.000 HD
ATOM     24  H   UNL     1       7.459   3.528  12.608  0.00  0.00    +0.000 HD
ENDBRANCH  15  17
ENDBRANCH  11  15
TORSDOF 2
ENDMDL
MODEL 7
REMARK VINA RESULT:      -7.5      4.547      6.146
REMARK  Name = 
REMARK  4 active torsions:
REMARK  status: ('A' for Active; 'I' for Inactive)
REMARK    1  A    between atoms: C_1  and  C_2
REMARK    2  A    between atoms: C_2  and  C_3
REMARK    3  A    between atoms: C_11  and  C_12
REMARK    4  A    between atoms: C_12  and  N_14
REMARK                            x       y       z     vdW  Elec       q    Type
REMARK                         _______ _______ _______ _____ _____    ______ ____
ROOT
ATOM      1  C   UNL     1       4.792   3.541  19.175  0.00  0.00    +0.000 C 
ATOM      2  C   UNL     1       4.153   3.952  17.828  0.00  0.00    +0.000 C 
ATOM      3  C   UNL     1       3.054   2.913  17.487  0.00  0.00    +0.000 C 
ATOM      4  C   UNL     1       5.209   3.840  16.697  0.00  0.00    +0.000 C 
ATOM      5  C   UNL     1       6.302   4.886  16.790  0.00  0.00    +0.000 C 
ATOM      6  S   UNL     1       5.627   6.486  16.465  0.00  0.00    +0.000 S 
ATOM      7  O   UNL     1       6.525   7.466  17.047  0.00  0.00    +0.000 OA
ATOM      8  O   UNL     1       5.242   6.545  15.069  0.00  0.00    +0.000 OA
ATOM      9  C   UNL     1       4.126   6.527  17.407  0.00  0.00    +0.000 A 
ATOM     10  C   UNL     1       3.550   7.799  17.578  0.00  0.00    +0.000 A 
ATOM     11  C   UNL     1       2.371   7.938  18.314  0.00  0.00    +0.000 A 
ATOM     12  C   UNL     1       1.796   6.804  18.890  0.00  0.00    +0.000 A 
ATOM     13  C   UNL     1       2.386   5.544  18.729  0.00  0.00    +0.000 A 
ATOM     14  C   UNL     1       3.559   5.363  17.967  0.00  0.00    +0.000 A 
ENDROOT
BRANCH  11  15
ATOM     15  C   UNL     1       1.710   9.265  18.485  0.00  0.00    +0.000 C 
ATOM     16  O   UNL     1       0.785   9.338  19.297  0.00  0.00    +0.000 OA
BRANCH  15  17
ATOM     17  N   UNL     1       2.198  10.289  17.717  0.00  0.00    +0.000 NA
ATOM     18  C   UNL     1       2.135  11.501  18.156  0.00  0.00    +0.000 C 
ATOM     19  N   UNL     1       1.651  11.946  19.340  0.00  0.00    +0.000 N 
ATOM     20  N   UNL     1       2.634  12.513  17.421  0.00  0.00    +0.000 N 
ATOM     21  H   UNL     1       1.093  11.245  19.830  0.00  0.00    +0.000 HD
ATOM     22  H   UNL     1       1.272  12.879  19.391  0.00  0.00    +0.000 HD
ATOM     23  H   UNL     1       3.063  12.293  16.533  0.00  0.00    +0.000 HD
ATOM     24  H   UNL     1       2.539  13.479  17.685  0.00  0.00    +0.000 HD
ENDBRANCH  15  17
ENDBRANCH  11  15
TORSDOF 2
ENDMDL
MODEL 8
REMARK VINA RESULT:      -7.5      1.863      2.298
REMARK  Name = 
REMARK  4 active torsions:
REMARK  status: ('A' for Active; 'I' for Inactive)
REMARK    1  A    between atoms: C_1  and  C_2
REMARK    2  A    between atoms: C_2  and  C_3
REMARK    3  A    between atoms: C_11  and  C_12
REMARK    4  A    between atoms: C_12  and  N_14
REMARK                            x       y       z     vdW  Elec       q    Type
REMARK                         _______ _______ _______ _____ _____    ______ ____
ROOT
ATOM      1  C   UNL     1       3.348   6.302  20.044  0.00  0.00    +0.000 C 
ATOM      2  C   UNL     1       2.609   5.940  18.734  0.00  0.00    +0.000 C 
ATOM      3  C   UNL     1       1.800   7.185  18.286  0.00  0.00    +0.000 C 
ATOM      4  C   UNL     1       1.561   4.832  19.019  0.00  0.00    +0.000 C 
ATOM      5  C   UNL     1       2.182   3.488  19.341  0.00  0.00    +0.000 C 
ATOM      6  S   UNL     1       2.979   2.838  17.905  0.00  0.00    +0.000 S 
ATOM      7  O   UNL     1       3.958   1.864  18.352  0.00  0.00    +0.000 OA
ATOM      8  O   UNL     1       1.962   2.498  16.931  0.00  0.00    +0.000 OA
ATOM      9  C   UNL     1       3.876   4.216  17.242  0.00  0.00    +0.000 A 
ATOM     10  C   UNL     1       4.850   3.900  16.276  0.00  0.00    +0.000 A 
ATOM     11  C   UNL     1       5.617   4.915  15.701  0.00  0.00    +0.000 A 
ATOM     12  C   UNL     1       5.417   6.232  16.118  0.00  0.00    +0.000 A 
ATOM     13  C   UNL     1       4.458   6.535  17.092  0.00  0.00    +0.000 A 
ATOM     14  C   UNL     1       3.645   5.539  17.672  0.00  0.00    +0.000 A 
ENDROOT
BRANCH  11  15
ATOM     15  C   UNL     1       6.632   4.623  14.646  0.00  0.00    +0.000 C 
ATOM     16  O   UNL     1       7.622   5.357  14.593  0.00  0.00    +0.000 OA
BRANCH  15  17
ATOM     17  N   UNL     1       6.367   3.557  13.828  0.00  0.00    +0.000 NA
ATOM     18  C   UNL     1       6.691   3.616  12.580  0.00  0.00    +0.000 C 
ATOM     19  N   UNL     1       7.310   4.620  11.915  0.00  0.00    +0.000 N 
ATOM     20  N   UNL     1       6.458   2.565  11.771  0.00  0.00    +0.000 N 
ATOM     21  H   UNL     1       7.323   5.496  12.439  0.00  0.00    +0.000 HD
ATOM     22  H   UNL     1       7.128   4.735  10.930  0.00  0.00    +0.000 HD
ATOM     23  H   UNL     1       6.038   1.737  12.171  0.00  0.00    +0.000 HD
ATOM     24  H   UNL     1       6.621   2.592  10.779  0.00  0.00    +0.000 HD
ENDBRANCH  15  17
ENDBRANCH  11  15
TORSDOF 2
ENDMDL
MODEL 9
REMARK VINA RESULT:      -7.4      1.192      1.392
REMARK  Name = 
REMARK  4 active torsions:
REMARK  status: ('A' for Active; 'I' for Inactive)
REMARK    1  A    between atoms: C_1  and  C_2
REMARK    2  A    between atoms: C_2  and  C_3
REMARK    3  A    between atoms: C_11  and  C_12
REMARK    4  A    between atoms: C_12  and  N_14
REMARK                            x       y       z     vdW  Elec       q    Type
REMARK                         _______ _______ _______ _____ _____    ______ ____
ROOT
ATOM      1  C   UNL     1       2.159   5.933  20.358  0.00  0.00    +0.000 C 
ATOM      2  C   UNL     1       2.101   5.000  19.125  0.00  0.00    +0.000 C 
ATOM      3  C   UNL     1       1.108   5.619  18.107  0.00  0.00    +0.000 C 
ATOM      4  C   UNL     1       1.491   3.634  19.536  0.00  0.00    +0.000 C 
ATOM      5  C   UNL     1       2.399   2.817  20.432  0.00  0.00    +0.000 C 
ATOM      6  S   UNL     1       3.821   2.292  19.523  0.00  0.00    +0.000 S 
ATOM      7  O   UNL     1       4.864   1.983  20.483  0.00  0.00    +0.000 OA
ATOM      8  O   UNL     1       3.397   1.328  18.527  0.00  0.00    +0.000 OA
ATOM      9  C   UNL     1       4.334   3.741  18.640  0.00  0.00    +0.000 A 
ATOM     10  C   UNL     1       5.625   3.688  18.083  0.00  0.00    +0.000 A 
ATOM     11  C   UNL     1       6.126   4.784  17.377  0.00  0.00    +0.000 A 
ATOM     12  C   UNL     1       5.336   5.929  17.258  0.00  0.00    +0.000 A 
ATOM     13  C   UNL     1       4.059   5.979  17.830  0.00  0.00    +0.000 A 
ATOM     14  C   UNL     1       3.511   4.879  18.523  0.00  0.00    +0.000 A 
ENDROOT
BRANCH  11  15
ATOM     15  C   UNL     1       7.475   4.752  16.740  0.00  0.00    +0.000 C 
ATOM     16  O   UNL     1       8.380   4.186  17.357  0.00  0.00    +0.000 OA
BRANCH  15  17
ATOM     17  N   UNL     1       7.583   5.360  15.517  0.00  0.00    +0.000 NA
ATOM     18  C   UNL     1       7.115   4.769  14.469  0.00  0.00    +0.000 C 
ATOM     19  N   UNL     1       6.477   3.578  14.386  0.00  0.00    +0.000 N 
ATOM     20  N   UNL     1       7.192   5.368  13.265  0.00  0.00    +0.000 N 
ATOM     21  H   UNL     1       6.574   3.014  15.231  0.00  0.00    +0.000 HD
ATOM     22  H   UNL     1       6.545   3.049  13.530  0.00  0.00    +0.000 HD
ATOM     23  H   UNL     1       7.612   6.286  13.214  0.00  0.00    +0.000 HD
ATOM     24  H   UNL     1       6.913   4.916  12.411  0.00  0.00    +0.000 HD
ENDBRANCH  15  17
ENDBRANCH  11  15
TORSDOF 2
ENDMDL
