MODEL 1
REMARK VINA RESULT:      -7.6      0.000      0.000
REMARK  Name = 
REMARK  7 active torsions:
REMARK  status: ('A' for Active; 'I' for Inactive)
REMARK    1  A    between atoms: N_12  and  O_13
REMARK    2  A    between atoms: O_13  and  C_14
REMARK    3  A    between atoms: C_14  and  C_15
REMARK    4  A    between atoms: C_15  and  O_16
REMARK    5  A    between atoms: C_15  and  C_17
REMARK    6  A    between atoms: C_17  and  N_18
REMARK    7  A    between atoms: N_21  and  C_22
REMARK                            x       y       z     vdW  Elec       q    Type
REMARK                         _______ _______ _______ _____ _____    ______ ____
ROOT
ATOM      1  C   UNL     1       8.196   8.150  18.642  0.00  0.00    +0.000 C 
ENDROOT
BRANCH   1   2
ATOM      2  O   UNL     1       8.736   6.957  19.234  0.00  0.00    +0.000 OA
ATOM      3  H   UNL     1       9.146   7.183  20.080  0.00  0.00    +0.000 HD
ENDBRANCH   1   2
BRANCH   1   4
ATOM      4  C   UNL     1       7.578   7.791  17.281  0.00  0.00    +0.000 C 
BRANCH   4   5
ATOM      5  O   UNL     1       7.189   6.407  17.320  0.00  0.00    +0.000 OA
BRANCH   5  17
ATOM      6  O   UNL     1       6.540   5.056  19.717  0.00  0.00    +0.000 OA
ATOM      7  C   UNL     1       5.695   5.533  18.971  0.00  0.00    +0.000 C 
ATOM      8  C   UNL     1       4.204   5.304  19.114  0.00  0.00    +0.000 C 
ATOM      9  C   UNL     1       3.823   3.814  19.251  0.00  0.00    +0.000 C 
ATOM     10  C   UNL     1       2.314   3.655  19.148  0.00  0.00    +0.000 C 
ATOM     11  C   UNL     1       1.965   3.913  17.873  0.00  0.00    +0.000 C 
ATOM     12  C   UNL     1       3.232   4.287  17.140  0.00  0.00    +0.000 C 
ATOM     13  C   UNL     1       4.167   3.293  17.849  0.00  0.00    +0.000 C 
ATOM     14  C   UNL     1       3.663   5.664  17.704  0.00  0.00    +0.000 C 
ATOM     15  C   UNL     1       4.837   6.250  16.972  0.00  0.00    +0.000 C 
ATOM     16  O   UNL     1       4.805   6.578  15.796  0.00  0.00    +0.000 OA
ATOM     17  N   UNL     1       5.892   6.276  17.838  0.00  0.00    +0.000 N 
ENDBRANCH   5  17
ENDBRANCH   4   5
ENDBRANCH   1   4
BRANCH   1  18
ATOM     18  C   UNL     1       9.239   9.317  18.568  0.00  0.00    +0.000 C 
BRANCH  18  19
ATOM     19  N   UNL     1       8.792  10.671  18.967  0.00  0.00    +0.000 NA
ATOM     20  C   UNL     1       9.438  11.145  20.222  0.00  0.00    +0.000 C 
ATOM     21  C   UNL     1      10.880  11.753  20.168  0.00  0.00    +0.000 C 
ATOM     22  N   UNL     1      11.259  12.383  18.886  0.00  0.00    +0.000 N 
ATOM     23  C   UNL     1      10.580  11.869  17.685  0.00  0.00    +0.000 C 
ATOM     24  C   UNL     1       9.071  11.710  17.955  0.00  0.00    +0.000 C 
BRANCH  22  25
ATOM     25  C   UNL     1      11.568  13.741  18.751  0.00  0.00    +0.000 A 
ATOM     26  C   UNL     1      11.677  14.262  17.450  0.00  0.00    +0.000 A 
ATOM     27  C   UNL     1      11.782  15.635  17.220  0.00  0.00    +0.000 A 
ATOM     28  C   UNL     1      11.811  16.514  18.299  0.00  0.00    +0.000 A 
ATOM     29  C   UNL     1      11.755  16.000  19.600  0.00  0.00    +0.000 A 
ATOM     30  C   UNL     1      11.641  14.626  19.827  0.00  0.00    +0.000 A 
ENDBRANCH  22  25
ENDBRANCH  18  19
ENDBRANCH   1  18
TORSDOF 7
ENDMDL
MODEL 2
REMARK VINA RESULT:      -7.4      1.964     10.503
REMARK  Name = 
REMARK  7 active torsions:
REMARK  status: ('A' for Active; 'I' for Inactive)
REMARK    1  A    between atoms: N_12  and  O_13
REMARK    2  A    between atoms: O_13  and  C_14
REMARK    3  A    between atoms: C_14  and  C_15
REMARK    4  A    between atoms: C_15  and  O_16
REMARK    5  A    between atoms: C_15  and  C_17
REMARK    6  A    between atoms: C_17  and  N_18
REMARK    7  A    between atoms: N_21  and  C_22
REMARK                            x       y       z     vdW  Elec       q    Type
REMARK                         _______ _______ _______ _____ _____    ______ ____
ROOT
ATOM      1  C   UNL     1       8.064   8.105  17.735  0.00  0.00    +0.000 C 
ENDROOT
BRANCH   1   2
ATOM      2  O   UNL     1       8.622   7.729  19.004  0.00  0.00    +0.000 OA
ATOM      3  H   UNL     1       8.085   7.020  19.387  0.00  0.00    +0.000 HD
ENDBRANCH   1   2
BRANCH   1   4
ATOM      4  C   UNL     1       8.240   9.622  17.548  0.00  0.00    +0.000 C 
BRANCH   4   5
ATOM      5  O   UNL     1       8.842  10.150  18.743  0.00  0.00    +0.000 OA
BRANCH   5  17
ATOM      6  O   UNL     1      11.106  10.971  20.221  0.00  0.00    +0.000 OA
ATOM      7  C   UNL     1      10.660  11.608  19.277  0.00  0.00    +0.000 C 
ATOM      8  C   UNL     1      11.123  12.999  18.893  0.00  0.00    +0.000 C 
ATOM      9  C   UNL     1      11.134  13.990  20.077  0.00  0.00    +0.000 C 
ATOM     10  C   UNL     1      11.374  15.403  19.566  0.00  0.00    +0.000 C 
ATOM     11  C   UNL     1      10.270  15.785  18.897  0.00  0.00    +0.000 C 
ATOM     12  C   UNL     1       9.315  14.614  18.922  0.00  0.00    +0.000 C 
ATOM     13  C   UNL     1       9.631  14.138  20.350  0.00  0.00    +0.000 C 
ATOM     14  C   UNL     1       9.949  13.524  18.022  0.00  0.00    +0.000 C 
ATOM     15  C   UNL     1       9.049  12.339  17.823  0.00  0.00    +0.000 C 
ATOM     16  O   UNL     1       7.973  12.396  17.246  0.00  0.00    +0.000 OA
ATOM     17  N   UNL     1       9.632  11.270  18.440  0.00  0.00    +0.000 N 
ENDBRANCH   5  17
ENDBRANCH   4   5
ENDBRANCH   1   4
BRANCH   1  18
ATOM     18  C   UNL     1       6.587   7.619  17.551  0.00  0.00    +0.000 C 
BRANCH  18  19
ATOM     19  N   UNL     1       6.364   6.203  17.180  0.00  0.00    +0.000 NA
ATOM     20  C   UNL     1       6.649   5.262  18.297  0.00  0.00    +0.000 C 
ATOM     21  C   UNL     1       5.568   5.029  19.405  0.00  0.00    +0.000 C 
ATOM     22  N   UNL     1       4.166   5.238  18.984  0.00  0.00    +0.000 N 
ATOM     23  C   UNL     1       3.958   6.178  17.872  0.00  0.00    +0.000 C 
ATOM     24  C   UNL     1       4.981   5.913  16.751  0.00  0.00    +0.000 C 
BRANCH  22  25
ATOM     25  C   UNL     1       3.199   4.226  18.981  0.00  0.00    +0.000 A 
ATOM     26  C   UNL     1       2.089   4.379  19.831  0.00  0.00    +0.000 A 
ATOM     27  C   UNL     1       0.985   3.529  19.750  0.00  0.00    +0.000 A 
ATOM     28  C   UNL     1       0.988   2.483  18.831  0.00  0.00    +0.000 A 
ATOM     29  C   UNL     1       2.109   2.292  18.017  0.00  0.00    +0.000 A 
ATOM     30  C   UNL     1       3.210   3.151  18.093  0.00  0.00    +0.000 A 
ENDBRANCH  22  25
ENDBRANCH  18  19
ENDBRANCH   1  18
TORSDOF 7
ENDMDL
MODEL 3
REMARK VINA RESULT:      -7.3      1.038      1.945
REMARK  Name = 
REMARK  7 active torsions:
REMARK  status: ('A' for Active; 'I' for Inactive)
REMARK    1  A    between atoms: N_12  and  O_13
REMARK    2  A    between atoms: O_13  and  C_14
REMARK    3  A    between atoms: C_14  and  C_15
REMARK    4  A    between atoms: C_15  and  O_16
REMARK    5  A    between atoms: C_15  and  C_17
REMARK    6  A    between atoms: C_17  and  N_18
REMARK    7  A    between atoms: N_21  and  C_22
REMARK                            x       y       z     vdW  Elec       q    Type
REMARK                         _______ _______ _______ _____ _____    ______ ____
ROOT
ATOM      1  C   UNL     1       8.050   8.764  17.642  0.00  0.00    +0.000 C 
ENDROOT
BRANCH   1   2
ATOM      2  O   UNL     1       6.738   9.349  17.593  0.00  0.00    +0.000 OA
ATOM      3  H   UNL     1       6.210   8.999  18.324  0.00  0.00    +0.000 HD
ENDBRANCH   1   2
BRANCH   1   4
ATOM      4  C   UNL     1       7.910   7.257  17.912  0.00  0.00    +0.000 C 
BRANCH   4   5
ATOM      5  O   UNL     1       7.800   6.586  16.644  0.00  0.00    +0.000 OA
BRANCH   5  17
ATOM      6  O   UNL     1       5.140   7.129  15.859  0.00  0.00    +0.000 OA
ATOM      7  C   UNL     1       5.488   6.058  16.337  0.00  0.00    +0.000 C 
ATOM      8  C   UNL     1       4.531   4.959  16.753  0.00  0.00    +0.000 C 
ATOM      9  C   UNL     1       3.389   5.453  17.667  0.00  0.00    +0.000 C 
ATOM     10  C   UNL     1       2.625   4.264  18.228  0.00  0.00    +0.000 C 
ATOM     11  C   UNL     1       3.432   3.642  19.108  0.00  0.00    +0.000 C 
ATOM     12  C   UNL     1       4.747   4.387  19.098  0.00  0.00    +0.000 C 
ATOM     13  C   UNL     1       4.166   5.802  18.944  0.00  0.00    +0.000 C 
ATOM     14  C   UNL     1       5.392   4.101  17.719  0.00  0.00    +0.000 C 
ATOM     15  C   UNL     1       6.783   4.656  17.603  0.00  0.00    +0.000 C 
ATOM     16  O   UNL     1       7.722   4.275  18.284  0.00  0.00    +0.000 OA
ATOM     17  N   UNL     1       6.752   5.654  16.671  0.00  0.00    +0.000 N 
ENDBRANCH   5  17
ENDBRANCH   4   5
ENDBRANCH   1   4
BRANCH   1  18
ATOM     18  C   UNL     1       9.004   9.494  18.646  0.00  0.00    +0.000 C 
BRANCH  18  19
ATOM     19  N   UNL     1       8.690  10.896  19.007  0.00  0.00    +0.000 NA
ATOM     20  C   UNL     1       9.347  11.327  20.271  0.00  0.00    +0.000 C 
ATOM     21  C   UNL     1      10.845  11.782  20.248  0.00  0.00    +0.000 C 
ATOM     22  N   UNL     1      11.322  12.341  18.966  0.00  0.00    +0.000 N 
ATOM     23  C   UNL     1      10.626  11.875  17.756  0.00  0.00    +0.000 C 
ATOM     24  C   UNL     1       9.103  11.878  17.984  0.00  0.00    +0.000 C 
BRANCH  22  25
ATOM     25  C   UNL     1      11.774  13.657  18.816  0.00  0.00    +0.000 A 
ATOM     26  C   UNL     1      12.071  14.103  17.516  0.00  0.00    +0.000 A 
ATOM     27  C   UNL     1      12.332  15.448  17.247  0.00  0.00    +0.000 A 
ATOM     28  C   UNL     1      12.332  16.371  18.290  0.00  0.00    +0.000 A 
ATOM     29  C   UNL     1      12.087  15.928  19.594  0.00  0.00    +0.000 A 
ATOM     30  C   UNL     1      11.816  14.582  19.859  0.00  0.00    +0.000 A 
ENDBRANCH  22  25
ENDBRANCH  18  19
ENDBRANCH   1  18
TORSDOF 7
ENDMDL
MODEL 4
REMARK VINA RESULT:      -7.3      2.221     10.150
REMARK  Name = 
REMARK  7 active torsions:
REMARK  status: ('A' for Active; 'I' for Inactive)
REMARK    1  A    between atoms: N_12  and  O_13
REMARK    2  A    between atoms: O_13  and  C_14
REMARK    3  A    between atoms: C_14  and  C_15
REMARK    4  A    between atoms: C_15  and  O_16
REMARK    5  A    between atoms: C_15  and  C_17
REMARK    6  A    between atoms: C_17  and  N_18
REMARK    7  A    between atoms: N_21  and  C_22
REMARK                            x       y       z     vdW  Elec       q    Type
REMARK                         _______ _______ _______ _____ _____    ______ ____
ROOT
ATOM      1  C   UNL     1       8.404   8.744  17.983  0.00  0.00    +0.000 C 
ENDROOT
BRANCH   1   2
ATOM      2  O   UNL     1       8.836   8.095  19.189  0.00  0.00    +0.000 OA
ATOM      3  H   UNL     1       8.519   7.181  19.186  0.00  0.00    +0.000 HD
ENDBRANCH   1   2
BRANCH   1   4
ATOM      4  C   UNL     1       8.553  10.265  18.159  0.00  0.00    +0.000 C 
BRANCH   4   5
ATOM      5  O   UNL     1       9.912  10.617  17.851  0.00  0.00    +0.000 OA
BRANCH   5  17
ATOM      6  O   UNL     1       9.516  10.541  20.648  0.00  0.00    +0.000 OA
ATOM      7  C   UNL     1      10.064  11.475  20.078  0.00  0.00    +0.000 C 
ATOM      8  C   UNL     1      10.426  12.787  20.745  0.00  0.00    +0.000 C 
ATOM      9  C   UNL     1       9.253  13.424  21.522  0.00  0.00    +0.000 C 
ATOM     10  C   UNL     1       9.624  14.835  21.951  0.00  0.00    +0.000 C 
ATOM     11  C   UNL     1       9.667  15.598  20.843  0.00  0.00    +0.000 C 
ATOM     12  C   UNL     1       9.371  14.688  19.673  0.00  0.00    +0.000 C 
ATOM     13  C   UNL     1       8.316  13.814  20.370  0.00  0.00    +0.000 C 
ATOM     14  C   UNL     1      10.597  13.750  19.539  0.00  0.00    +0.000 C 
ATOM     15  C   UNL     1      10.525  12.872  18.323  0.00  0.00    +0.000 C 
ATOM     16  O   UNL     1      10.544  13.298  17.178  0.00  0.00    +0.000 OA
ATOM     17  N   UNL     1      10.385  11.583  18.752  0.00  0.00    +0.000 N 
ENDBRANCH   5  17
ENDBRANCH   4   5
ENDBRANCH   1   4
BRANCH   1  18
ATOM     18  C   UNL     1       6.971   8.303  17.534  0.00  0.00    +0.000 C 
BRANCH  18  19
ATOM     19  N   UNL     1       6.813   6.954  16.943  0.00  0.00    +0.000 NA
ATOM     20  C   UNL     1       7.226   5.867  17.873  0.00  0.00    +0.000 C 
ATOM     21  C   UNL     1       6.234   5.379  18.981  0.00  0.00    +0.000 C 
ATOM     22  N   UNL     1       4.798   5.553  18.674  0.00  0.00    +0.000 N 
ATOM     23  C   UNL     1       4.462   6.644  17.746  0.00  0.00    +0.000 C 
ATOM     24  C   UNL     1       5.427   6.638  16.546  0.00  0.00    +0.000 C 
BRANCH  22  25
ATOM     25  C   UNL     1       3.898   4.488  18.554  0.00  0.00    +0.000 A 
ATOM     26  C   UNL     1       2.570   4.791  18.203  0.00  0.00    +0.000 A 
ATOM     27  C   UNL     1       1.658   3.789  17.866  0.00  0.00    +0.000 A 
ATOM     28  C   UNL     1       2.055   2.454  17.905  0.00  0.00    +0.000 A 
ATOM     29  C   UNL     1       3.360   2.142  18.302  0.00  0.00    +0.000 A 
ATOM     30  C   UNL     1       4.274   3.147  18.630  0.00  0.00    +0.000 A 
ENDBRANCH  22  25
ENDBRANCH  18  19
ENDBRANCH   1  18
TORSDOF 7
ENDMDL
MODEL 5
REMARK VINA RESULT:      -7.3      6.425      8.813
REMARK  Name = 
REMARK  7 active torsions:
REMARK  status: ('A' for Active; 'I' for Inactive)
REMARK    1  A    between atoms: N_12  and  O_13
REMARK    2  A    between atoms: O_13  and  C_14
REMARK    3  A    between atoms: C_14  and  C_15
REMARK    4  A    between atoms: C_15  and  O_16
REMARK    5  A    between atoms: C_15  and  C_17
REMARK    6  A    between atoms: C_17  and  N_18
REMARK    7  A    between atoms: N_21  and  C_22
REMARK                            x       y       z     vdW  Elec       q    Type
REMARK                         _______ _______ _______ _____ _____    ______ ____
ROOT
ATOM      1  C   UNL     1       3.171   5.352  19.638  0.00  0.00    +0.000 C 
ENDROOT
BRANCH   1   2
ATOM      2  O   UNL     1       2.121   4.941  18.748  0.00  0.00    +0.000 OA
ATOM      3  H   UNL     1       1.714   5.726  18.356  0.00  0.00    +0.000 HD
ENDBRANCH   1   2
BRANCH   1   4
ATOM      4  C   UNL     1       2.982   6.842  19.971  0.00  0.00    +0.000 C 
BRANCH   4   5
ATOM      5  O   UNL     1       1.805   7.304  19.286  0.00  0.00    +0.000 OA
BRANCH   5  17
ATOM      6  O   UNL     1       0.298   8.433  21.394  0.00  0.00    +0.000 OA
ATOM      7  C   UNL     1       0.810   9.103  20.508  0.00  0.00    +0.000 C 
ATOM      8  C   UNL     1       0.554  10.583  20.302  0.00  0.00    +0.000 C 
ATOM      9  C   UNL     1      -0.946  10.946  20.263  0.00  0.00    +0.000 C 
ATOM     10  C   UNL     1      -1.117  12.389  19.817  0.00  0.00    +0.000 C 
ATOM     11  C   UNL     1      -0.785  12.454  18.513  0.00  0.00    +0.000 C 
ATOM     12  C   UNL     1      -0.349  11.066  18.104  0.00  0.00    +0.000 C 
ATOM     13  C   UNL     1      -1.374  10.286  18.945  0.00  0.00    +0.000 C 
ATOM     14  C   UNL     1       0.995  10.807  18.830  0.00  0.00    +0.000 C 
ATOM     15  C   UNL     1       1.640   9.516  18.414  0.00  0.00    +0.000 C 
ATOM     16  O   UNL     1       2.041   9.294  17.281  0.00  0.00    +0.000 OA
ATOM     17  N   UNL     1       1.625   8.680  19.493  0.00  0.00    +0.000 N 
ENDBRANCH   5  17
ENDBRANCH   4   5
ENDBRANCH   1   4
BRANCH   1  18
ATOM     18  C   UNL     1       4.599   5.009  19.093  0.00  0.00    +0.000 C 
BRANCH  18  19
ATOM     19  N   UNL     1       5.196   5.919  18.089  0.00  0.00    +0.000 NA
ATOM     20  C   UNL     1       6.645   5.664  17.870  0.00  0.00    +0.000 C 
ATOM     21  C   UNL     1       7.090   4.501  16.921  0.00  0.00    +0.000 C 
ATOM     22  N   UNL     1       6.131   4.144  15.855  0.00  0.00    +0.000 N 
ATOM     23  C   UNL     1       4.714   4.426  16.137  0.00  0.00    +0.000 C 
ATOM     24  C   UNL     1       4.565   5.829  16.757  0.00  0.00    +0.000 C 
BRANCH  22  25
ATOM     25  C   UNL     1       6.410   4.266  14.489  0.00  0.00    +0.000 A 
ATOM     26  C   UNL     1       7.384   5.203  14.101  0.00  0.00    +0.000 A 
ATOM     27  C   UNL     1       7.869   5.253  12.794  0.00  0.00    +0.000 A 
ATOM     28  C   UNL     1       7.360   4.378  11.836  0.00  0.00    +0.000 A 
ATOM     29  C   UNL     1       6.354   3.477  12.201  0.00  0.00    +0.000 A 
ATOM     30  C   UNL     1       5.877   3.423  13.514  0.00  0.00    +0.000 A 
ENDBRANCH  22  25
ENDBRANCH  18  19
ENDBRANCH   1  18
TORSDOF 7
ENDMDL
MODEL 6
REMARK VINA RESULT:      -7.2      1.411      2.538
REMARK  Name = 
REMARK  7 active torsions:
REMARK  status: ('A' for Active; 'I' for Inactive)
REMARK    1  A    between atoms: N_12  and  O_13
REMARK    2  A    between atoms: O_13  and  C_14
REMARK    3  A    between atoms: C_14  and  C_15
REMARK    4  A    between atoms: C_15  and  O_16
REMARK    5  A    between atoms: C_15  and  C_17
REMARK    6  A    between atoms: C_17  and  N_18
REMARK    7  A    between atoms: N_21  and  C_22
REMARK                            x       y       z     vdW  Elec       q    Type
REMARK                         _______ _______ _______ _____ _____    ______ ____
ROOT
ATOM      1  C   UNL     1       8.164   9.101  18.457  0.00  0.00    +0.000 C 
ENDROOT
BRANCH   1   2
ATOM      2  O   UNL     1       9.007   8.143  19.116  0.00  0.00    +0.000 OA
ATOM      3  H   UNL     1       8.454   7.528  19.617  0.00  0.00    +0.000 HD
ENDBRANCH   1   2
BRANCH   1   4
ATOM      4  C   UNL     1       7.237   8.356  17.481  0.00  0.00    +0.000 C 
BRANCH   4   5
ATOM      5  O   UNL     1       7.964   7.238  16.945  0.00  0.00    +0.000 OA
BRANCH   5  17
ATOM      6  O   UNL     1       5.622   6.703  15.455  0.00  0.00    +0.000 OA
ATOM      7  C   UNL     1       6.045   5.953  16.325  0.00  0.00    +0.000 C 
ATOM      8  C   UNL     1       5.287   4.754  16.858  0.00  0.00    +0.000 C 
ATOM      9  C   UNL     1       3.838   5.081  17.279  0.00  0.00    +0.000 C 
ATOM     10  C   UNL     1       3.235   3.897  18.018  0.00  0.00    +0.000 C 
ATOM     11  C   UNL     1       3.854   3.803  19.210  0.00  0.00    +0.000 C 
ATOM     12  C   UNL     1       4.899   4.894  19.247  0.00  0.00    +0.000 C 
ATOM     13  C   UNL     1       4.084   5.968  18.508  0.00  0.00    +0.000 C 
ATOM     14  C   UNL     1       5.984   4.483  18.219  0.00  0.00    +0.000 C 
ATOM     15  C   UNL     1       7.176   5.397  18.237  0.00  0.00    +0.000 C 
ATOM     16  O   UNL     1       7.923   5.515  19.196  0.00  0.00    +0.000 OA
ATOM     17  N   UNL     1       7.203   6.063  17.046  0.00  0.00    +0.000 N 
ENDBRANCH   5  17
ENDBRANCH   4   5
ENDBRANCH   1   4
BRANCH   1  18
ATOM     18  C   UNL     1       8.972  10.264  17.788  0.00  0.00    +0.000 C 
BRANCH  18  19
ATOM     19  N   UNL     1      10.109  10.841  18.542  0.00  0.00    +0.000 NA
ATOM     20  C   UNL     1      10.994  11.684  17.693  0.00  0.00    +0.000 C 
ATOM     21  C   UNL     1      10.588  13.164  17.383  0.00  0.00    +0.000 C 
ATOM     22  N   UNL     1       9.734  13.818  18.397  0.00  0.00    +0.000 N 
ATOM     23  C   UNL     1       8.887  12.925  19.204  0.00  0.00    +0.000 C 
ATOM     24  C   UNL     1       9.697  11.700  19.670  0.00  0.00    +0.000 C 
BRANCH  22  25
ATOM     25  C   UNL     1      10.127  14.943  19.131  0.00  0.00    +0.000 A 
ATOM     26  C   UNL     1       9.196  15.987  19.277  0.00  0.00    +0.000 A 
ATOM     27  C   UNL     1       9.424  17.051  20.151  0.00  0.00    +0.000 A 
ATOM     28  C   UNL     1      10.611  17.104  20.877  0.00  0.00    +0.000 A 
ATOM     29  C   UNL     1      11.565  16.096  20.700  0.00  0.00    +0.000 A 
ATOM     30  C   UNL     1      11.331  15.027  19.830  0.00  0.00    +0.000 A 
ENDBRANCH  22  25
ENDBRANCH  18  19
ENDBRANCH   1  18
TORSDOF 7
ENDMDL
MODEL 7
REMARK VINA RESULT:      -7.2      6.984      9.329
REMARK  Name = 
REMARK  7 active torsions:
REMARK  status: ('A' for Active; 'I' for Inactive)
REMARK    1  A    between atoms: N_12  and  O_13
REMARK    2  A    between atoms: O_13  and  C_14
REMARK    3  A    between atoms: C_14  and  C_15
REMARK    4  A    between atoms: C_15  and  O_16
REMARK    5  A    between atoms: C_15  and  C_17
REMARK    6  A    between atoms: C_17  and  N_18
REMARK    7  A    between atoms: N_21  and  C_22
REMARK                            x       y       z     vdW  Elec       q    Type
REMARK                         _______ _______ _______ _____ _____    ______ ____
ROOT
ATOM      1  C   UNL     1       1.593  10.069  17.987  0.00  0.00    +0.000 C 
ENDROOT
BRANCH   1   2
ATOM      2  O   UNL     1       0.521   9.441  17.267  0.00  0.00    +0.000 OA
ATOM      3  H   UNL     1      -0.075   9.013  17.898  0.00  0.00    +0.000 HD
ENDBRANCH   1   2
BRANCH   1   4
ATOM      4  C   UNL     1       2.576   8.983  18.458  0.00  0.00    +0.000 C 
BRANCH   4   5
ATOM      5  O   UNL     1       1.959   7.702  18.243  0.00  0.00    +0.000 OA
BRANCH   5  17
ATOM      6  O   UNL     1       3.417   5.445  17.367  0.00  0.00    +0.000 OA
ATOM      7  C   UNL     1       3.145   5.647  18.542  0.00  0.00    +0.000 C 
ATOM      8  C   UNL     1       3.371   4.643  19.655  0.00  0.00    +0.000 C 
ATOM      9  C   UNL     1       2.795   3.244  19.344  0.00  0.00    +0.000 C 
ATOM     10  C   UNL     1       2.848   2.375  20.590  0.00  0.00    +0.000 C 
ATOM     11  C   UNL     1       1.942   2.858  21.461  0.00  0.00    +0.000 C 
ATOM     12  C   UNL     1       1.320   4.074  20.815  0.00  0.00    +0.000 C 
ATOM     13  C   UNL     1       1.288   3.534  19.376  0.00  0.00    +0.000 C 
ATOM     14  C   UNL     1       2.429   5.155  20.778  0.00  0.00    +0.000 C 
ATOM     15  C   UNL     1       1.927   6.485  20.292  0.00  0.00    +0.000 C 
ATOM     16  O   UNL     1       1.094   7.152  20.887  0.00  0.00    +0.000 OA
ATOM     17  N   UNL     1       2.525   6.737  19.090  0.00  0.00    +0.000 N 
ENDBRANCH   5  17
ENDBRANCH   4   5
ENDBRANCH   1   4
BRANCH   1  18
ATOM     18  C   UNL     1       1.088  10.998  19.142  0.00  0.00    +0.000 C 
BRANCH  18  19
ATOM     19  N   UNL     1      -0.348  10.938  19.502  0.00  0.00    +0.000 NA
ATOM     20  C   UNL     1      -0.613  10.049  20.666  0.00  0.00    +0.000 C 
ATOM     21  C   UNL     1      -0.382  10.586  22.118  0.00  0.00    +0.000 C 
ATOM     22  N   UNL     1      -0.520  12.047  22.288  0.00  0.00    +0.000 N 
ATOM     23  C   UNL     1      -0.247  12.867  21.097  0.00  0.00    +0.000 C 
ATOM     24  C   UNL     1      -0.925  12.250  19.859  0.00  0.00    +0.000 C 
BRANCH  22  25
ATOM     25  C   UNL     1      -1.490  12.644  23.102  0.00  0.00    +0.000 A 
ATOM     26  C   UNL     1      -1.269  13.969  23.519  0.00  0.00    +0.000 A 
ATOM     27  C   UNL     1      -2.266  14.707  24.160  0.00  0.00    +0.000 A 
ATOM     28  C   UNL     1      -3.499  14.116  24.425  0.00  0.00    +0.000 A 
ATOM     29  C   UNL     1      -3.709  12.782  24.059  0.00  0.00    +0.000 A 
ATOM     30  C   UNL     1      -2.713  12.048  23.409  0.00  0.00    +0.000 A 
ENDBRANCH  22  25
ENDBRANCH  18  19
ENDBRANCH   1  18
TORSDOF 7
ENDMDL
MODEL 8
REMARK VINA RESULT:      -7.2      1.943     10.465
REMARK  Name = 
REMARK  7 active torsions:
REMARK  status: ('A' for Active; 'I' for Inactive)
REMARK    1  A    between atoms: N_12  and  O_13
REMARK    2  A    between atoms: O_13  and  C_14
REMARK    3  A    between atoms: C_14  and  C_15
REMARK    4  A    between atoms: C_15  and  O_16
REMARK    5  A    between atoms: C_15  and  C_17
REMARK    6  A    between atoms: C_17  and  N_18
REMARK    7  A    between atoms: N_21  and  C_22
REMARK                            x       y       z     vdW  Elec       q    Type
REMARK                         _______ _______ _______ _____ _____    ______ ____
ROOT
ATOM      1  C   UNL     1       8.118   7.557  17.813  0.00  0.00    +0.000 C 
ENDROOT
BRANCH   1   2
ATOM      2  O   UNL     1       8.592   7.329  19.150  0.00  0.00    +0.000 OA
ATOM      3  H   UNL     1       7.911   7.608  19.778  0.00  0.00    +0.000 HD
ENDBRANCH   1   2
BRANCH   1   4
ATOM      4  C   UNL     1       7.474   8.952  17.747  0.00  0.00    +0.000 C 
BRANCH   4   5
ATOM      5  O   UNL     1       8.491   9.893  17.365  0.00  0.00    +0.000 OA
BRANCH   5  17
ATOM      6  O   UNL     1       7.744  12.521  16.640  0.00  0.00    +0.000 OA
ATOM      7  C   UNL     1       8.181  12.234  17.746  0.00  0.00    +0.000 C 
ATOM      8  C   UNL     1       8.566  13.251  18.802  0.00  0.00    +0.000 C 
ATOM      9  C   UNL     1       9.504  14.358  18.274  0.00  0.00    +0.000 C 
ATOM     10  C   UNL     1      10.029  15.187  19.435  0.00  0.00    +0.000 C 
ATOM     11  C   UNL     1      10.881  14.414  20.135  0.00  0.00    +0.000 C 
ATOM     12  C   UNL     1      10.889  13.058  19.468  0.00  0.00    +0.000 C 
ATOM     13  C   UNL     1      10.787  13.556  18.016  0.00  0.00    +0.000 C 
ATOM     14  C   UNL     1       9.496  12.437  19.742  0.00  0.00    +0.000 C 
ATOM     15  C   UNL     1       9.389  11.017  19.265  0.00  0.00    +0.000 C 
ATOM     16  O   UNL     1      10.051  10.098  19.724  0.00  0.00    +0.000 OA
ATOM     17  N   UNL     1       8.493  10.994  18.235  0.00  0.00    +0.000 N 
ENDBRANCH   5  17
ENDBRANCH   4   5
ENDBRANCH   1   4
BRANCH   1  18
ATOM     18  C   UNL     1       7.184   6.411  17.297  0.00  0.00    +0.000 C 
BRANCH  18  19
ATOM     19  N   UNL     1       5.720   6.608  17.405  0.00  0.00    +0.000 NA
ATOM     20  C   UNL     1       4.959   5.858  16.368  0.00  0.00    +0.000 C 
ATOM     21  C   UNL     1       4.661   4.336  16.578  0.00  0.00    +0.000 C 
ATOM     22  N   UNL     1       4.587   3.888  17.984  0.00  0.00    +0.000 N 
ATOM     23  C   UNL     1       5.360   4.676  18.957  0.00  0.00    +0.000 C 
ATOM     24  C   UNL     1       5.158   6.182  18.702  0.00  0.00    +0.000 C 
BRANCH  22  25
ATOM     25  C   UNL     1       3.431   3.355  18.567  0.00  0.00    +0.000 A 
ATOM     26  C   UNL     1       3.454   3.100  19.950  0.00  0.00    +0.000 A 
ATOM     27  C   UNL     1       2.294   2.761  20.648  0.00  0.00    +0.000 A 
ATOM     28  C   UNL     1       1.087   2.639  19.962  0.00  0.00    +0.000 A 
ATOM     29  C   UNL     1       1.066   2.840  18.578  0.00  0.00    +0.000 A 
ATOM     30  C   UNL     1       2.228   3.189  17.882  0.00  0.00    +0.000 A 
ENDBRANCH  22  25
ENDBRANCH  18  19
ENDBRANCH   1  18
TORSDOF 7
ENDMDL
MODEL 9
REMARK VINA RESULT:      -7.0      6.598      7.840
REMARK  Name = 
REMARK  7 active torsions:
REMARK  status: ('A' for Active; 'I' for Inactive)
REMARK    1  A    between atoms: N_12  and  O_13
REMARK    2  A    between atoms: O_13  and  C_14
REMARK    3  A    between atoms: C_14  and  C_15
REMARK    4  A    between atoms: C_15  and  O_16
REMARK    5  A    between atoms: C_15  and  C_17
REMARK    6  A    between atoms: C_17  and  N_18
REMARK    7  A    between atoms: N_21  and  C_22
REMARK                            x       y       z     vdW  Elec       q    Type
REMARK                         _______ _______ _______ _____ _____    ______ ____
ROOT
ATOM      1  C   UNL     1       0.524   9.514  21.501  0.00  0.00    +0.000 C 
ENDROOT
BRANCH   1   2
ATOM      2  O   UNL     1       1.381   9.868  22.598  0.00  0.00    +0.000 OA
ATOM      3  H   UNL     1       1.074  10.701  22.982  0.00  0.00    +0.000 HD
ENDBRANCH   1   2
BRANCH   1   4
ATOM      4  C   UNL     1       0.669   8.008  21.226  0.00  0.00    +0.000 C 
BRANCH   4   5
ATOM      5  O   UNL     1       2.021   7.761  20.803  0.00  0.00    +0.000 OA
BRANCH   5  17
ATOM      6  O   UNL     1       2.210   4.970  21.206  0.00  0.00    +0.000 OA
ATOM      7  C   UNL     1       2.216   5.485  20.096  0.00  0.00    +0.000 C 
ATOM      8  C   UNL     1       2.519   4.739  18.812  0.00  0.00    +0.000 C 
ATOM      9  C   UNL     1       3.820   3.909  18.878  0.00  0.00    +0.000 C 
ATOM     10  C   UNL     1       4.174   3.393  17.491  0.00  0.00    +0.000 C 
ATOM     11  C   UNL     1       4.558   4.450  16.751  0.00  0.00    +0.000 C 
ATOM     12  C   UNL     1       4.417   5.673  17.628  0.00  0.00    +0.000 C 
ATOM     13  C   UNL     1       4.875   5.021  18.943  0.00  0.00    +0.000 C 
ATOM     14  C   UNL     1       2.896   5.882  17.830  0.00  0.00    +0.000 C 
ATOM     15  C   UNL     1       2.577   7.151  18.567  0.00  0.00    +0.000 C 
ATOM     16  O   UNL     1       2.820   8.266  18.130  0.00  0.00    +0.000 OA
ATOM     17  N   UNL     1       2.047   6.805  19.776  0.00  0.00    +0.000 N 
ENDBRANCH   5  17
ENDBRANCH   4   5
ENDBRANCH   1   4
BRANCH   1  18
ATOM     18  C   UNL     1       0.756  10.406  20.236  0.00  0.00    +0.000 C 
BRANCH  18  19
ATOM     19  N   UNL     1      -0.318  11.349  19.846  0.00  0.00    +0.000 NA
ATOM     20  C   UNL     1      -0.660  12.312  20.928  0.00  0.00    +0.000 C 
ATOM     21  C   UNL     1       0.230  13.583  21.141  0.00  0.00    +0.000 C 
ATOM     22  N   UNL     1       0.938  14.076  19.941  0.00  0.00    +0.000 N 
ATOM     23  C   UNL     1       1.242  13.070  18.910  0.00  0.00    +0.000 C 
ATOM     24  C   UNL     1       0.015  12.172  18.665  0.00  0.00    +0.000 C 
BRANCH  22  25
ATOM     25  C   UNL     1       0.714  15.334  19.372  0.00  0.00    +0.000 A 
ATOM     26  C   UNL     1       1.803  15.978  18.758  0.00  0.00    +0.000 A 
ATOM     27  C   UNL     1       1.632  17.134  17.995  0.00  0.00    +0.000 A 
ATOM     28  C   UNL     1       0.361  17.688  17.859  0.00  0.00    +0.000 A 
ATOM     29  C   UNL     1      -0.720  17.082  18.508  0.00  0.00    +0.000 A 
ATOM     30  C   UNL     1      -0.547  15.919  19.264  0.00  0.00    +0.000 A 
ENDBRANCH  22  25
ENDBRANCH  18  19
ENDBRANCH   1  18
TORSDOF 7
ENDMDL
