MODEL 1
REMARK VINA RESULT:      -7.3      0.000      0.000
REMARK  Name = 
REMARK  7 active torsions:
REMARK  status: ('A' for Active; 'I' for Inactive)
REMARK    1  A    between atoms: C_1  and  O_2
REMARK    2  A    between atoms: O_2  and  C_3
REMARK    3  A    between atoms: C_8  and  N_9
REMARK    4  A    between atoms: N_12  and  C_13
REMARK    5  A    between atoms: C_13  and  C_14
REMARK    6  A    between atoms: N_18  and  C_19
REMARK    7  A    between atoms: C_24  and  C_25
REMARK                            x       y       z     vdW  Elec       q    Type
REMARK                         _______ _______ _______ _____ _____    ______ ____
ROOT
ATOM      1  N   UNL     1       1.707   8.632  20.034  0.00  0.00    +0.000 N 
ATOM      2  C   UNL     1       2.188   7.247  20.185  0.00  0.00    +0.000 C 
ATOM      3  C   UNL     1       1.975   6.434  18.880  0.00  0.00    +0.000 C 
ATOM      4  N   UNL     1       2.474   7.082  17.630  0.00  0.00    +0.000 NA
ATOM      5  C   UNL     1       1.884   8.438  17.583  0.00  0.00    +0.000 C 
ATOM      6  C   UNL     1       2.153   9.318  18.813  0.00  0.00    +0.000 C 
ENDROOT
BRANCH   1  12
ATOM      7  C   UNL     1      -0.133  10.227  20.522  0.00  0.00    +0.000 A 
ATOM      8  C   UNL     1      -0.939  10.847  21.499  0.00  0.00    +0.000 A 
ATOM      9  C   UNL     1      -0.829  10.511  22.845  0.00  0.00    +0.000 A 
ATOM     10  C   UNL     1       0.090   9.556  23.235  0.00  0.00    +0.000 A 
ATOM     11  C   UNL     1       0.898   8.945  22.275  0.00  0.00    +0.000 A 
ATOM     12  C   UNL     1       0.830   9.262  20.897  0.00  0.00    +0.000 A 
BRANCH   7  14
ATOM     13  C   UNL     1      -1.421  10.362  18.537  0.00  0.00    +0.000 C 
ATOM     14  O   UNL     1      -0.187  10.625  19.203  0.00  0.00    +0.000 OA
ENDBRANCH   7  14
ENDBRANCH   1  12
BRANCH   4  15
ATOM     15  C   UNL     1       3.949   7.077  17.603  0.00  0.00    +0.000 C 
BRANCH  15  16
ATOM     16  C   UNL     1       4.563   6.179  16.557  0.00  0.00    +0.000 A 
ATOM     17  C   UNL     1       5.228   6.544  15.392  0.00  0.00    +0.000 A 
ATOM     18  C   UNL     1       5.768   5.396  14.799  0.00  0.00    +0.000 A 
ATOM     19  C   UNL     1       5.336   4.331  15.547  0.00  0.00    +0.000 A 
ATOM     20  N   UNL     1       4.616   4.778  16.644  0.00  0.00    +0.000 N 
BRANCH  20  21
ATOM     21  C   UNL     1       4.021   3.913  17.626  0.00  0.00    +0.000 A 
ATOM     22  C   UNL     1       2.855   3.201  17.296  0.00  0.00    +0.000 A 
ATOM     23  C   UNL     1       2.248   2.335  18.211  0.00  0.00    +0.000 A 
ATOM     24  C   UNL     1       2.816   2.132  19.460  0.00  0.00    +0.000 A 
ATOM     25  C   UNL     1       3.986   2.807  19.800  0.00  0.00    +0.000 A 
ATOM     26  C   UNL     1       4.591   3.709  18.902  0.00  0.00    +0.000 A 
BRANCH  26  27
ATOM     27  C   UNL     1       5.728   4.428  19.408  0.00  0.00    +0.000 C 
ATOM     28  N   UNL     1       6.617   5.036  19.842  0.00  0.00    +0.000 NA
ENDBRANCH  26  27
ENDBRANCH  20  21
ENDBRANCH  15  16
ENDBRANCH   4  15
TORSDOF 6
ENDMDL
MODEL 2
REMARK VINA RESULT:      -7.3      1.889      3.541
REMARK  Name = 
REMARK  7 active torsions:
REMARK  status: ('A' for Active; 'I' for Inactive)
REMARK    1  A    between atoms: C_1  and  O_2
REMARK    2  A    between atoms: O_2  and  C_3
REMARK    3  A    between atoms: C_8  and  N_9
REMARK    4  A    between atoms: N_12  and  C_13
REMARK    5  A    between atoms: C_13  and  C_14
REMARK    6  A    between atoms: N_18  and  C_19
REMARK    7  A    between atoms: C_24  and  C_25
REMARK                            x       y       z     vdW  Elec       q    Type
REMARK                         _______ _______ _______ _____ _____    ______ ____
ROOT
ATOM      1  N   UNL     1       0.954   9.195  18.684  0.00  0.00    +0.000 N 
ATOM      2  C   UNL     1       1.740   8.696  17.543  0.00  0.00    +0.000 C 
ATOM      3  C   UNL     1       3.096   8.104  18.012  0.00  0.00    +0.000 C 
ATOM      4  N   UNL     1       3.013   7.115  19.128  0.00  0.00    +0.000 NA
ATOM      5  C   UNL     1       2.242   7.758  20.216  0.00  0.00    +0.000 C 
ATOM      6  C   UNL     1       0.849   8.272  19.822  0.00  0.00    +0.000 C 
ENDROOT
BRANCH   1  12
ATOM      7  C   UNL     1      -0.834  10.855  18.214  0.00  0.00    +0.000 A 
ATOM      8  C   UNL     1      -1.269  12.192  18.317  0.00  0.00    +0.000 A 
ATOM      9  C   UNL     1      -0.512  13.149  18.987  0.00  0.00    +0.000 A 
ATOM     10  C   UNL     1       0.693  12.785  19.558  0.00  0.00    +0.000 A 
ATOM     11  C   UNL     1       1.135  11.466  19.452  0.00  0.00    +0.000 A 
ATOM     12  C   UNL     1       0.405  10.462  18.771  0.00  0.00    +0.000 A 
BRANCH   7  14
ATOM     13  C   UNL     1      -2.759  10.419  16.902  0.00  0.00    +0.000 C 
ATOM     14  O   UNL     1      -1.547   9.934  17.477  0.00  0.00    +0.000 OA
ENDBRANCH   7  14
ENDBRANCH   1  12
BRANCH   4  15
ATOM     15  C   UNL     1       2.424   5.850  18.652  0.00  0.00    +0.000 C 
BRANCH  15  16
ATOM     16  C   UNL     1       3.026   4.602  19.250  0.00  0.00    +0.000 A 
ATOM     17  C   UNL     1       2.587   3.878  20.353  0.00  0.00    +0.000 A 
ATOM     18  C   UNL     1       3.349   2.708  20.458  0.00  0.00    +0.000 A 
ATOM     19  C   UNL     1       4.314   2.781  19.487  0.00  0.00    +0.000 A 
ATOM     20  N   UNL     1       4.129   3.917  18.715  0.00  0.00    +0.000 N 
BRANCH  20  21
ATOM     21  C   UNL     1       4.974   4.291  17.614  0.00  0.00    +0.000 A 
ATOM     22  C   UNL     1       4.553   4.013  16.301  0.00  0.00    +0.000 A 
ATOM     23  C   UNL     1       5.331   4.371  15.197  0.00  0.00    +0.000 A 
ATOM     24  C   UNL     1       6.525   5.052  15.378  0.00  0.00    +0.000 A 
ATOM     25  C   UNL     1       6.950   5.363  16.667  0.00  0.00    +0.000 A 
ATOM     26  C   UNL     1       6.195   4.978  17.793  0.00  0.00    +0.000 A 
BRANCH  26  27
ATOM     27  C   UNL     1       6.791   5.254  19.071  0.00  0.00    +0.000 C 
ATOM     28  N   UNL     1       7.315   5.473  20.084  0.00  0.00    +0.000 NA
ENDBRANCH  26  27
ENDBRANCH  20  21
ENDBRANCH  15  16
ENDBRANCH   4  15
TORSDOF 6
ENDMDL
MODEL 3
REMARK VINA RESULT:      -7.3      1.499      3.235
REMARK  Name = 
REMARK  7 active torsions:
REMARK  status: ('A' for Active; 'I' for Inactive)
REMARK    1  A    between atoms: C_1  and  O_2
REMARK    2  A    between atoms: O_2  and  C_3
REMARK    3  A    between atoms: C_8  and  N_9
REMARK    4  A    between atoms: N_12  and  C_13
REMARK    5  A    between atoms: C_13  and  C_14
REMARK    6  A    between atoms: N_18  and  C_19
REMARK    7  A    between atoms: C_24  and  C_25
REMARK                            x       y       z     vdW  Elec       q    Type
REMARK                         _______ _______ _______ _____ _____    ______ ____
ROOT
ATOM      1  N   UNL     1       1.241   8.826  19.375  0.00  0.00    +0.000 N 
ATOM      2  C   UNL     1       1.602   8.765  17.949  0.00  0.00    +0.000 C 
ATOM      3  C   UNL     1       2.997   8.113  17.750  0.00  0.00    +0.000 C 
ATOM      4  N   UNL     1       3.203   6.810  18.451  0.00  0.00    +0.000 NA
ATOM      5  C   UNL     1       2.849   7.025  19.872  0.00  0.00    +0.000 C 
ATOM      6  C   UNL     1       1.437   7.577  20.124  0.00  0.00    +0.000 C 
ENDROOT
BRANCH   1  12
ATOM      7  C   UNL     1       1.120  11.294  19.639  0.00  0.00    +0.000 A 
ATOM      8  C   UNL     1       0.691  12.384  20.424  0.00  0.00    +0.000 A 
ATOM      9  C   UNL     1      -0.047  12.191  21.587  0.00  0.00    +0.000 A 
ATOM     10  C   UNL     1      -0.363  10.906  21.987  0.00  0.00    +0.000 A 
ATOM     11  C   UNL     1       0.065   9.821  21.221  0.00  0.00    +0.000 A 
ATOM     12  C   UNL     1       0.827   9.968  20.037  0.00  0.00    +0.000 A 
BRANCH   7  14
ATOM     13  C   UNL     1       2.342  12.834  18.315  0.00  0.00    +0.000 C 
ATOM     14  O   UNL     1       1.922  11.488  18.535  0.00  0.00    +0.000 OA
ENDBRANCH   7  14
ENDBRANCH   1  12
BRANCH   4  15
ATOM     15  C   UNL     1       2.416   5.746  17.800  0.00  0.00    +0.000 C 
BRANCH  15  16
ATOM     16  C   UNL     1       2.769   4.342  18.226  0.00  0.00    +0.000 A 
ATOM     17  C   UNL     1       2.073   3.505  19.090  0.00  0.00    +0.000 A 
ATOM     18  C   UNL     1       2.675   2.240  19.078  0.00  0.00    +0.000 A 
ATOM     19  C   UNL     1       3.794   2.348  18.293  0.00  0.00    +0.000 A 
ATOM     20  N   UNL     1       3.868   3.615  17.737  0.00  0.00    +0.000 N 
BRANCH  20  21
ATOM     21  C   UNL     1       4.923   4.056  16.867  0.00  0.00    +0.000 A 
ATOM     22  C   UNL     1       4.817   3.818  15.485  0.00  0.00    +0.000 A 
ATOM     23  C   UNL     1       5.809   4.241  14.596  0.00  0.00    +0.000 A 
ATOM     24  C   UNL     1       6.908   4.947  15.063  0.00  0.00    +0.000 A 
ATOM     25  C   UNL     1       7.022   5.217  16.424  0.00  0.00    +0.000 A 
ATOM     26  C   UNL     1       6.048   4.767  17.338  0.00  0.00    +0.000 A 
BRANCH  26  27
ATOM     27  C   UNL     1       6.333   5.009  18.726  0.00  0.00    +0.000 C 
ATOM     28  N   UNL     1       6.540   5.245  19.844  0.00  0.00    +0.000 NA
ENDBRANCH  26  27
ENDBRANCH  20  21
ENDBRANCH  15  16
ENDBRANCH   4  15
TORSDOF 6
ENDMDL
MODEL 4
REMARK VINA RESULT:      -7.2      1.958      4.122
REMARK  Name = 
REMARK  7 active torsions:
REMARK  status: ('A' for Active; 'I' for Inactive)
REMARK    1  A    between atoms: C_1  and  O_2
REMARK    2  A    between atoms: O_2  and  C_3
REMARK    3  A    between atoms: C_8  and  N_9
REMARK    4  A    between atoms: N_12  and  C_13
REMARK    5  A    between atoms: C_13  and  C_14
REMARK    6  A    between atoms: N_18  and  C_19
REMARK    7  A    between atoms: C_24  and  C_25
REMARK                            x       y       z     vdW  Elec       q    Type
REMARK                         _______ _______ _______ _____ _____    ______ ____
ROOT
ATOM      1  N   UNL     1       0.810   9.438  18.888  0.00  0.00    +0.000 N 
ATOM      2  C   UNL     1       1.518   8.656  17.859  0.00  0.00    +0.000 C 
ATOM      3  C   UNL     1       2.780   7.970  18.446  0.00  0.00    +0.000 C 
ATOM      4  N   UNL     1       2.566   7.199  19.707  0.00  0.00    +0.000 NA
ATOM      5  C   UNL     1       1.893   8.110  20.660  0.00  0.00    +0.000 C 
ATOM      6  C   UNL     1       0.583   8.737  20.158  0.00  0.00    +0.000 C 
ENDROOT
BRANCH   1  12
ATOM      7  C   UNL     1      -0.864  11.223  18.460  0.00  0.00    +0.000 A 
ATOM      8  C   UNL     1      -1.114  12.600  18.293  0.00  0.00    +0.000 A 
ATOM      9  C   UNL     1      -0.100  13.542  18.440  0.00  0.00    +0.000 A 
ATOM     10  C   UNL     1       1.180  13.121  18.751  0.00  0.00    +0.000 A 
ATOM     11  C   UNL     1       1.437  11.758  18.908  0.00  0.00    +0.000 A 
ATOM     12  C   UNL     1       0.441  10.764  18.756  0.00  0.00    +0.000 A 
BRANCH   7  14
ATOM     13  C   UNL     1      -2.121  10.013  16.855  0.00  0.00    +0.000 C 
ATOM     14  O   UNL     1      -1.853  10.291  18.229  0.00  0.00    +0.000 OA
ENDBRANCH   7  14
ENDBRANCH   1  12
BRANCH   4  15
ATOM     15  C   UNL     1       1.807   5.965  19.431  0.00  0.00    +0.000 C 
BRANCH  15  16
ATOM     16  C   UNL     1       2.282   4.744  20.181  0.00  0.00    +0.000 A 
ATOM     17  C   UNL     1       1.647   4.069  21.216  0.00  0.00    +0.000 A 
ATOM     18  C   UNL     1       2.369   2.904  21.508  0.00  0.00    +0.000 A 
ATOM     19  C   UNL     1       3.494   2.936  20.724  0.00  0.00    +0.000 A 
ATOM     20  N   UNL     1       3.459   4.037  19.883  0.00  0.00    +0.000 N 
BRANCH  20  21
ATOM     21  C   UNL     1       4.491   4.363  18.937  0.00  0.00    +0.000 A 
ATOM     22  C   UNL     1       5.655   5.009  19.387  0.00  0.00    +0.000 A 
ATOM     23  C   UNL     1       6.694   5.333  18.509  0.00  0.00    +0.000 A 
ATOM     24  C   UNL     1       6.608   4.981  17.170  0.00  0.00    +0.000 A 
ATOM     25  C   UNL     1       5.476   4.317  16.706  0.00  0.00    +0.000 A 
ATOM     26  C   UNL     1       4.405   4.014  17.571  0.00  0.00    +0.000 A 
BRANCH  26  27
ATOM     27  C   UNL     1       3.247   3.430  16.953  0.00  0.00    +0.000 C 
ATOM     28  N   UNL     1       2.284   2.986  16.481  0.00  0.00    +0.000 NA
ENDBRANCH  26  27
ENDBRANCH  20  21
ENDBRANCH  15  16
ENDBRANCH   4  15
TORSDOF 6
ENDMDL
MODEL 5
REMARK VINA RESULT:      -7.1      1.482      3.459
REMARK  Name = 
REMARK  7 active torsions:
REMARK  status: ('A' for Active; 'I' for Inactive)
REMARK    1  A    between atoms: C_1  and  O_2
REMARK    2  A    between atoms: O_2  and  C_3
REMARK    3  A    between atoms: C_8  and  N_9
REMARK    4  A    between atoms: N_12  and  C_13
REMARK    5  A    between atoms: C_13  and  C_14
REMARK    6  A    between atoms: N_18  and  C_19
REMARK    7  A    between atoms: C_24  and  C_25
REMARK                            x       y       z     vdW  Elec       q    Type
REMARK                         _______ _______ _______ _____ _____    ______ ____
ROOT
ATOM      1  N   UNL     1       1.373   8.962  19.130  0.00  0.00    +0.000 N 
ATOM      2  C   UNL     1       1.850   8.753  17.752  0.00  0.00    +0.000 C 
ATOM      3  C   UNL     1       3.181   7.956  17.734  0.00  0.00    +0.000 C 
ATOM      4  N   UNL     1       3.189   6.699  18.541  0.00  0.00    +0.000 NA
ATOM      5  C   UNL     1       2.736   7.059  19.903  0.00  0.00    +0.000 C 
ATOM      6  C   UNL     1       1.373   7.763  19.979  0.00  0.00    +0.000 C 
ENDROOT
BRANCH   1  12
ATOM      7  C   UNL     1       0.364  10.378  20.905  0.00  0.00    +0.000 A 
ATOM      8  C   UNL     1       0.006  11.674  21.328  0.00  0.00    +0.000 A 
ATOM      9  C   UNL     1       0.309  12.795  20.561  0.00  0.00    +0.000 A 
ATOM     10  C   UNL     1       0.971  12.637  19.358  0.00  0.00    +0.000 A 
ATOM     11  C   UNL     1       1.321  11.357  18.928  0.00  0.00    +0.000 A 
ATOM     12  C   UNL     1       1.023  10.187  19.668  0.00  0.00    +0.000 A 
BRANCH   7  14
ATOM     13  C   UNL     1      -0.152   9.471  23.033  0.00  0.00    +0.000 C 
ATOM     14  O   UNL     1      -0.014   9.267  21.627  0.00  0.00    +0.000 OA
ENDBRANCH   7  14
ENDBRANCH   1  12
BRANCH   4  15
ATOM     15  C   UNL     1       2.357   5.667  17.894  0.00  0.00    +0.000 C 
BRANCH  15  16
ATOM     16  C   UNL     1       2.718   4.245  18.246  0.00  0.00    +0.000 A 
ATOM     17  C   UNL     1       2.033   3.363  19.073  0.00  0.00    +0.000 A 
ATOM     18  C   UNL     1       2.638   2.102  18.992  0.00  0.00    +0.000 A 
ATOM     19  C   UNL     1       3.749   2.253  18.203  0.00  0.00    +0.000 A 
ATOM     20  N   UNL     1       3.814   3.547  17.711  0.00  0.00    +0.000 N 
BRANCH  20  21
ATOM     21  C   UNL     1       4.860   4.034  16.854  0.00  0.00    +0.000 A 
ATOM     22  C   UNL     1       4.760   3.830  15.466  0.00  0.00    +0.000 A 
ATOM     23  C   UNL     1       5.743   4.299  14.589  0.00  0.00    +0.000 A 
ATOM     24  C   UNL     1       6.825   5.017  15.077  0.00  0.00    +0.000 A 
ATOM     25  C   UNL     1       6.932   5.254  16.445  0.00  0.00    +0.000 A 
ATOM     26  C   UNL     1       5.968   4.758  17.345  0.00  0.00    +0.000 A 
BRANCH  26  27
ATOM     27  C   UNL     1       6.246   4.970  18.739  0.00  0.00    +0.000 C 
ATOM     28  N   UNL     1       6.516   5.141  19.856  0.00  0.00    +0.000 NA
ENDBRANCH  26  27
ENDBRANCH  20  21
ENDBRANCH  15  16
ENDBRANCH   4  15
TORSDOF 6
ENDMDL
MODEL 6
REMARK VINA RESULT:      -7.0      1.800      3.573
REMARK  Name = 
REMARK  7 active torsions:
REMARK  status: ('A' for Active; 'I' for Inactive)
REMARK    1  A    between atoms: C_1  and  O_2
REMARK    2  A    between atoms: O_2  and  C_3
REMARK    3  A    between atoms: C_8  and  N_9
REMARK    4  A    between atoms: N_12  and  C_13
REMARK    5  A    between atoms: C_13  and  C_14
REMARK    6  A    between atoms: N_18  and  C_19
REMARK    7  A    between atoms: C_24  and  C_25
REMARK                            x       y       z     vdW  Elec       q    Type
REMARK                         _______ _______ _______ _____ _____    ______ ____
ROOT
ATOM      1  N   UNL     1       0.884   9.277  18.832  0.00  0.00    +0.000 N 
ATOM      2  C   UNL     1       1.546   8.868  17.581  0.00  0.00    +0.000 C 
ATOM      3  C   UNL     1       2.963   8.297  17.856  0.00  0.00    +0.000 C 
ATOM      4  N   UNL     1       3.038   7.248  18.916  0.00  0.00    +0.000 NA
ATOM      5  C   UNL     1       2.382   7.803  20.121  0.00  0.00    +0.000 C 
ATOM      6  C   UNL     1       0.938   8.290  19.919  0.00  0.00    +0.000 C 
ENDROOT
BRANCH   1  12
ATOM      7  C   UNL     1       0.942  11.760  18.809  0.00  0.00    +0.000 A 
ATOM      8  C   UNL     1       0.285  12.966  19.127  0.00  0.00    +0.000 A 
ATOM      9  C   UNL     1      -0.998  12.969  19.664  0.00  0.00    +0.000 A 
ATOM     10  C   UNL     1      -1.642  11.768  19.896  0.00  0.00    +0.000 A 
ATOM     11  C   UNL     1      -0.995  10.570  19.591  0.00  0.00    +0.000 A 
ATOM     12  C   UNL     1       0.314  10.517  19.055  0.00  0.00    +0.000 A 
BRANCH   7  14
ATOM     13  C   UNL     1       2.825  13.052  18.173  0.00  0.00    +0.000 C 
ATOM     14  O   UNL     1       2.245  11.762  18.357  0.00  0.00    +0.000 OA
ENDBRANCH   7  14
ENDBRANCH   1  12
BRANCH   4  15
ATOM     15  C   UNL     1       2.432   5.991  18.438  0.00  0.00    +0.000 C 
BRANCH  15  16
ATOM     16  C   UNL     1       2.983   4.737  19.072  0.00  0.00    +0.000 A 
ATOM     17  C   UNL     1       2.497   4.046  20.176  0.00  0.00    +0.000 A 
ATOM     18  C   UNL     1       3.221   2.856  20.321  0.00  0.00    +0.000 A 
ATOM     19  C   UNL     1       4.212   2.884  19.373  0.00  0.00    +0.000 A 
ATOM     20  N   UNL     1       4.079   4.011  18.577  0.00  0.00    +0.000 N 
BRANCH  20  21
ATOM     21  C   UNL     1       4.961   4.341  17.491  0.00  0.00    +0.000 A 
ATOM     22  C   UNL     1       4.564   4.053  16.173  0.00  0.00    +0.000 A 
ATOM     23  C   UNL     1       5.379   4.369  15.082  0.00  0.00    +0.000 A 
ATOM     24  C   UNL     1       6.589   5.018  15.282  0.00  0.00    +0.000 A 
ATOM     25  C   UNL     1       6.991   5.337  16.576  0.00  0.00    +0.000 A 
ATOM     26  C   UNL     1       6.198   4.994  17.689  0.00  0.00    +0.000 A 
BRANCH  26  27
ATOM     27  C   UNL     1       6.771   5.274  18.977  0.00  0.00    +0.000 C 
ATOM     28  N   UNL     1       7.197   5.480  20.038  0.00  0.00    +0.000 NA
ENDBRANCH  26  27
ENDBRANCH  20  21
ENDBRANCH  15  16
ENDBRANCH   4  15
TORSDOF 6
ENDMDL
MODEL 7
REMARK VINA RESULT:      -7.0      1.850      3.543
REMARK  Name = 
REMARK  7 active torsions:
REMARK  status: ('A' for Active; 'I' for Inactive)
REMARK    1  A    between atoms: C_1  and  O_2
REMARK    2  A    between atoms: O_2  and  C_3
REMARK    3  A    between atoms: C_8  and  N_9
REMARK    4  A    between atoms: N_12  and  C_13
REMARK    5  A    between atoms: C_13  and  C_14
REMARK    6  A    between atoms: N_18  and  C_19
REMARK    7  A    between atoms: C_24  and  C_25
REMARK                            x       y       z     vdW  Elec       q    Type
REMARK                         _______ _______ _______ _____ _____    ______ ____
ROOT
ATOM      1  N   UNL     1       1.599   9.620  19.043  0.00  0.00    +0.000 N 
ATOM      2  C   UNL     1       1.554   8.819  20.279  0.00  0.00    +0.000 C 
ATOM      3  C   UNL     1       1.120   7.359  19.985  0.00  0.00    +0.000 C 
ATOM      4  N   UNL     1       1.864   6.676  18.885  0.00  0.00    +0.000 NA
ATOM      5  C   UNL     1       1.793   7.561  17.702  0.00  0.00    +0.000 C 
ATOM      6  C   UNL     1       2.306   8.993  17.918  0.00  0.00    +0.000 C 
ENDROOT
BRANCH   1  12
ATOM      7  C   UNL     1      -0.404  11.010  18.566  0.00  0.00    +0.000 A 
ATOM      8  C   UNL     1      -0.930  12.300  18.353  0.00  0.00    +0.000 A 
ATOM      9  C   UNL     1      -0.129  13.433  18.457  0.00  0.00    +0.000 A 
ATOM     10  C   UNL     1       1.210  13.294  18.770  0.00  0.00    +0.000 A 
ATOM     11  C   UNL     1       1.740  12.019  18.974  0.00  0.00    +0.000 A 
ATOM     12  C   UNL     1       0.967  10.838  18.867  0.00  0.00    +0.000 A 
BRANCH   7  14
ATOM     13  C   UNL     1      -2.489  10.132  17.857  0.00  0.00    +0.000 C 
ATOM     14  O   UNL     1      -1.183   9.888  18.379  0.00  0.00    +0.000 OA
ENDBRANCH   7  14
ENDBRANCH   1  12
BRANCH   4  15
ATOM     15  C   UNL     1       3.242   6.368  19.312  0.00  0.00    +0.000 C 
BRANCH  15  16
ATOM     16  C   UNL     1       3.503   4.915  19.624  0.00  0.00    +0.000 A 
ATOM     17  C   UNL     1       2.957   4.142  20.642  0.00  0.00    +0.000 A 
ATOM     18  C   UNL     1       3.356   2.811  20.465  0.00  0.00    +0.000 A 
ATOM     19  C   UNL     1       4.228   2.803  19.407  0.00  0.00    +0.000 A 
ATOM     20  N   UNL     1       4.321   4.071  18.854  0.00  0.00    +0.000 N 
BRANCH  20  21
ATOM     21  C   UNL     1       5.155   4.403  17.732  0.00  0.00    +0.000 A 
ATOM     22  C   UNL     1       4.686   4.149  16.431  0.00  0.00    +0.000 A 
ATOM     23  C   UNL     1       5.452   4.470  15.306  0.00  0.00    +0.000 A 
ATOM     24  C   UNL     1       6.684   5.089  15.456  0.00  0.00    +0.000 A 
ATOM     25  C   UNL     1       7.158   5.374  16.734  0.00  0.00    +0.000 A 
ATOM     26  C   UNL     1       6.413   5.026  17.879  0.00  0.00    +0.000 A 
BRANCH  26  27
ATOM     27  C   UNL     1       7.056   5.269  19.142  0.00  0.00    +0.000 C 
ATOM     28  N   UNL     1       7.613   5.480  20.138  0.00  0.00    +0.000 NA
ENDBRANCH  26  27
ENDBRANCH  20  21
ENDBRANCH  15  16
ENDBRANCH   4  15
TORSDOF 6
ENDMDL
MODEL 8
REMARK VINA RESULT:      -6.8      1.457      3.322
REMARK  Name = 
REMARK  7 active torsions:
REMARK  status: ('A' for Active; 'I' for Inactive)
REMARK    1  A    between atoms: C_1  and  O_2
REMARK    2  A    between atoms: O_2  and  C_3
REMARK    3  A    between atoms: C_8  and  N_9
REMARK    4  A    between atoms: N_12  and  C_13
REMARK    5  A    between atoms: C_13  and  C_14
REMARK    6  A    between atoms: N_18  and  C_19
REMARK    7  A    between atoms: C_24  and  C_25
REMARK                            x       y       z     vdW  Elec       q    Type
REMARK                         _______ _______ _______ _____ _____    ______ ____
ROOT
ATOM      1  N   UNL     1       0.924   8.555  19.835  0.00  0.00    +0.000 N 
ATOM      2  C   UNL     1       1.357   8.860  18.461  0.00  0.00    +0.000 C 
ATOM      3  C   UNL     1       2.801   8.353  18.202  0.00  0.00    +0.000 C 
ATOM      4  N   UNL     1       3.062   6.933  18.585  0.00  0.00    +0.000 NA
ATOM      5  C   UNL     1       2.626   6.779  19.991  0.00  0.00    +0.000 C 
ATOM      6  C   UNL     1       1.169   7.176  20.276  0.00  0.00    +0.000 C 
ENDROOT
BRANCH   1  12
ATOM      7  C   UNL     1       0.348  10.877  20.508  0.00  0.00    +0.000 A 
ATOM      8  C   UNL     1      -0.158  11.731  21.508  0.00  0.00    +0.000 A 
ATOM      9  C   UNL     1      -0.639  11.229  22.713  0.00  0.00    +0.000 A 
ATOM     10  C   UNL     1      -0.616   9.865  22.939  0.00  0.00    +0.000 A 
ATOM     11  C   UNL     1      -0.109   9.013  21.957  0.00  0.00    +0.000 A 
ATOM     12  C   UNL     1       0.401   9.480  20.722  0.00  0.00    +0.000 A 
BRANCH   7  14
ATOM     13  C   UNL     1       1.745  12.523  19.531  0.00  0.00    +0.000 C 
ATOM     14  O   UNL     1       0.900  11.387  19.353  0.00  0.00    +0.000 OA
ENDBRANCH   7  14
ENDBRANCH   1  12
BRANCH   4  15
ATOM     15  C   UNL     1       2.383   6.016  17.650  0.00  0.00    +0.000 C 
BRANCH  15  16
ATOM     16  C   UNL     1       2.626   4.549  17.909  0.00  0.00    +0.000 A 
ATOM     17  C   UNL     1       1.692   3.525  17.999  0.00  0.00    +0.000 A 
ATOM     18  C   UNL     1       2.368   2.301  18.092  0.00  0.00    +0.000 A 
ATOM     19  C   UNL     1       3.704   2.599  18.167  0.00  0.00    +0.000 A 
ATOM     20  N   UNL     1       3.898   3.964  18.034  0.00  0.00    +0.000 N 
BRANCH  20  21
ATOM     21  C   UNL     1       5.184   4.605  18.072  0.00  0.00    +0.000 A 
ATOM     22  C   UNL     1       5.717   5.000  19.312  0.00  0.00    +0.000 A 
ATOM     23  C   UNL     1       6.970   5.612  19.403  0.00  0.00    +0.000 A 
ATOM     24  C   UNL     1       7.736   5.805  18.263  0.00  0.00    +0.000 A 
ATOM     25  C   UNL     1       7.240   5.398  17.026  0.00  0.00    +0.000 A 
ATOM     26  C   UNL     1       5.963   4.812  16.913  0.00  0.00    +0.000 A 
BRANCH  26  27
ATOM     27  C   UNL     1       5.516   4.538  15.575  0.00  0.00    +0.000 C 
ATOM     28  N   UNL     1       5.119   4.347  14.501  0.00  0.00    +0.000 NA
ENDBRANCH  26  27
ENDBRANCH  20  21
ENDBRANCH  15  16
ENDBRANCH   4  15
TORSDOF 6
ENDMDL
MODEL 9
REMARK VINA RESULT:      -6.8      1.604      3.470
REMARK  Name = 
REMARK  7 active torsions:
REMARK  status: ('A' for Active; 'I' for Inactive)
REMARK    1  A    between atoms: C_1  and  O_2
REMARK    2  A    between atoms: O_2  and  C_3
REMARK    3  A    between atoms: C_8  and  N_9
REMARK    4  A    between atoms: N_12  and  C_13
REMARK    5  A    between atoms: C_13  and  C_14
REMARK    6  A    between atoms: N_18  and  C_19
REMARK    7  A    between atoms: C_24  and  C_25
REMARK                            x       y       z     vdW  Elec       q    Type
REMARK                         _______ _______ _______ _____ _____    ______ ____
ROOT
ATOM      1  N   UNL     1       1.386   9.053  19.849  0.00  0.00    +0.000 N 
ATOM      2  C   UNL     1       1.396   7.987  20.864  0.00  0.00    +0.000 C 
ATOM      3  C   UNL     1       1.129   6.599  20.223  0.00  0.00    +0.000 C 
ATOM      4  N   UNL     1       1.970   6.267  19.034  0.00  0.00    +0.000 NA
ATOM      5  C   UNL     1       1.834   7.393  18.083  0.00  0.00    +0.000 C 
ATOM      6  C   UNL     1       2.185   8.779  18.646  0.00  0.00    +0.000 C 
ENDROOT
BRANCH   1  12
ATOM      7  C   UNL     1       0.280  10.878  21.122  0.00  0.00    +0.000 A 
ATOM      8  C   UNL     1      -0.543  12.021  21.083  0.00  0.00    +0.000 A 
ATOM      9  C   UNL     1      -1.007  12.538  19.878  0.00  0.00    +0.000 A 
ATOM     10  C   UNL     1      -0.661  11.916  18.693  0.00  0.00    +0.000 A 
ATOM     11  C   UNL     1       0.146  10.778  18.723  0.00  0.00    +0.000 A 
ATOM     12  C   UNL     1       0.632  10.210  19.925  0.00  0.00    +0.000 A 
BRANCH   7  14
ATOM     13  C   UNL     1      -0.400   9.978  23.206  0.00  0.00    +0.000 C 
ATOM     14  O   UNL     1       0.666  10.323  22.323  0.00  0.00    +0.000 OA
ENDBRANCH   7  14
ENDBRANCH   1  12
BRANCH   4  15
ATOM     15  C   UNL     1       3.362   6.006  19.446  0.00  0.00    +0.000 C 
BRANCH  15  16
ATOM     16  C   UNL     1       3.699   4.552  19.664  0.00  0.00    +0.000 A 
ATOM     17  C   UNL     1       3.237   3.701  20.661  0.00  0.00    +0.000 A 
ATOM     18  C   UNL     1       3.683   2.401  20.391  0.00  0.00    +0.000 A 
ATOM     19  C   UNL     1       4.502   2.490  19.295  0.00  0.00    +0.000 A 
ATOM     20  N   UNL     1       4.514   3.788  18.811  0.00  0.00    +0.000 N 
BRANCH  20  21
ATOM     21  C   UNL     1       5.277   4.218  17.671  0.00  0.00    +0.000 A 
ATOM     22  C   UNL     1       4.792   3.947  16.380  0.00  0.00    +0.000 A 
ATOM     23  C   UNL     1       5.488   4.359  15.240  0.00  0.00    +0.000 A 
ATOM     24  C   UNL     1       6.662   5.086  15.366  0.00  0.00    +0.000 A 
ATOM     25  C   UNL     1       7.149   5.390  16.635  0.00  0.00    +0.000 A 
ATOM     26  C   UNL     1       6.477   4.952  17.794  0.00  0.00    +0.000 A 
BRANCH  26  27
ATOM     27  C   UNL     1       7.134   5.230  19.042  0.00  0.00    +0.000 C 
ATOM     28  N   UNL     1       7.638   5.491  20.055  0.00  0.00    +0.000 NA
ENDBRANCH  26  27
ENDBRANCH  20  21
ENDBRANCH  15  16
ENDBRANCH   4  15
TORSDOF 6
ENDMDL
