MODEL 1
REMARK VINA RESULT:      -7.9      0.000      0.000
REMARK  Name = 
REMARK  5 active torsions:
REMARK  status: ('A' for Active; 'I' for Inactive)
REMARK    1  A    between atoms: C_1  and  C_2
REMARK    2  A    between atoms: C_2  and  C_3
REMARK    3  A    between atoms: C_3  and  C_4
REMARK    4  A    between atoms: C_9  and  C_11
REMARK    5  A    between atoms: C_11  and  N_12
REMARK                            x       y       z     vdW  Elec       q    Type
REMARK                         _______ _______ _______ _____ _____    ______ ____
ROOT
ATOM      1  C   UNL     1       7.023   4.327  13.052  0.00  0.00    +0.000 A 
ATOM      2  N   UNL     1       7.938   5.212  13.389  0.00  0.00    +0.000 NA
ATOM      3  N   UNL     1       7.774   5.653  14.691  0.00  0.00    +0.000 NA
ATOM      4  C   UNL     1       6.777   5.049  15.300  0.00  0.00    +0.000 A 
ATOM      5  N   UNL     1       6.411   5.323  16.597  0.00  0.00    +0.000 N 
ATOM      6  C   UNL     1       5.570   4.552  17.368  0.00  0.00    +0.000 C 
ATOM      7  O   UNL     1       5.064   3.473  17.050  0.00  0.00    +0.000 OA
ATOM      8  S   UNL     1       5.920   3.955  14.311  0.00  0.00    +0.000 S 
ATOM      9  H   UNL     1       6.947   6.068  17.028  0.00  0.00    +0.000 HD
ENDROOT
BRANCH   1  10
ATOM     10  C   UNL     1       6.902   3.676  11.712  0.00  0.00    +0.000 C 
BRANCH  10  12
ATOM     11  C   UNL     1       6.414   1.279  11.106  0.00  0.00    +0.000 C 
ATOM     12  C   UNL     1       5.863   2.553  11.725  0.00  0.00    +0.000 C 
ENDBRANCH  10  12
ENDBRANCH   1  10
BRANCH   6  13
ATOM     13  C   UNL     1       5.368   5.093  18.782  0.00  0.00    +0.000 C 
BRANCH  13  14
ATOM     14  N   UNL     1       3.964   5.165  19.085  0.00  0.00    +0.000 N 
ATOM     15  C   UNL     1       3.154   6.243  18.806  0.00  0.00    +0.000 A 
ATOM     16  O   UNL     1       3.516   7.255  18.220  0.00  0.00    +0.000 OA
ATOM     17  O   UNL     1       1.863   6.052  19.310  0.00  0.00    +0.000 OA
ATOM     18  C   UNL     1       1.973   4.825  19.948  0.00  0.00    +0.000 A 
ATOM     19  C   UNL     1       0.967   4.204  20.658  0.00  0.00    +0.000 A 
ATOM     20  C   UNL     1       1.268   2.977  21.257  0.00  0.00    +0.000 A 
ATOM     21  C   UNL     1       2.555   2.414  21.135  0.00  0.00    +0.000 A 
ATOM     22  C   UNL     1       3.559   3.067  20.411  0.00  0.00    +0.000 A 
ATOM     23  C   UNL     1       3.231   4.272  19.831  0.00  0.00    +0.000 A 
ENDBRANCH  13  14
ENDBRANCH   6  13
TORSDOF 4
ENDMDL
MODEL 2
REMARK VINA RESULT:      -7.2      4.290      8.320
REMARK  Name = 
REMARK  5 active torsions:
REMARK  status: ('A' for Active; 'I' for Inactive)
REMARK    1  A    between atoms: C_1  and  C_2
REMARK    2  A    between atoms: C_2  and  C_3
REMARK    3  A    between atoms: C_3  and  C_4
REMARK    4  A    between atoms: C_9  and  C_11
REMARK    5  A    between atoms: C_11  and  N_12
REMARK                            x       y       z     vdW  Elec       q    Type
REMARK                         _______ _______ _______ _____ _____    ______ ____
ROOT
ATOM      1  C   UNL     1       0.560  10.677  20.823  0.00  0.00    +0.000 A 
ATOM      2  N   UNL     1       0.736  10.308  22.075  0.00  0.00    +0.000 NA
ATOM      3  N   UNL     1       1.217   9.013  22.168  0.00  0.00    +0.000 NA
ATOM      4  C   UNL     1       1.433   8.476  20.987  0.00  0.00    +0.000 A 
ATOM      5  N   UNL     1       1.904   7.194  20.819  0.00  0.00    +0.000 N 
ATOM      6  C   UNL     1       2.399   6.674  19.643  0.00  0.00    +0.000 C 
ATOM      7  O   UNL     1       2.559   7.281  18.582  0.00  0.00    +0.000 OA
ATOM      8  S   UNL     1       0.997   9.478  19.678  0.00  0.00    +0.000 S 
ATOM      9  H   UNL     1       2.023   6.681  21.686  0.00  0.00    +0.000 HD
ENDROOT
BRANCH   1  10
ATOM     10  C   UNL     1       0.028  12.001  20.379  0.00  0.00    +0.000 C 
BRANCH  10  12
ATOM     11  C   UNL     1      -2.079  11.660  19.038  0.00  0.00    +0.000 C 
ATOM     12  C   UNL     1      -1.501  12.025  20.397  0.00  0.00    +0.000 C 
ENDBRANCH  10  12
ENDBRANCH   1  10
BRANCH   6  13
ATOM     13  C   UNL     1       2.873   5.228  19.765  0.00  0.00    +0.000 C 
BRANCH  13  14
ATOM     14  N   UNL     1       3.563   4.834  18.566  0.00  0.00    +0.000 N 
ATOM     15  C   UNL     1       2.985   4.164  17.512  0.00  0.00    +0.000 A 
ATOM     16  O   UNL     1       1.800   3.864  17.440  0.00  0.00    +0.000 OA
ATOM     17  O   UNL     1       3.934   3.835  16.537  0.00  0.00    +0.000 OA
ATOM     18  C   UNL     1       5.112   4.301  17.104  0.00  0.00    +0.000 A 
ATOM     19  C   UNL     1       6.368   4.171  16.548  0.00  0.00    +0.000 A 
ATOM     20  C   UNL     1       7.447   4.682  17.276  0.00  0.00    +0.000 A 
ATOM     21  C   UNL     1       7.242   5.298  18.528  0.00  0.00    +0.000 A 
ATOM     22  C   UNL     1       5.957   5.414  19.070  0.00  0.00    +0.000 A 
ATOM     23  C   UNL     1       4.915   4.903  18.329  0.00  0.00    +0.000 A 
ENDBRANCH  13  14
ENDBRANCH   6  13
TORSDOF 4
ENDMDL
MODEL 3
REMARK VINA RESULT:      -7.1      4.311      8.390
REMARK  Name = 
REMARK  5 active torsions:
REMARK  status: ('A' for Active; 'I' for Inactive)
REMARK    1  A    between atoms: C_1  and  C_2
REMARK    2  A    between atoms: C_2  and  C_3
REMARK    3  A    between atoms: C_3  and  C_4
REMARK    4  A    between atoms: C_9  and  C_11
REMARK    5  A    between atoms: C_11  and  N_12
REMARK                            x       y       z     vdW  Elec       q    Type
REMARK                         _______ _______ _______ _____ _____    ______ ____
ROOT
ATOM      1  C   UNL     1       0.510  10.690  20.938  0.00  0.00    +0.000 A 
ATOM      2  N   UNL     1       0.707  10.318  22.186  0.00  0.00    +0.000 NA
ATOM      3  N   UNL     1       1.193   9.023  22.269  0.00  0.00    +0.000 NA
ATOM      4  C   UNL     1       1.389   8.489  21.083  0.00  0.00    +0.000 A 
ATOM      5  N   UNL     1       1.858   7.209  20.903  0.00  0.00    +0.000 N 
ATOM      6  C   UNL     1       2.334   6.692  19.718  0.00  0.00    +0.000 C 
ATOM      7  O   UNL     1       2.475   7.302  18.656  0.00  0.00    +0.000 OA
ATOM      8  S   UNL     1       0.929   9.494  19.783  0.00  0.00    +0.000 S 
ATOM      9  H   UNL     1       1.993   6.694  21.767  0.00  0.00    +0.000 HD
ENDROOT
BRANCH   1  10
ATOM     10  C   UNL     1      -0.031  12.014  20.506  0.00  0.00    +0.000 C 
BRANCH  10  12
ATOM     11  C   UNL     1       2.146  13.282  20.458  0.00  0.00    +0.000 C 
ATOM     12  C   UNL     1       0.774  13.171  21.102  0.00  0.00    +0.000 C 
ENDBRANCH  10  12
ENDBRANCH   1  10
BRANCH   6  13
ATOM     13  C   UNL     1       2.812   5.246  19.829  0.00  0.00    +0.000 C 
BRANCH  13  14
ATOM     14  N   UNL     1       3.490   4.859  18.621  0.00  0.00    +0.000 N 
ATOM     15  C   UNL     1       2.900   4.200  17.566  0.00  0.00    +0.000 A 
ATOM     16  O   UNL     1       1.712   3.906  17.502  0.00  0.00    +0.000 OA
ATOM     17  O   UNL     1       3.838   3.875  16.581  0.00  0.00    +0.000 OA
ATOM     18  C   UNL     1       5.023   4.331  17.140  0.00  0.00    +0.000 A 
ATOM     19  C   UNL     1       6.273   4.199  16.573  0.00  0.00    +0.000 A 
ATOM     20  C   UNL     1       7.361   4.699  17.295  0.00  0.00    +0.000 A 
ATOM     21  C   UNL     1       7.171   5.306  18.554  0.00  0.00    +0.000 A 
ATOM     22  C   UNL     1       5.891   5.423  19.109  0.00  0.00    +0.000 A 
ATOM     23  C   UNL     1       4.840   4.924  18.372  0.00  0.00    +0.000 A 
ENDBRANCH  13  14
ENDBRANCH   6  13
TORSDOF 4
ENDMDL
MODEL 4
REMARK VINA RESULT:      -7.1      1.429      1.937
REMARK  Name = 
REMARK  5 active torsions:
REMARK  status: ('A' for Active; 'I' for Inactive)
REMARK    1  A    between atoms: C_1  and  C_2
REMARK    2  A    between atoms: C_2  and  C_3
REMARK    3  A    between atoms: C_3  and  C_4
REMARK    4  A    between atoms: C_9  and  C_11
REMARK    5  A    between atoms: C_11  and  N_12
REMARK                            x       y       z     vdW  Elec       q    Type
REMARK                         _______ _______ _______ _____ _____    ______ ____
ROOT
ATOM      1  C   UNL     1       6.990   4.341  12.828  0.00  0.00    +0.000 A 
ATOM      2  N   UNL     1       7.951   5.042  13.395  0.00  0.00    +0.000 NA
ATOM      3  N   UNL     1       7.557   5.565  14.615  0.00  0.00    +0.000 NA
ATOM      4  C   UNL     1       6.337   5.198  14.943  0.00  0.00    +0.000 A 
ATOM      5  N   UNL     1       5.719   5.598  16.106  0.00  0.00    +0.000 N 
ATOM      6  C   UNL     1       4.572   5.045  16.630  0.00  0.00    +0.000 C 
ATOM      7  O   UNL     1       3.955   4.074  16.185  0.00  0.00    +0.000 OA
ATOM      8  S   UNL     1       5.553   4.253  13.759  0.00  0.00    +0.000 S 
ATOM      9  H   UNL     1       6.269   6.241  16.665  0.00  0.00    +0.000 HD
ENDROOT
BRANCH   1  10
ATOM     10  C   UNL     1       7.081   3.668  11.497  0.00  0.00    +0.000 C 
BRANCH  10  12
ATOM     11  C   UNL     1       5.953   1.433  11.208  0.00  0.00    +0.000 C 
ATOM     12  C   UNL     1       7.220   2.152  11.643  0.00  0.00    +0.000 C 
ENDBRANCH  10  12
ENDBRANCH   1  10
BRANCH   6  13
ATOM     13  C   UNL     1       4.134   5.678  17.949  0.00  0.00    +0.000 C 
BRANCH  13  14
ATOM     14  N   UNL     1       4.113   4.684  18.988  0.00  0.00    +0.000 N 
ATOM     15  C   UNL     1       5.194   3.920  19.367  0.00  0.00    +0.000 A 
ATOM     16  O   UNL     1       6.322   4.027  18.902  0.00  0.00    +0.000 OA
ATOM     17  O   UNL     1       4.835   2.975  20.334  0.00  0.00    +0.000 OA
ATOM     18  C   UNL     1       3.469   3.189  20.463  0.00  0.00    +0.000 A 
ATOM     19  C   UNL     1       2.623   2.463  21.274  0.00  0.00    +0.000 A 
ATOM     20  C   UNL     1       1.268   2.805  21.257  0.00  0.00    +0.000 A 
ATOM     21  C   UNL     1       0.801   3.851  20.434  0.00  0.00    +0.000 A 
ATOM     22  C   UNL     1       1.682   4.571  19.617  0.00  0.00    +0.000 A 
ATOM     23  C   UNL     1       3.010   4.211  19.658  0.00  0.00    +0.000 A 
ENDBRANCH  13  14
ENDBRANCH   6  13
TORSDOF 4
ENDMDL
MODEL 5
REMARK VINA RESULT:      -6.9      3.352      7.274
REMARK  Name = 
REMARK  5 active torsions:
REMARK  status: ('A' for Active; 'I' for Inactive)
REMARK    1  A    between atoms: C_1  and  C_2
REMARK    2  A    between atoms: C_2  and  C_3
REMARK    3  A    between atoms: C_3  and  C_4
REMARK    4  A    between atoms: C_9  and  C_11
REMARK    5  A    between atoms: C_11  and  N_12
REMARK                            x       y       z     vdW  Elec       q    Type
REMARK                         _______ _______ _______ _____ _____    ______ ____
ROOT
ATOM      1  C   UNL     1       1.399   8.903  19.058  0.00  0.00    +0.000 A 
ATOM      2  N   UNL     1       1.874   8.961  17.831  0.00  0.00    +0.000 NA
ATOM      3  N   UNL     1       2.765   7.932  17.573  0.00  0.00    +0.000 NA
ATOM      4  C   UNL     1       2.887   7.112  18.594  0.00  0.00    +0.000 A 
ATOM      5  N   UNL     1       3.720   6.018  18.584  0.00  0.00    +0.000 N 
ATOM      6  C   UNL     1       3.694   4.986  19.496  0.00  0.00    +0.000 C 
ATOM      7  O   UNL     1       2.890   4.845  20.421  0.00  0.00    +0.000 OA
ATOM      8  S   UNL     1       1.986   7.573  19.968  0.00  0.00    +0.000 S 
ATOM      9  H   UNL     1       4.270   5.926  17.736  0.00  0.00    +0.000 HD
ENDROOT
BRANCH   1  10
ATOM     10  C   UNL     1       0.440   9.877  19.661  0.00  0.00    +0.000 C 
BRANCH  10  12
ATOM     11  C   UNL     1      -1.570  10.241  18.184  0.00  0.00    +0.000 C 
ATOM     12  C   UNL     1      -0.203  10.765  18.593  0.00  0.00    +0.000 C 
ENDBRANCH  10  12
ENDBRANCH   1  10
BRANCH   6  13
ATOM     13  C   UNL     1       4.722   3.893  19.215  0.00  0.00    +0.000 C 
BRANCH  13  14
ATOM     14  N   UNL     1       5.783   4.416  18.397  0.00  0.00    +0.000 N 
ATOM     15  C   UNL     1       6.844   5.158  18.866  0.00  0.00    +0.000 A 
ATOM     16  O   UNL     1       7.043   5.424  20.045  0.00  0.00    +0.000 OA
ATOM     17  O   UNL     1       7.655   5.605  17.817  0.00  0.00    +0.000 OA
ATOM     18  C   UNL     1       6.982   5.129  16.701  0.00  0.00    +0.000 A 
ATOM     19  C   UNL     1       7.356   5.350  15.392  0.00  0.00    +0.000 A 
ATOM     20  C   UNL     1       6.540   4.813  14.392  0.00  0.00    +0.000 A 
ATOM     21  C   UNL     1       5.382   4.080  14.726  0.00  0.00    +0.000 A 
ATOM     22  C   UNL     1       5.023   3.873  16.063  0.00  0.00    +0.000 A 
ATOM     23  C   UNL     1       5.848   4.413  17.024  0.00  0.00    +0.000 A 
ENDBRANCH  13  14
ENDBRANCH   6  13
TORSDOF 4
ENDMDL
MODEL 6
REMARK VINA RESULT:      -6.9      3.757      7.546
REMARK  Name = 
REMARK  5 active torsions:
REMARK  status: ('A' for Active; 'I' for Inactive)
REMARK    1  A    between atoms: C_1  and  C_2
REMARK    2  A    between atoms: C_2  and  C_3
REMARK    3  A    between atoms: C_3  and  C_4
REMARK    4  A    between atoms: C_9  and  C_11
REMARK    5  A    between atoms: C_11  and  N_12
REMARK                            x       y       z     vdW  Elec       q    Type
REMARK                         _______ _______ _______ _____ _____    ______ ____
ROOT
ATOM      1  C   UNL     1       1.229  10.149  18.769  0.00  0.00    +0.000 A 
ATOM      2  N   UNL     1       1.771   9.907  17.593  0.00  0.00    +0.000 NA
ATOM      3  N   UNL     1       2.354   8.651  17.542  0.00  0.00    +0.000 NA
ATOM      4  C   UNL     1       2.186   7.979  18.660  0.00  0.00    +0.000 A 
ATOM      5  N   UNL     1       2.682   6.711  18.856  0.00  0.00    +0.000 N 
ATOM      6  C   UNL     1       2.319   5.862  19.878  0.00  0.00    +0.000 C 
ATOM      7  O   UNL     1       1.457   6.070  20.735  0.00  0.00    +0.000 OA
ATOM      8  S   UNL     1       1.372   8.851  19.880  0.00  0.00    +0.000 S 
ATOM      9  H   UNL     1       3.231   6.358  18.080  0.00  0.00    +0.000 HD
ENDROOT
BRANCH   1  10
ATOM     10  C   UNL     1       0.546  11.419  19.161  0.00  0.00    +0.000 C 
BRANCH  10  12
ATOM     11  C   UNL     1      -0.948  11.670  21.176  0.00  0.00    +0.000 C 
ATOM     12  C   UNL     1      -0.840  11.151  19.751  0.00  0.00    +0.000 C 
ENDBRANCH  10  12
ENDBRANCH   1  10
BRANCH   6  13
ATOM     13  C   UNL     1       3.018   4.505  19.824  0.00  0.00    +0.000 C 
BRANCH  13  14
ATOM     14  N   UNL     1       3.733   4.370  18.584  0.00  0.00    +0.000 N 
ATOM     15  C   UNL     1       3.229   3.779  17.447  0.00  0.00    +0.000 A 
ATOM     16  O   UNL     1       2.091   3.340  17.334  0.00  0.00    +0.000 OA
ATOM     17  O   UNL     1       4.196   3.710  16.438  0.00  0.00    +0.000 OA
ATOM     18  C   UNL     1       5.314   4.244  17.064  0.00  0.00    +0.000 A 
ATOM     19  C   UNL     1       6.566   4.354  16.498  0.00  0.00    +0.000 A 
ATOM     20  C   UNL     1       7.583   4.897  17.290  0.00  0.00    +0.000 A 
ATOM     21  C   UNL     1       7.321   5.307  18.613  0.00  0.00    +0.000 A 
ATOM     22  C   UNL     1       6.040   5.181  19.165  0.00  0.00    +0.000 A 
ATOM     23  C   UNL     1       5.061   4.645  18.359  0.00  0.00    +0.000 A 
ENDBRANCH  13  14
ENDBRANCH   6  13
TORSDOF 4
ENDMDL
MODEL 7
REMARK VINA RESULT:      -6.8      1.496      2.280
REMARK  Name = 
REMARK  5 active torsions:
REMARK  status: ('A' for Active; 'I' for Inactive)
REMARK    1  A    between atoms: C_1  and  C_2
REMARK    2  A    between atoms: C_2  and  C_3
REMARK    3  A    between atoms: C_3  and  C_4
REMARK    4  A    between atoms: C_9  and  C_11
REMARK    5  A    between atoms: C_11  and  N_12
REMARK                            x       y       z     vdW  Elec       q    Type
REMARK                         _______ _______ _______ _____ _____    ______ ____
ROOT
ATOM      1  C   UNL     1       6.807   4.395  13.198  0.00  0.00    +0.000 A 
ATOM      2  N   UNL     1       7.796   5.205  13.517  0.00  0.00    +0.000 NA
ATOM      3  N   UNL     1       7.780   5.534  14.863  0.00  0.00    +0.000 NA
ATOM      4  C   UNL     1       6.815   4.920  15.513  0.00  0.00    +0.000 A 
ATOM      5  N   UNL     1       6.589   5.091  16.859  0.00  0.00    +0.000 N 
ATOM      6  C   UNL     1       5.785   4.292  17.641  0.00  0.00    +0.000 C 
ATOM      7  O   UNL     1       5.196   3.269  17.283  0.00  0.00    +0.000 OA
ATOM      8  S   UNL     1       5.811   3.959  14.524  0.00  0.00    +0.000 S 
ATOM      9  H   UNL     1       7.202   5.770  17.297  0.00  0.00    +0.000 HD
ENDROOT
BRANCH   1  10
ATOM     10  C   UNL     1       6.525   3.875  11.826  0.00  0.00    +0.000 C 
BRANCH  10  12
ATOM     11  C   UNL     1       4.139   3.368  11.193  0.00  0.00    +0.000 C 
ATOM     12  C   UNL     1       5.406   2.833  11.840  0.00  0.00    +0.000 C 
ENDBRANCH  10  12
ENDBRANCH   1  10
BRANCH   6  13
ATOM     13  C   UNL     1       5.748   4.710  19.109  0.00  0.00    +0.000 C 
BRANCH  13  14
ATOM     14  N   UNL     1       4.557   4.201  19.734  0.00  0.00    +0.000 N 
ATOM     15  C   UNL     1       4.381   2.899  20.147  0.00  0.00    +0.000 A 
ATOM     16  O   UNL     1       5.234   2.024  20.079  0.00  0.00    +0.000 OA
ATOM     17  O   UNL     1       3.084   2.689  20.626  0.00  0.00    +0.000 OA
ATOM     18  C   UNL     1       2.489   3.926  20.422  0.00  0.00    +0.000 A 
ATOM     19  C   UNL     1       1.171   4.230  20.691  0.00  0.00    +0.000 A 
ATOM     20  C   UNL     1       0.739   5.527  20.398  0.00  0.00    +0.000 A 
ATOM     21  C   UNL     1       1.628   6.473  19.846  0.00  0.00    +0.000 A 
ATOM     22  C   UNL     1       2.961   6.137  19.580  0.00  0.00    +0.000 A 
ATOM     23  C   UNL     1       3.356   4.853  19.882  0.00  0.00    +0.000 A 
ENDBRANCH  13  14
ENDBRANCH   6  13
TORSDOF 4
ENDMDL
MODEL 8
REMARK VINA RESULT:      -6.8      1.368      2.842
REMARK  Name = 
REMARK  5 active torsions:
REMARK  status: ('A' for Active; 'I' for Inactive)
REMARK    1  A    between atoms: C_1  and  C_2
REMARK    2  A    between atoms: C_2  and  C_3
REMARK    3  A    between atoms: C_3  and  C_4
REMARK    4  A    between atoms: C_9  and  C_11
REMARK    5  A    between atoms: C_11  and  N_12
REMARK                            x       y       z     vdW  Elec       q    Type
REMARK                         _______ _______ _______ _____ _____    ______ ____
ROOT
ATOM      1  C   UNL     1       6.759   4.399  13.513  0.00  0.00    +0.000 A 
ATOM      2  N   UNL     1       7.752   5.140  13.959  0.00  0.00    +0.000 NA
ATOM      3  N   UNL     1       7.622   5.420  15.309  0.00  0.00    +0.000 NA
ATOM      4  C   UNL     1       6.566   4.840  15.838  0.00  0.00    +0.000 A 
ATOM      5  N   UNL     1       6.218   4.975  17.161  0.00  0.00    +0.000 N 
ATOM      6  C   UNL     1       5.300   4.195  17.829  0.00  0.00    +0.000 C 
ATOM      7  O   UNL     1       4.696   3.221  17.373  0.00  0.00    +0.000 OA
ATOM      8  S   UNL     1       5.615   3.973  14.717  0.00  0.00    +0.000 S 
ATOM      9  H   UNL     1       6.820   5.602  17.684  0.00  0.00    +0.000 HD
ENDROOT
BRANCH   1  10
ATOM     10  C   UNL     1       6.586   3.946  12.100  0.00  0.00    +0.000 C 
BRANCH  10  12
ATOM     11  C   UNL     1       4.289   3.276  11.308  0.00  0.00    +0.000 C 
ATOM     12  C   UNL     1       5.563   2.813  11.995  0.00  0.00    +0.000 C 
ENDBRANCH  10  12
ENDBRANCH   1  10
BRANCH   6  13
ATOM     13  C   UNL     1       5.140   4.562  19.302  0.00  0.00    +0.000 C 
BRANCH  13  14
ATOM     14  N   UNL     1       3.897   5.257  19.503  0.00  0.00    +0.000 N 
ATOM     15  C   UNL     1       2.853   4.795  20.272  0.00  0.00    +0.000 A 
ATOM     16  O   UNL     1       2.871   3.757  20.923  0.00  0.00    +0.000 OA
ATOM     17  O   UNL     1       1.746   5.646  20.192  0.00  0.00    +0.000 OA
ATOM     18  C   UNL     1       2.178   6.607  19.289  0.00  0.00    +0.000 A 
ATOM     19  C   UNL     1       1.420   7.663  18.827  0.00  0.00    +0.000 A 
ATOM     20  C   UNL     1       2.015   8.521  17.897  0.00  0.00    +0.000 A 
ATOM     21  C   UNL     1       3.336   8.299  17.457  0.00  0.00    +0.000 A 
ATOM     22  C   UNL     1       4.082   7.217  17.939  0.00  0.00    +0.000 A 
ATOM     23  C   UNL     1       3.469   6.392  18.856  0.00  0.00    +0.000 A 
ENDBRANCH  13  14
ENDBRANCH   6  13
TORSDOF 4
ENDMDL
MODEL 9
REMARK VINA RESULT:      -6.8      3.633      7.935
REMARK  Name = 
REMARK  5 active torsions:
REMARK  status: ('A' for Active; 'I' for Inactive)
REMARK    1  A    between atoms: C_1  and  C_2
REMARK    2  A    between atoms: C_2  and  C_3
REMARK    3  A    between atoms: C_3  and  C_4
REMARK    4  A    between atoms: C_9  and  C_11
REMARK    5  A    between atoms: C_11  and  N_12
REMARK                            x       y       z     vdW  Elec       q    Type
REMARK                         _______ _______ _______ _____ _____    ______ ____
ROOT
ATOM      1  C   UNL     1       0.806   9.675  19.623  0.00  0.00    +0.000 A 
ATOM      2  N   UNL     1       0.690   9.195  20.844  0.00  0.00    +0.000 NA
ATOM      3  N   UNL     1       1.365   7.995  20.993  0.00  0.00    +0.000 NA
ATOM      4  C   UNL     1       2.003   7.644  19.897  0.00  0.00    +0.000 A 
ATOM      5  N   UNL     1       2.739   6.486  19.794  0.00  0.00    +0.000 N 
ATOM      6  C   UNL     1       3.634   6.197  18.789  0.00  0.00    +0.000 C 
ATOM      7  O   UNL     1       3.967   6.943  17.865  0.00  0.00    +0.000 OA
ATOM      8  S   UNL     1       1.768   8.708  18.585  0.00  0.00    +0.000 S 
ATOM      9  H   UNL     1       2.705   5.901  20.623  0.00  0.00    +0.000 HD
ENDROOT
BRANCH   1  10
ATOM     10  C   UNL     1       0.176  10.936  19.127  0.00  0.00    +0.000 C 
BRANCH  10  12
ATOM     11  C   UNL     1       1.658  12.676  20.189  0.00  0.00    +0.000 C 
ATOM     12  C   UNL     1       1.220  12.028  18.885  0.00  0.00    +0.000 C 
ENDBRANCH  10  12
ENDBRANCH   1  10
BRANCH   6  13
ATOM     13  C   UNL     1       4.324   4.844  18.953  0.00  0.00    +0.000 C 
BRANCH  13  14
ATOM     14  N   UNL     1       5.548   4.822  18.200  0.00  0.00    +0.000 N 
ATOM     15  C   UNL     1       6.789   5.138  18.706  0.00  0.00    +0.000 A 
ATOM     16  O   UNL     1       7.013   5.427  19.875  0.00  0.00    +0.000 OA
ATOM     17  O   UNL     1       7.766   5.119  17.706  0.00  0.00    +0.000 OA
ATOM     18  C   UNL     1       7.022   4.829  16.571  0.00  0.00    +0.000 A 
ATOM     19  C   UNL     1       7.524   4.747  15.289  0.00  0.00    +0.000 A 
ATOM     20  C   UNL     1       6.618   4.468  14.262  0.00  0.00    +0.000 A 
ATOM     21  C   UNL     1       5.248   4.285  14.542  0.00  0.00    +0.000 A 
ATOM     22  C   UNL     1       4.764   4.376  15.853  0.00  0.00    +0.000 A 
ATOM     23  C   UNL     1       5.682   4.650  16.842  0.00  0.00    +0.000 A 
ENDBRANCH  13  14
ENDBRANCH   6  13
TORSDOF 4
ENDMDL
