MODEL 1
REMARK VINA RESULT:      -6.5      0.000      0.000
REMARK  Name = 
REMARK  6 active torsions:
REMARK  status: ('A' for Active; 'I' for Inactive)
REMARK    1  A    between atoms: C_2  and  C_3
REMARK    2  A    between atoms: C_3  and  O_4
REMARK    3  A    between atoms: O_4  and  C_5
REMARK    4  A    between atoms: C_10  and  N_11
REMARK    5  A    between atoms: N_21  and  C_22
REMARK    6  A    between atoms: C_23  and  C_24
REMARK                            x       y       z     vdW  Elec       q    Type
REMARK                         _______ _______ _______ _____ _____    ______ ____
ROOT
ATOM      1  N   UNL     1      -4.045  12.328  18.397  0.00  0.00    +0.000 N 
ATOM      2  C   UNL     1      -2.754  11.799  18.240  0.00  0.00    +0.000 A 
ATOM      3  N   UNL     1      -2.591  10.464  18.194  0.00  0.00    +0.000 NA
ATOM      4  C   UNL     1      -1.353   9.961  18.300  0.00  0.00    +0.000 A 
ATOM      5  C   UNL     1      -0.239  10.746  18.422  0.00  0.00    +0.000 A 
ATOM      6  C   UNL     1      -0.485  12.116  18.384  0.00  0.00    +0.000 A 
ATOM      7  N   UNL     1      -1.718  12.650  18.251  0.00  0.00    +0.000 NA
ATOM      8  C   UNL     1       0.673  12.986  18.556  0.00  0.00    +0.000 A 
ATOM      9  C   UNL     1       1.988  12.465  18.508  0.00  0.00    +0.000 A 
ATOM     10  N   UNL     1       2.918  13.384  18.720  0.00  0.00    +0.000 NA
ATOM     11  N   UNL     1       2.200  14.508  18.945  0.00  0.00    +0.000 N 
ATOM     12  C   UNL     1       2.952  15.692  19.296  0.00  0.00    +0.000 C 
ATOM     13  C   UNL     1       0.819  14.333  18.880  0.00  0.00    +0.000 A 
ATOM     14  C   UNL     1       2.295  11.031  18.269  0.00  0.00    +0.000 C 
ATOM     15  C   UNL     1       1.116  10.158  18.727  0.00  0.00    +0.000 C 
ATOM     16  H   UNL     1      -4.035  13.341  18.352  0.00  0.00    +0.000 HD
ENDROOT
BRANCH   1  22
ATOM     17  C   UNL     1      -5.494  12.264  20.397  0.00  0.00    +0.000 A 
ATOM     18  C   UNL     1      -6.670  11.809  21.024  0.00  0.00    +0.000 A 
ATOM     19  C   UNL     1      -7.458  10.813  20.441  0.00  0.00    +0.000 A 
ATOM     20  C   UNL     1      -7.095  10.299  19.209  0.00  0.00    +0.000 A 
ATOM     21  C   UNL     1      -5.972  10.798  18.553  0.00  0.00    +0.000 A 
ATOM     22  C   UNL     1      -5.141  11.790  19.112  0.00  0.00    +0.000 A 
BRANCH  17  23
ATOM     23  O   UNL     1      -4.638  13.162  21.011  0.00  0.00    +0.000 OA
BRANCH  23  24
ATOM     24  C   UNL     1      -4.429  12.893  22.402  0.00  0.00    +0.000 C 
BRANCH  24  26
ATOM     25  C   UNL     1      -2.094  12.198  21.835  0.00  0.00    +0.000 C 
ATOM     26  C   UNL     1      -2.962  12.778  22.677  0.00  0.00    +0.000 C 
ENDBRANCH  24  26
ENDBRANCH  23  24
ENDBRANCH  17  23
ENDBRANCH   1  22
BRANCH  13  27
ATOM     27  C   UNL     1      -0.173  15.383  19.199  0.00  0.00    +0.000 A 
ATOM     28  C   UNL     1      -0.419  16.464  18.340  0.00  0.00    +0.000 A 
ATOM     29  C   UNL     1      -1.313  17.483  18.691  0.00  0.00    +0.000 A 
ATOM     30  C   UNL     1      -2.035  17.401  19.877  0.00  0.00    +0.000 A 
ATOM     31  C   UNL     1      -1.844  16.314  20.722  0.00  0.00    +0.000 A 
ATOM     32  C   UNL     1      -0.897  15.339  20.399  0.00  0.00    +0.000 A 
ENDBRANCH  13  27
TORSDOF 5
ENDMDL
MODEL 2
REMARK VINA RESULT:      -6.4      0.442      1.090
REMARK  Name = 
REMARK  6 active torsions:
REMARK  status: ('A' for Active; 'I' for Inactive)
REMARK    1  A    between atoms: C_2  and  C_3
REMARK    2  A    between atoms: C_3  and  O_4
REMARK    3  A    between atoms: O_4  and  C_5
REMARK    4  A    between atoms: C_10  and  N_11
REMARK    5  A    between atoms: N_21  and  C_22
REMARK    6  A    between atoms: C_23  and  C_24
REMARK                            x       y       z     vdW  Elec       q    Type
REMARK                         _______ _______ _______ _____ _____    ______ ____
ROOT
ATOM      1  N   UNL     1      -4.072  12.343  18.456  0.00  0.00    +0.000 N 
ATOM      2  C   UNL     1      -2.786  11.805  18.282  0.00  0.00    +0.000 A 
ATOM      3  N   UNL     1      -2.636  10.468  18.224  0.00  0.00    +0.000 NA
ATOM      4  C   UNL     1      -1.401   9.955  18.315  0.00  0.00    +0.000 A 
ATOM      5  C   UNL     1      -0.279  10.730  18.431  0.00  0.00    +0.000 A 
ATOM      6  C   UNL     1      -0.514  12.101  18.406  0.00  0.00    +0.000 A 
ATOM      7  N   UNL     1      -1.744  12.647  18.290  0.00  0.00    +0.000 NA
ATOM      8  C   UNL     1       0.653  12.960  18.573  0.00  0.00    +0.000 A 
ATOM      9  C   UNL     1       1.963  12.429  18.509  0.00  0.00    +0.000 A 
ATOM     10  N   UNL     1       2.903  13.339  18.719  0.00  0.00    +0.000 NA
ATOM     11  N   UNL     1       2.196  14.467  18.959  0.00  0.00    +0.000 N 
ATOM     12  C   UNL     1       2.962  15.642  19.312  0.00  0.00    +0.000 C 
ATOM     13  C   UNL     1       0.814  14.304  18.906  0.00  0.00    +0.000 A 
ATOM     14  C   UNL     1       2.256  10.995  18.256  0.00  0.00    +0.000 C 
ATOM     15  C   UNL     1       1.074  10.128  18.719  0.00  0.00    +0.000 C 
ATOM     16  H   UNL     1      -4.054  13.357  18.419  0.00  0.00    +0.000 HD
ENDROOT
BRANCH   1  22
ATOM     17  C   UNL     1      -5.537  12.314  20.445  0.00  0.00    +0.000 A 
ATOM     18  C   UNL     1      -6.710  11.858  21.076  0.00  0.00    +0.000 A 
ATOM     19  C   UNL     1      -7.477  10.834  20.516  0.00  0.00    +0.000 A 
ATOM     20  C   UNL     1      -7.095  10.290  19.303  0.00  0.00    +0.000 A 
ATOM     21  C   UNL     1      -5.976  10.787  18.642  0.00  0.00    +0.000 A 
ATOM     22  C   UNL     1      -5.165  11.808  19.178  0.00  0.00    +0.000 A 
BRANCH  17  23
ATOM     23  O   UNL     1      -4.701  13.244  21.040  0.00  0.00    +0.000 OA
BRANCH  23  24
ATOM     24  C   UNL     1      -3.745  12.663  21.934  0.00  0.00    +0.000 C 
BRANCH  24  26
ATOM     25  C   UNL     1      -4.311  12.532  24.367  0.00  0.00    +0.000 C 
ATOM     26  C   UNL     1      -3.919  13.246  23.302  0.00  0.00    +0.000 C 
ENDBRANCH  24  26
ENDBRANCH  23  24
ENDBRANCH  17  23
ENDBRANCH   1  22
BRANCH  13  27
ATOM     27  C   UNL     1      -0.166  15.360  19.243  0.00  0.00    +0.000 A 
ATOM     28  C   UNL     1      -0.934  15.320  20.416  0.00  0.00    +0.000 A 
ATOM     29  C   UNL     1      -1.904  16.294  20.684  0.00  0.00    +0.000 A 
ATOM     30  C   UNL     1      -2.072  17.370  19.818  0.00  0.00    +0.000 A 
ATOM     31  C   UNL     1      -1.287  17.457  18.674  0.00  0.00    +0.000 A 
ATOM     32  C   UNL     1      -0.373  16.443  18.377  0.00  0.00    +0.000 A 
ENDBRANCH  13  27
TORSDOF 5
ENDMDL
MODEL 3
REMARK VINA RESULT:      -6.4      2.231      7.318
REMARK  Name = 
REMARK  6 active torsions:
REMARK  status: ('A' for Active; 'I' for Inactive)
REMARK    1  A    between atoms: C_2  and  C_3
REMARK    2  A    between atoms: C_3  and  O_4
REMARK    3  A    between atoms: O_4  and  C_5
REMARK    4  A    between atoms: C_10  and  N_11
REMARK    5  A    between atoms: N_21  and  C_22
REMARK    6  A    between atoms: C_23  and  C_24
REMARK                            x       y       z     vdW  Elec       q    Type
REMARK                         _______ _______ _______ _____ _____    ______ ____
ROOT
ATOM      1  N   UNL     1      -0.895  14.732  19.252  0.00  0.00    +0.000 N 
ATOM      2  C   UNL     1      -1.571  14.652  20.480  0.00  0.00    +0.000 A 
ATOM      3  N   UNL     1      -0.910  14.946  21.614  0.00  0.00    +0.000 NA
ATOM      4  C   UNL     1      -1.473  14.628  22.789  0.00  0.00    +0.000 A 
ATOM      5  C   UNL     1      -2.706  14.044  22.889  0.00  0.00    +0.000 A 
ATOM      6  C   UNL     1      -3.355  13.843  21.675  0.00  0.00    +0.000 A 
ATOM      7  N   UNL     1      -2.825  14.177  20.479  0.00  0.00    +0.000 NA
ATOM      8  C   UNL     1      -4.654  13.181  21.738  0.00  0.00    +0.000 A 
ATOM      9  C   UNL     1      -5.314  12.990  22.975  0.00  0.00    +0.000 A 
ATOM     10  N   UNL     1      -6.463  12.341  22.856  0.00  0.00    +0.000 NA
ATOM     11  N   UNL     1      -6.533  12.073  21.532  0.00  0.00    +0.000 N 
ATOM     12  C   UNL     1      -7.662  11.282  21.094  0.00  0.00    +0.000 C 
ATOM     13  C   UNL     1      -5.449  12.540  20.790  0.00  0.00    +0.000 A 
ATOM     14  C   UNL     1      -4.766  13.449  24.277  0.00  0.00    +0.000 C 
ATOM     15  C   UNL     1      -3.234  13.526  24.205  0.00  0.00    +0.000 C 
ATOM     16  H   UNL     1      -1.521  14.547  18.474  0.00  0.00    +0.000 HD
ENDROOT
BRANCH   1  22
ATOM     17  C   UNL     1       0.919  13.179  18.616  0.00  0.00    +0.000 A 
ATOM     18  C   UNL     1       2.252  12.980  18.209  0.00  0.00    +0.000 A 
ATOM     19  C   UNL     1       3.179  14.024  18.242  0.00  0.00    +0.000 A 
ATOM     20  C   UNL     1       2.766  15.282  18.642  0.00  0.00    +0.000 A 
ATOM     21  C   UNL     1       1.432  15.500  18.977  0.00  0.00    +0.000 A 
ATOM     22  C   UNL     1       0.468  14.471  18.973  0.00  0.00    +0.000 A 
BRANCH  17  23
ATOM     23  O   UNL     1       0.016  12.133  18.703  0.00  0.00    +0.000 OA
BRANCH  23  24
ATOM     24  C   UNL     1       0.608  10.902  19.133  0.00  0.00    +0.000 C 
BRANCH  24  26
ATOM     25  C   UNL     1      -0.803  11.111  21.188  0.00  0.00    +0.000 C 
ATOM     26  C   UNL     1      -0.168  10.348  20.286  0.00  0.00    +0.000 C 
ENDBRANCH  24  26
ENDBRANCH  23  24
ENDBRANCH  17  23
ENDBRANCH   1  22
BRANCH  13  27
ATOM     27  C   UNL     1      -5.245  12.273  19.349  0.00  0.00    +0.000 A 
ATOM     28  C   UNL     1      -4.197  11.467  18.880  0.00  0.00    +0.000 A 
ATOM     29  C   UNL     1      -3.980  11.281  17.510  0.00  0.00    +0.000 A 
ATOM     30  C   UNL     1      -4.854  11.837  16.582  0.00  0.00    +0.000 A 
ATOM     31  C   UNL     1      -5.929  12.600  17.025  0.00  0.00    +0.000 A 
ATOM     32  C   UNL     1      -6.096  12.841  18.391  0.00  0.00    +0.000 A 
ENDBRANCH  13  27
TORSDOF 5
ENDMDL
MODEL 4
REMARK VINA RESULT:      -6.3      2.209      7.414
REMARK  Name = 
REMARK  6 active torsions:
REMARK  status: ('A' for Active; 'I' for Inactive)
REMARK    1  A    between atoms: C_2  and  C_3
REMARK    2  A    between atoms: C_3  and  O_4
REMARK    3  A    between atoms: O_4  and  C_5
REMARK    4  A    between atoms: C_10  and  N_11
REMARK    5  A    between atoms: N_21  and  C_22
REMARK    6  A    between atoms: C_23  and  C_24
REMARK                            x       y       z     vdW  Elec       q    Type
REMARK                         _______ _______ _______ _____ _____    ______ ____
ROOT
ATOM      1  N   UNL     1      -0.753  14.802  19.157  0.00  0.00    +0.000 N 
ATOM      2  C   UNL     1      -1.421  14.731  20.390  0.00  0.00    +0.000 A 
ATOM      3  N   UNL     1      -0.754  15.039  21.517  0.00  0.00    +0.000 NA
ATOM      4  C   UNL     1      -1.308  14.729  22.698  0.00  0.00    +0.000 A 
ATOM      5  C   UNL     1      -2.538  14.141  22.812  0.00  0.00    +0.000 A 
ATOM      6  C   UNL     1      -3.195  13.926  21.603  0.00  0.00    +0.000 A 
ATOM      7  N   UNL     1      -2.673  14.252  20.401  0.00  0.00    +0.000 NA
ATOM      8  C   UNL     1      -4.490  13.260  21.681  0.00  0.00    +0.000 A 
ATOM      9  C   UNL     1      -5.142  13.078  22.925  0.00  0.00    +0.000 A 
ATOM     10  N   UNL     1      -6.288  12.424  22.818  0.00  0.00    +0.000 NA
ATOM     11  N   UNL     1      -6.366  12.143  21.497  0.00  0.00    +0.000 N 
ATOM     12  C   UNL     1      -7.495  11.344  21.075  0.00  0.00    +0.000 C 
ATOM     13  C   UNL     1      -5.289  12.608  20.744  0.00  0.00    +0.000 A 
ATOM     14  C   UNL     1      -4.587  13.552  24.219  0.00  0.00    +0.000 C 
ATOM     15  C   UNL     1      -3.055  13.634  24.136  0.00  0.00    +0.000 C 
ATOM     16  H   UNL     1      -1.383  14.608  18.385  0.00  0.00    +0.000 HD
ENDROOT
BRANCH   1  22
ATOM     17  C   UNL     1       1.073  13.240  18.579  0.00  0.00    +0.000 A 
ATOM     18  C   UNL     1       2.402  13.036  18.164  0.00  0.00    +0.000 A 
ATOM     19  C   UNL     1       3.315  14.093  18.124  0.00  0.00    +0.000 A 
ATOM     20  C   UNL     1       2.890  15.365  18.461  0.00  0.00    +0.000 A 
ATOM     21  C   UNL     1       1.559  15.584  18.804  0.00  0.00    +0.000 A 
ATOM     22  C   UNL     1       0.609  14.544  18.872  0.00  0.00    +0.000 A 
BRANCH  17  23
ATOM     23  O   UNL     1       0.186  12.189  18.738  0.00  0.00    +0.000 OA
BRANCH  23  24
ATOM     24  C   UNL     1       0.799  10.993  19.234  0.00  0.00    +0.000 C 
BRANCH  24  26
ATOM     25  C   UNL     1       1.636   9.050  17.899  0.00  0.00    +0.000 C 
ATOM     26  C   UNL     1       0.649   9.897  18.226  0.00  0.00    +0.000 C 
ENDBRANCH  24  26
ENDBRANCH  23  24
ENDBRANCH  17  23
ENDBRANCH   1  22
BRANCH  13  27
ATOM     27  C   UNL     1      -5.092  12.328  19.305  0.00  0.00    +0.000 A 
ATOM     28  C   UNL     1      -5.974  12.805  18.324  0.00  0.00    +0.000 A 
ATOM     29  C   UNL     1      -5.807  12.473  16.974  0.00  0.00    +0.000 A 
ATOM     30  C   UNL     1      -4.711  11.719  16.569  0.00  0.00    +0.000 A 
ATOM     31  C   UNL     1      -3.796  11.276  17.518  0.00  0.00    +0.000 A 
ATOM     32  C   UNL     1      -4.009  11.549  18.872  0.00  0.00    +0.000 A 
ENDBRANCH  13  27
TORSDOF 5
ENDMDL
MODEL 5
REMARK VINA RESULT:      -6.3      2.406      7.114
REMARK  Name = 
REMARK  6 active torsions:
REMARK  status: ('A' for Active; 'I' for Inactive)
REMARK    1  A    between atoms: C_2  and  C_3
REMARK    2  A    between atoms: C_3  and  O_4
REMARK    3  A    between atoms: O_4  and  C_5
REMARK    4  A    between atoms: C_10  and  N_11
REMARK    5  A    between atoms: N_21  and  C_22
REMARK    6  A    between atoms: C_23  and  C_24
REMARK                            x       y       z     vdW  Elec       q    Type
REMARK                         _______ _______ _______ _____ _____    ______ ____
ROOT
ATOM      1  N   UNL     1      -0.669  12.241  20.020  0.00  0.00    +0.000 N 
ATOM      2  C   UNL     1      -1.910  11.946  19.435  0.00  0.00    +0.000 A 
ATOM      3  N   UNL     1      -1.952  11.535  18.154  0.00  0.00    +0.000 NA
ATOM      4  C   UNL     1      -3.136  11.500  17.527  0.00  0.00    +0.000 A 
ATOM      5  C   UNL     1      -4.313  11.835  18.139  0.00  0.00    +0.000 A 
ATOM      6  C   UNL     1      -4.193  12.175  19.484  0.00  0.00    +0.000 A 
ATOM      7  N   UNL     1      -3.018  12.193  20.148  0.00  0.00    +0.000 NA
ATOM      8  C   UNL     1      -5.421  12.581  20.159  0.00  0.00    +0.000 A 
ATOM      9  C   UNL     1      -6.684  12.394  19.549  0.00  0.00    +0.000 A 
ATOM     10  N   UNL     1      -7.687  12.852  20.282  0.00  0.00    +0.000 NA
ATOM     11  N   UNL     1      -7.068  13.377  21.364  0.00  0.00    +0.000 N 
ATOM     12  C   UNL     1      -7.915  14.041  22.331  0.00  0.00    +0.000 C 
ATOM     13  C   UNL     1      -5.680  13.264  21.346  0.00  0.00    +0.000 A 
ATOM     14  C   UNL     1      -6.866  11.770  18.213  0.00  0.00    +0.000 C 
ATOM     15  C   UNL     1      -5.601  11.968  17.364  0.00  0.00    +0.000 C 
ATOM     16  H   UNL     1      -0.771  12.477  21.002  0.00  0.00    +0.000 HD
ENDROOT
BRANCH   1  22
ATOM     17  C   UNL     1       1.505  11.949  18.881  0.00  0.00    +0.000 A 
ATOM     18  C   UNL     1       2.576  12.509  18.161  0.00  0.00    +0.000 A 
ATOM     19  C   UNL     1       2.716  13.894  18.038  0.00  0.00    +0.000 A 
ATOM     20  C   UNL     1       1.762  14.721  18.601  0.00  0.00    +0.000 A 
ATOM     21  C   UNL     1       0.662  14.169  19.253  0.00  0.00    +0.000 A 
ATOM     22  C   UNL     1       0.491  12.779  19.413  0.00  0.00    +0.000 A 
BRANCH  17  23
ATOM     23  O   UNL     1       1.412  10.587  19.114  0.00  0.00    +0.000 OA
BRANCH  23  24
ATOM     24  C   UNL     1       1.160   9.821  17.931  0.00  0.00    +0.000 C 
BRANCH  24  26
ATOM     25  C   UNL     1       2.977   8.105  17.830  0.00  0.00    +0.000 C 
ATOM     26  C   UNL     1       1.707   8.438  18.102  0.00  0.00    +0.000 C 
ENDBRANCH  24  26
ENDBRANCH  23  24
ENDBRANCH  17  23
ENDBRANCH   1  22
BRANCH  13  27
ATOM     27  C   UNL     1      -4.779  13.859  22.358  0.00  0.00    +0.000 A 
ATOM     28  C   UNL     1      -4.366  13.153  23.497  0.00  0.00    +0.000 A 
ATOM     29  C   UNL     1      -3.567  13.757  24.477  0.00  0.00    +0.000 A 
ATOM     30  C   UNL     1      -3.103  15.055  24.298  0.00  0.00    +0.000 A 
ATOM     31  C   UNL     1      -3.459  15.758  23.152  0.00  0.00    +0.000 A 
ATOM     32  C   UNL     1      -4.316  15.175  22.215  0.00  0.00    +0.000 A 
ENDBRANCH  13  27
TORSDOF 5
ENDMDL
MODEL 6
REMARK VINA RESULT:      -6.3      1.957      6.927
REMARK  Name = 
REMARK  6 active torsions:
REMARK  status: ('A' for Active; 'I' for Inactive)
REMARK    1  A    between atoms: C_2  and  C_3
REMARK    2  A    between atoms: C_3  and  O_4
REMARK    3  A    between atoms: O_4  and  C_5
REMARK    4  A    between atoms: C_10  and  N_11
REMARK    5  A    between atoms: N_21  and  C_22
REMARK    6  A    between atoms: C_23  and  C_24
REMARK                            x       y       z     vdW  Elec       q    Type
REMARK                         _______ _______ _______ _____ _____    ______ ____
ROOT
ATOM      1  N   UNL     1      -0.433  12.562  19.830  0.00  0.00    +0.000 N 
ATOM      2  C   UNL     1      -1.627  12.104  19.250  0.00  0.00    +0.000 A 
ATOM      3  N   UNL     1      -1.621  11.698  17.967  0.00  0.00    +0.000 NA
ATOM      4  C   UNL     1      -2.793  11.506  17.346  0.00  0.00    +0.000 A 
ATOM      5  C   UNL     1      -4.001  11.673  17.968  0.00  0.00    +0.000 A 
ATOM      6  C   UNL     1      -3.920  12.019  19.313  0.00  0.00    +0.000 A 
ATOM      7  N   UNL     1      -2.753  12.193  19.972  0.00  0.00    +0.000 NA
ATOM      8  C   UNL     1      -5.187  12.250  19.999  0.00  0.00    +0.000 A 
ATOM      9  C   UNL     1      -6.417  11.895  19.394  0.00  0.00    +0.000 A 
ATOM     10  N   UNL     1      -7.468  12.208  20.137  0.00  0.00    +0.000 NA
ATOM     11  N   UNL     1      -6.919  12.806  21.219  0.00  0.00    +0.000 N 
ATOM     12  C   UNL     1      -7.843  13.343  22.194  0.00  0.00    +0.000 C 
ATOM     13  C   UNL     1      -5.529  12.884  21.191  0.00  0.00    +0.000 A 
ATOM     14  C   UNL     1      -6.520  11.260  18.056  0.00  0.00    +0.000 C 
ATOM     15  C   UNL     1      -5.300  11.634  17.201  0.00  0.00    +0.000 C 
ATOM     16  H   UNL     1      -0.561  12.777  20.814  0.00  0.00    +0.000 HD
ENDROOT
BRANCH   1  22
ATOM     17  C   UNL     1       0.614  14.662  19.054  0.00  0.00    +0.000 A 
ATOM     18  C   UNL     1       1.749  15.340  18.573  0.00  0.00    +0.000 A 
ATOM     19  C   UNL     1       2.884  14.639  18.158  0.00  0.00    +0.000 A 
ATOM     20  C   UNL     1       2.902  13.260  18.262  0.00  0.00    +0.000 A 
ATOM     21  C   UNL     1       1.809  12.591  18.805  0.00  0.00    +0.000 A 
ATOM     22  C   UNL     1       0.638  13.258  19.220  0.00  0.00    +0.000 A 
BRANCH  17  23
ATOM     23  O   UNL     1      -0.562  15.327  19.359  0.00  0.00    +0.000 OA
BRANCH  23  24
ATOM     24  C   UNL     1      -0.388  16.737  19.547  0.00  0.00    +0.000 C 
BRANCH  24  26
ATOM     25  C   UNL     1      -0.574  18.005  17.399  0.00  0.00    +0.000 C 
ATOM     26  C   UNL     1      -1.146  17.481  18.492  0.00  0.00    +0.000 C 
ENDBRANCH  24  26
ENDBRANCH  23  24
ENDBRANCH  17  23
ENDBRANCH   1  22
BRANCH  13  27
ATOM     27  C   UNL     1      -4.711  13.591  22.202  0.00  0.00    +0.000 A 
ATOM     28  C   UNL     1      -4.234  12.952  23.357  0.00  0.00    +0.000 A 
ATOM     29  C   UNL     1      -3.519  13.656  24.333  0.00  0.00    +0.000 A 
ATOM     30  C   UNL     1      -3.201  14.995  24.138  0.00  0.00    +0.000 A 
ATOM     31  C   UNL     1      -3.619  15.637  22.977  0.00  0.00    +0.000 A 
ATOM     32  C   UNL     1      -4.396  14.948  22.042  0.00  0.00    +0.000 A 
ENDBRANCH  13  27
TORSDOF 5
ENDMDL
MODEL 7
REMARK VINA RESULT:      -6.1      2.329      4.753
REMARK  Name = 
REMARK  6 active torsions:
REMARK  status: ('A' for Active; 'I' for Inactive)
REMARK    1  A    between atoms: C_2  and  C_3
REMARK    2  A    between atoms: C_3  and  O_4
REMARK    3  A    between atoms: O_4  and  C_5
REMARK    4  A    between atoms: C_10  and  N_11
REMARK    5  A    between atoms: N_21  and  C_22
REMARK    6  A    between atoms: C_23  and  C_24
REMARK                            x       y       z     vdW  Elec       q    Type
REMARK                         _______ _______ _______ _____ _____    ______ ____
ROOT
ATOM      1  N   UNL     1      -3.794  12.412  22.636  0.00  0.00    +0.000 N 
ATOM      2  C   UNL     1      -2.612  13.147  22.821  0.00  0.00    +0.000 A 
ATOM      3  N   UNL     1      -2.595  14.147  23.722  0.00  0.00    +0.000 NA
ATOM      4  C   UNL     1      -1.562  15.001  23.717  0.00  0.00    +0.000 A 
ATOM      5  C   UNL     1      -0.504  14.885  22.856  0.00  0.00    +0.000 A 
ATOM      6  C   UNL     1      -0.561  13.781  22.010  0.00  0.00    +0.000 A 
ATOM      7  N   UNL     1      -1.576  12.890  22.011  0.00  0.00    +0.000 NA
ATOM      8  C   UNL     1       0.527  13.649  21.047  0.00  0.00    +0.000 A 
ATOM      9  C   UNL     1       1.688  14.452  21.145  0.00  0.00    +0.000 A 
ATOM     10  N   UNL     1       2.557  14.228  20.171  0.00  0.00    +0.000 NA
ATOM     11  N   UNL     1       1.938  13.297  19.409  0.00  0.00    +0.000 N 
ATOM     12  C   UNL     1       2.620  12.902  18.196  0.00  0.00    +0.000 C 
ATOM     13  C   UNL     1       0.683  12.911  19.875  0.00  0.00    +0.000 A 
ATOM     14  C   UNL     1       1.901  15.458  22.216  0.00  0.00    +0.000 C 
ATOM     15  C   UNL     1       0.548  15.960  22.743  0.00  0.00    +0.000 C 
ATOM     16  H   UNL     1      -3.654  11.651  21.979  0.00  0.00    +0.000 HD
ENDROOT
BRANCH   1  22
ATOM     17  C   UNL     1      -5.850  13.320  21.610  0.00  0.00    +0.000 A 
ATOM     18  C   UNL     1      -7.222  13.618  21.713  0.00  0.00    +0.000 A 
ATOM     19  C   UNL     1      -7.883  13.552  22.942  0.00  0.00    +0.000 A 
ATOM     20  C   UNL     1      -7.183  13.149  24.064  0.00  0.00    +0.000 A 
ATOM     21  C   UNL     1      -5.844  12.784  23.953  0.00  0.00    +0.000 A 
ATOM     22  C   UNL     1      -5.135  12.851  22.737  0.00  0.00    +0.000 A 
BRANCH  17  23
ATOM     23  O   UNL     1      -5.150  13.493  20.428  0.00  0.00    +0.000 OA
BRANCH  23  24
ATOM     24  C   UNL     1      -5.898  13.124  19.263  0.00  0.00    +0.000 C 
BRANCH  24  26
ATOM     25  C   UNL     1      -6.550  10.813  18.560  0.00  0.00    +0.000 C 
ATOM     26  C   UNL     1      -5.606  11.699  18.909  0.00  0.00    +0.000 C 
ENDBRANCH  24  26
ENDBRANCH  23  24
ENDBRANCH  17  23
ENDBRANCH   1  22
BRANCH  13  27
ATOM     27  C   UNL     1      -0.230  11.996  19.156  0.00  0.00    +0.000 A 
ATOM     28  C   UNL     1      -0.152  10.602  19.293  0.00  0.00    +0.000 A 
ATOM     29  C   UNL     1      -0.981   9.751  18.553  0.00  0.00    +0.000 A 
ATOM     30  C   UNL     1      -1.959  10.280  17.718  0.00  0.00    +0.000 A 
ATOM     31  C   UNL     1      -2.089  11.659  17.604  0.00  0.00    +0.000 A 
ATOM     32  C   UNL     1      -1.209  12.501  18.289  0.00  0.00    +0.000 A 
ENDBRANCH  13  27
TORSDOF 5
ENDMDL
MODEL 8
REMARK VINA RESULT:      -6.1      2.031      6.793
REMARK  Name = 
REMARK  6 active torsions:
REMARK  status: ('A' for Active; 'I' for Inactive)
REMARK    1  A    between atoms: C_2  and  C_3
REMARK    2  A    between atoms: C_3  and  O_4
REMARK    3  A    between atoms: O_4  and  C_5
REMARK    4  A    between atoms: C_10  and  N_11
REMARK    5  A    between atoms: N_21  and  C_22
REMARK    6  A    between atoms: C_23  and  C_24
REMARK                            x       y       z     vdW  Elec       q    Type
REMARK                         _______ _______ _______ _____ _____    ______ ____
ROOT
ATOM      1  N   UNL     1      -0.523  12.611  19.890  0.00  0.00    +0.000 N 
ATOM      2  C   UNL     1      -1.714  12.132  19.321  0.00  0.00    +0.000 A 
ATOM      3  N   UNL     1      -1.716  11.737  18.034  0.00  0.00    +0.000 NA
ATOM      4  C   UNL     1      -2.892  11.524  17.427  0.00  0.00    +0.000 A 
ATOM      5  C   UNL     1      -4.094  11.659  18.065  0.00  0.00    +0.000 A 
ATOM      6  C   UNL     1      -4.003  11.994  19.413  0.00  0.00    +0.000 A 
ATOM      7  N   UNL     1      -2.833  12.189  20.058  0.00  0.00    +0.000 NA
ATOM      8  C   UNL     1      -5.266  12.191  20.117  0.00  0.00    +0.000 A 
ATOM      9  C   UNL     1      -6.496  11.814  19.525  0.00  0.00    +0.000 A 
ATOM     10  N   UNL     1      -7.544  12.097  20.284  0.00  0.00    +0.000 NA
ATOM     11  N   UNL     1      -6.995  12.697  21.364  0.00  0.00    +0.000 N 
ATOM     12  C   UNL     1      -7.916  13.205  22.356  0.00  0.00    +0.000 C 
ATOM     13  C   UNL     1      -5.606  12.807  21.320  0.00  0.00    +0.000 A 
ATOM     14  C   UNL     1      -6.602  11.189  18.182  0.00  0.00    +0.000 C 
ATOM     15  C   UNL     1      -5.402  11.597  17.315  0.00  0.00    +0.000 C 
ATOM     16  H   UNL     1      -0.643  12.814  20.877  0.00  0.00    +0.000 HD
ENDROOT
BRANCH   1  22
ATOM     17  C   UNL     1       0.492  14.746  19.170  0.00  0.00    +0.000 A 
ATOM     18  C   UNL     1       1.609  15.447  18.678  0.00  0.00    +0.000 A 
ATOM     19  C   UNL     1       2.729  14.768  18.191  0.00  0.00    +0.000 A 
ATOM     20  C   UNL     1       2.752  13.386  18.233  0.00  0.00    +0.000 A 
ATOM     21  C   UNL     1       1.679  12.691  18.785  0.00  0.00    +0.000 A 
ATOM     22  C   UNL     1       0.524  13.335  19.272  0.00  0.00    +0.000 A 
BRANCH  17  23
ATOM     23  O   UNL     1      -0.672  15.394  19.547  0.00  0.00    +0.000 OA
BRANCH  23  24
ATOM     24  C   UNL     1      -0.484  16.331  20.614  0.00  0.00    +0.000 C 
BRANCH  24  26
ATOM     25  C   UNL     1       0.123  16.086  23.028  0.00  0.00    +0.000 C 
ATOM     26  C   UNL     1      -0.464  15.605  21.922  0.00  0.00    +0.000 C 
ENDBRANCH  24  26
ENDBRANCH  23  24
ENDBRANCH  17  23
ENDBRANCH   1  22
BRANCH  13  27
ATOM     27  C   UNL     1      -4.791  13.523  22.326  0.00  0.00    +0.000 A 
ATOM     28  C   UNL     1      -4.152  12.855  23.382  0.00  0.00    +0.000 A 
ATOM     29  C   UNL     1      -3.441  13.559  24.362  0.00  0.00    +0.000 A 
ATOM     30  C   UNL     1      -3.291  14.938  24.262  0.00  0.00    +0.000 A 
ATOM     31  C   UNL     1      -3.873  15.615  23.197  0.00  0.00    +0.000 A 
ATOM     32  C   UNL     1      -4.643  14.916  22.264  0.00  0.00    +0.000 A 
ENDBRANCH  13  27
TORSDOF 5
ENDMDL
MODEL 9
REMARK VINA RESULT:      -6.1      0.975      1.627
REMARK  Name = 
REMARK  6 active torsions:
REMARK  status: ('A' for Active; 'I' for Inactive)
REMARK    1  A    between atoms: C_2  and  C_3
REMARK    2  A    between atoms: C_3  and  O_4
REMARK    3  A    between atoms: O_4  and  C_5
REMARK    4  A    between atoms: C_10  and  N_11
REMARK    5  A    between atoms: N_21  and  C_22
REMARK    6  A    between atoms: C_23  and  C_24
REMARK                            x       y       z     vdW  Elec       q    Type
REMARK                         _______ _______ _______ _____ _____    ______ ____
ROOT
ATOM      1  N   UNL     1      -4.053  12.332  18.378  0.00  0.00    +0.000 N 
ATOM      2  C   UNL     1      -2.760  11.806  18.223  0.00  0.00    +0.000 A 
ATOM      3  N   UNL     1      -2.596  10.471  18.167  0.00  0.00    +0.000 NA
ATOM      4  C   UNL     1      -1.358   9.969  18.275  0.00  0.00    +0.000 A 
ATOM      5  C   UNL     1      -0.245  10.754  18.409  0.00  0.00    +0.000 A 
ATOM      6  C   UNL     1      -0.493  12.124  18.381  0.00  0.00    +0.000 A 
ATOM      7  N   UNL     1      -1.726  12.658  18.247  0.00  0.00    +0.000 NA
ATOM      8  C   UNL     1       0.664  12.993  18.565  0.00  0.00    +0.000 A 
ATOM      9  C   UNL     1       1.980  12.474  18.520  0.00  0.00    +0.000 A 
ATOM     10  N   UNL     1       2.907  13.393  18.744  0.00  0.00    +0.000 NA
ATOM     11  N   UNL     1       2.187  14.514  18.975  0.00  0.00    +0.000 N 
ATOM     12  C   UNL     1       2.936  15.696  19.339  0.00  0.00    +0.000 C 
ATOM     13  C   UNL     1       0.807  14.338  18.902  0.00  0.00    +0.000 A 
ATOM     14  C   UNL     1       2.289  11.043  18.271  0.00  0.00    +0.000 C 
ATOM     15  C   UNL     1       1.109  10.165  18.716  0.00  0.00    +0.000 C 
ATOM     16  H   UNL     1      -4.044  13.346  18.342  0.00  0.00    +0.000 HD
ENDROOT
BRANCH   1  22
ATOM     17  C   UNL     1      -5.524  12.264  20.362  0.00  0.00    +0.000 A 
ATOM     18  C   UNL     1      -6.702  11.800  20.978  0.00  0.00    +0.000 A 
ATOM     19  C   UNL     1      -7.474  10.794  20.390  0.00  0.00    +0.000 A 
ATOM     20  C   UNL     1      -7.092  10.278  19.166  0.00  0.00    +0.000 A 
ATOM     21  C   UNL     1      -5.967  10.784  18.520  0.00  0.00    +0.000 A 
ATOM     22  C   UNL     1      -5.152  11.787  19.084  0.00  0.00    +0.000 A 
BRANCH  17  23
ATOM     23  O   UNL     1      -4.684  13.174  20.981  0.00  0.00    +0.000 OA
BRANCH  23  24
ATOM     24  C   UNL     1      -5.345  14.380  21.382  0.00  0.00    +0.000 C 
BRANCH  24  26
ATOM     25  C   UNL     1      -5.933  16.552  20.290  0.00  0.00    +0.000 C 
ATOM     26  C   UNL     1      -5.484  15.291  20.203  0.00  0.00    +0.000 C 
ENDBRANCH  24  26
ENDBRANCH  23  24
ENDBRANCH  17  23
ENDBRANCH   1  22
BRANCH  13  27
ATOM     27  C   UNL     1      -0.188  15.385  19.225  0.00  0.00    +0.000 A 
ATOM     28  C   UNL     1      -0.963  15.344  20.393  0.00  0.00    +0.000 A 
ATOM     29  C   UNL     1      -1.946  16.309  20.647  0.00  0.00    +0.000 A 
ATOM     30  C   UNL     1      -2.121  17.376  19.773  0.00  0.00    +0.000 A 
ATOM     31  C   UNL     1      -1.330  17.465  18.633  0.00  0.00    +0.000 A 
ATOM     32  C   UNL     1      -0.402  16.459  18.349  0.00  0.00    +0.000 A 
ENDBRANCH  13  27
TORSDOF 5
ENDMDL
