MODEL 1
REMARK VINA RESULT:      -6.9      0.000      0.000
REMARK  Name = 
REMARK  5 active torsions:
REMARK  status: ('A' for Active; 'I' for Inactive)
REMARK    1  A    between atoms: C_1  and  C_2
REMARK    2  A    between atoms: N_10  and  C_11
REMARK    3  A    between atoms: C_15  and  C_17
REMARK    4  A    between atoms: N_20  and  C_21
REMARK    5  A    between atoms: C_25  and  C_26
REMARK                            x       y       z     vdW  Elec       q    Type
REMARK                         _______ _______ _______ _____ _____    ______ ____
ROOT
ATOM      1  C   UNL     1       3.051   6.961  17.498  0.00  0.00    +0.000 C 
ATOM      2  C   UNL     1       2.360   7.999  18.297  0.00  0.00    +0.000 A 
ATOM      3  C   UNL     1       1.892   7.927  19.587  0.00  0.00    +0.000 A 
ATOM      4  N   UNL     1       1.275   9.135  19.845  0.00  0.00    +0.000 N 
ATOM      5  C   UNL     1       0.586   9.468  21.050  0.00  0.00    +0.000 A 
ATOM      6  C   UNL     1       1.030   8.940  22.243  0.00  0.00    +0.000 A 
ATOM      7  C   UNL     1       0.471   9.499  23.366  0.00  0.00    +0.000 A 
ATOM      8  N   UNL     1      -0.449  10.485  23.341  0.00  0.00    +0.000 NA
ATOM      9  C   UNL     1      -0.869  10.887  22.139  0.00  0.00    +0.000 A 
ATOM     10  N   UNL     1      -1.790  11.909  22.006  0.00  0.00    +0.000 N 
ATOM     11  N   UNL     1      -0.409  10.372  20.995  0.00  0.00    +0.000 NA
ATOM     12  C   UNL     1       1.492   9.941  18.720  0.00  0.00    +0.000 A 
ATOM     13  N   UNL     1       2.099   9.234  17.770  0.00  0.00    +0.000 NA
ATOM     14  H   UNL     1      -2.529  11.575  21.399  0.00  0.00    +0.000 HD
ENDROOT
BRANCH  10  15
ATOM     15  C   UNL     1      -2.178  12.646  23.201  0.00  0.00    +0.000 C 
ATOM     16  C   UNL     1      -3.669  12.422  23.489  0.00  0.00    +0.000 C 
ATOM     17  C   UNL     1      -4.384  13.549  22.759  0.00  0.00    +0.000 C 
ATOM     18  N   UNL     1      -3.448  14.651  22.791  0.00  0.00    +0.000 N 
ATOM     19  C   UNL     1      -3.729  16.005  22.655  0.00  0.00    +0.000 C 
ATOM     20  O   UNL     1      -2.852  16.852  22.841  0.00  0.00    +0.000 OA
ATOM     21  C   UNL     1      -2.084  14.176  22.986  0.00  0.00    +0.000 C 
BRANCH  19  22
ATOM     22  C   UNL     1      -5.111  16.422  22.319  0.00  0.00    +0.000 A 
ATOM     23  C   UNL     1      -6.112  16.812  23.255  0.00  0.00    +0.000 A 
ATOM     24  C   UNL     1      -7.218  17.138  22.506  0.00  0.00    +0.000 A 
ATOM     25  N   UNL     1      -6.843  16.976  21.208  0.00  0.00    +0.000 N 
ATOM     26  C   UNL     1      -7.636  17.248  20.033  0.00  0.00    +0.000 C 
ATOM     27  N   UNL     1      -5.584  16.531  21.060  0.00  0.00    +0.000 NA
ENDBRANCH  19  22
ENDBRANCH  10  15
BRANCH  12  28
ATOM     28  C   UNL     1       1.173  11.377  18.582  0.00  0.00    +0.000 A 
ATOM     29  C   UNL     1       2.160  12.375  18.571  0.00  0.00    +0.000 A 
ATOM     30  C   UNL     1       1.820  13.731  18.570  0.00  0.00    +0.000 A 
ATOM     31  C   UNL     1       0.485  14.109  18.487  0.00  0.00    +0.000 A 
ATOM     32  C   UNL     1      -0.504  13.134  18.385  0.00  0.00    +0.000 A 
ATOM     33  C   UNL     1      -0.162  11.778  18.432  0.00  0.00    +0.000 A 
ENDBRANCH  12  28
TORSDOF 3
ENDMDL
MODEL 2
REMARK VINA RESULT:      -6.6      2.531      4.039
REMARK  Name = 
REMARK  5 active torsions:
REMARK  status: ('A' for Active; 'I' for Inactive)
REMARK    1  A    between atoms: C_1  and  C_2
REMARK    2  A    between atoms: N_10  and  C_11
REMARK    3  A    between atoms: C_15  and  C_17
REMARK    4  A    between atoms: N_20  and  C_21
REMARK    5  A    between atoms: C_25  and  C_26
REMARK                            x       y       z     vdW  Elec       q    Type
REMARK                         _______ _______ _______ _____ _____    ______ ____
ROOT
ATOM      1  C   UNL     1       3.193   8.300  17.563  0.00  0.00    +0.000 C 
ATOM      2  C   UNL     1       1.951   8.891  18.111  0.00  0.00    +0.000 A 
ATOM      3  C   UNL     1       0.793   9.231  17.455  0.00  0.00    +0.000 A 
ATOM      4  N   UNL     1      -0.039   9.799  18.400  0.00  0.00    +0.000 N 
ATOM      5  C   UNL     1      -1.324  10.359  18.137  0.00  0.00    +0.000 A 
ATOM      6  C   UNL     1      -2.104   9.809  17.143  0.00  0.00    +0.000 A 
ATOM      7  C   UNL     1      -3.407  10.245  17.122  0.00  0.00    +0.000 A 
ATOM      8  N   UNL     1      -3.916  11.145  17.987  0.00  0.00    +0.000 NA
ATOM      9  C   UNL     1      -3.068  11.677  18.872  0.00  0.00    +0.000 A 
ATOM     10  N   UNL     1      -3.498  12.589  19.818  0.00  0.00    +0.000 N 
ATOM     11  N   UNL     1      -1.777  11.341  18.939  0.00  0.00    +0.000 NA
ATOM     12  C   UNL     1       0.620   9.681  19.631  0.00  0.00    +0.000 A 
ATOM     13  N   UNL     1       1.839   9.183  19.443  0.00  0.00    +0.000 NA
ATOM     14  H   UNL     1      -2.879  13.390  19.769  0.00  0.00    +0.000 HD
ENDROOT
BRANCH  10  15
ATOM     15  C   UNL     1      -4.928  12.845  19.929  0.00  0.00    +0.000 C 
ATOM     16  C   UNL     1      -5.227  14.301  19.546  0.00  0.00    +0.000 C 
ATOM     17  C   UNL     1      -5.152  15.075  20.853  0.00  0.00    +0.000 C 
ATOM     18  N   UNL     1      -5.583  14.128  21.858  0.00  0.00    +0.000 N 
ATOM     19  C   UNL     1      -6.096  14.407  23.119  0.00  0.00    +0.000 C 
ATOM     20  O   UNL     1      -6.556  13.506  23.825  0.00  0.00    +0.000 OA
ATOM     21  C   UNL     1      -5.413  12.757  21.395  0.00  0.00    +0.000 C 
BRANCH  19  22
ATOM     22  C   UNL     1      -6.117  15.811  23.592  0.00  0.00    +0.000 A 
ATOM     23  C   UNL     1      -7.029  16.819  23.163  0.00  0.00    +0.000 A 
ATOM     24  C   UNL     1      -6.702  17.949  23.875  0.00  0.00    +0.000 A 
ATOM     25  N   UNL     1      -5.678  17.582  24.693  0.00  0.00    +0.000 N 
ATOM     26  C   UNL     1      -5.018  18.402  25.681  0.00  0.00    +0.000 C 
ATOM     27  N   UNL     1      -5.291  16.305  24.537  0.00  0.00    +0.000 NA
ENDBRANCH  19  22
ENDBRANCH  10  15
BRANCH  12  28
ATOM     28  C   UNL     1       0.067   9.989  20.966  0.00  0.00    +0.000 A 
ATOM     29  C   UNL     1      -0.183   8.999  21.930  0.00  0.00    +0.000 A 
ATOM     30  C   UNL     1      -0.826   9.304  23.132  0.00  0.00    +0.000 A 
ATOM     31  C   UNL     1      -1.147  10.623  23.430  0.00  0.00    +0.000 A 
ATOM     32  C   UNL     1      -0.807  11.635  22.535  0.00  0.00    +0.000 A 
ATOM     33  C   UNL     1      -0.205  11.320  21.312  0.00  0.00    +0.000 A 
ENDBRANCH  12  28
TORSDOF 3
ENDMDL
MODEL 3
REMARK VINA RESULT:      -6.6      5.214      9.220
REMARK  Name = 
REMARK  5 active torsions:
REMARK  status: ('A' for Active; 'I' for Inactive)
REMARK    1  A    between atoms: C_1  and  C_2
REMARK    2  A    between atoms: N_10  and  C_11
REMARK    3  A    between atoms: C_15  and  C_17
REMARK    4  A    between atoms: N_20  and  C_21
REMARK    5  A    between atoms: C_25  and  C_26
REMARK                            x       y       z     vdW  Elec       q    Type
REMARK                         _______ _______ _______ _____ _____    ______ ____
ROOT
ATOM      1  C   UNL     1      -3.261  10.041  16.499  0.00  0.00    +0.000 C 
ATOM      2  C   UNL     1      -2.291  10.628  17.450  0.00  0.00    +0.000 A 
ATOM      3  C   UNL     1      -1.725  11.881  17.443  0.00  0.00    +0.000 A 
ATOM      4  N   UNL     1      -0.843  11.915  18.506  0.00  0.00    +0.000 N 
ATOM      5  C   UNL     1       0.014  13.009  18.830  0.00  0.00    +0.000 A 
ATOM      6  C   UNL     1      -0.413  14.293  18.575  0.00  0.00    +0.000 A 
ATOM      7  C   UNL     1       0.359  15.282  19.136  0.00  0.00    +0.000 A 
ATOM      8  N   UNL     1       1.461  15.050  19.879  0.00  0.00    +0.000 NA
ATOM      9  C   UNL     1       1.838  13.775  20.016  0.00  0.00    +0.000 A 
ATOM     10  N   UNL     1       2.938  13.431  20.780  0.00  0.00    +0.000 N 
ATOM     11  N   UNL     1       1.170  12.754  19.473  0.00  0.00    +0.000 NA
ATOM     12  C   UNL     1      -0.993  10.700  19.186  0.00  0.00    +0.000 A 
ATOM     13  N   UNL     1      -1.825   9.908  18.516  0.00  0.00    +0.000 NA
ATOM     14  H   UNL     1       3.526  12.833  20.212  0.00  0.00    +0.000 HD
ENDROOT
BRANCH  10  15
ATOM     15  C   UNL     1       3.588  14.475  21.560  0.00  0.00    +0.000 C 
ATOM     16  C   UNL     1       4.438  15.360  20.638  0.00  0.00    +0.000 C 
ATOM     17  C   UNL     1       5.819  14.722  20.643  0.00  0.00    +0.000 C 
ATOM     18  N   UNL     1       5.937  14.131  21.958  0.00  0.00    +0.000 N 
ATOM     19  C   UNL     1       7.106  13.802  22.635  0.00  0.00    +0.000 C 
ATOM     20  O   UNL     1       7.069  13.431  23.811  0.00  0.00    +0.000 OA
ATOM     21  C   UNL     1       4.627  13.890  22.546  0.00  0.00    +0.000 C 
BRANCH  19  22
ATOM     22  C   UNL     1       8.405  13.938  21.935  0.00  0.00    +0.000 A 
ATOM     23  C   UNL     1       9.059  12.914  21.190  0.00  0.00    +0.000 A 
ATOM     24  C   UNL     1      10.210  13.484  20.700  0.00  0.00    +0.000 A 
ATOM     25  N   UNL     1      10.184  14.779  21.118  0.00  0.00    +0.000 N 
ATOM     26  C   UNL     1      11.147  15.810  20.813  0.00  0.00    +0.000 C 
ATOM     27  N   UNL     1       9.118  15.082  21.877  0.00  0.00    +0.000 NA
ENDBRANCH  19  22
ENDBRANCH  10  15
BRANCH  12  28
ATOM     28  C   UNL     1      -0.390  10.329  20.483  0.00  0.00    +0.000 A 
ATOM     29  C   UNL     1       0.707   9.459  20.590  0.00  0.00    +0.000 A 
ATOM     30  C   UNL     1       1.171   9.026  21.835  0.00  0.00    +0.000 A 
ATOM     31  C   UNL     1       0.601   9.530  22.999  0.00  0.00    +0.000 A 
ATOM     32  C   UNL     1      -0.415  10.479  22.916  0.00  0.00    +0.000 A 
ATOM     33  C   UNL     1      -0.907  10.875  21.667  0.00  0.00    +0.000 A 
ENDBRANCH  12  28
TORSDOF 3
ENDMDL
MODEL 4
REMARK VINA RESULT:      -6.5      4.372      6.966
REMARK  Name = 
REMARK  5 active torsions:
REMARK  status: ('A' for Active; 'I' for Inactive)
REMARK    1  A    between atoms: C_1  and  C_2
REMARK    2  A    between atoms: N_10  and  C_11
REMARK    3  A    between atoms: C_15  and  C_17
REMARK    4  A    between atoms: N_20  and  C_21
REMARK    5  A    between atoms: C_25  and  C_26
REMARK                            x       y       z     vdW  Elec       q    Type
REMARK                         _______ _______ _______ _____ _____    ______ ____
ROOT
ATOM      1  C   UNL     1       5.979   3.854  15.370  0.00  0.00    +0.000 C 
ATOM      2  C   UNL     1       5.060   4.448  16.367  0.00  0.00    +0.000 A 
ATOM      3  C   UNL     1       4.665   5.757  16.504  0.00  0.00    +0.000 A 
ATOM      4  N   UNL     1       3.851   5.803  17.619  0.00  0.00    +0.000 N 
ATOM      5  C   UNL     1       3.273   6.986  18.170  0.00  0.00    +0.000 A 
ATOM      6  C   UNL     1       2.914   8.012  17.324  0.00  0.00    +0.000 A 
ATOM      7  C   UNL     1       2.150   8.997  17.902  0.00  0.00    +0.000 A 
ATOM      8  N   UNL     1       1.768   8.996  19.196  0.00  0.00    +0.000 NA
ATOM      9  C   UNL     1       2.222   7.996  19.957  0.00  0.00    +0.000 A 
ATOM     10  N   UNL     1       1.866   7.890  21.289  0.00  0.00    +0.000 N 
ATOM     11  N   UNL     1       3.000   7.017  19.488  0.00  0.00    +0.000 NA
ATOM     12  C   UNL     1       3.699   4.480  18.055  0.00  0.00    +0.000 A 
ATOM     13  N   UNL     1       4.471   3.676  17.330  0.00  0.00    +0.000 NA
ATOM     14  H   UNL     1       2.720   7.777  21.822  0.00  0.00    +0.000 HD
ENDROOT
BRANCH  10  15
ATOM     15  C   UNL     1       0.861   8.809  21.808  0.00  0.00    +0.000 C 
ATOM     16  C   UNL     1      -0.541   8.229  21.578  0.00  0.00    +0.000 C 
ATOM     17  C   UNL     1      -0.976   8.773  20.225  0.00  0.00    +0.000 C 
ATOM     18  N   UNL     1      -0.329  10.063  20.132  0.00  0.00    +0.000 N 
ATOM     19  C   UNL     1      -0.698  11.139  19.333  0.00  0.00    +0.000 C 
ATOM     20  O   UNL     1      -0.141  12.233  19.453  0.00  0.00    +0.000 OA
ATOM     21  C   UNL     1       0.831  10.134  21.010  0.00  0.00    +0.000 C 
BRANCH  19  22
ATOM     22  C   UNL     1      -1.800  10.965  18.357  0.00  0.00    +0.000 A 
ATOM     23  C   UNL     1      -1.784  10.088  17.234  0.00  0.00    +0.000 A 
ATOM     24  C   UNL     1      -3.011  10.231  16.630  0.00  0.00    +0.000 A 
ATOM     25  N   UNL     1      -3.697  11.118  17.400  0.00  0.00    +0.000 N 
ATOM     26  C   UNL     1      -5.060  11.558  17.215  0.00  0.00    +0.000 C 
ATOM     27  N   UNL     1      -2.991  11.592  18.440  0.00  0.00    +0.000 NA
ENDBRANCH  19  22
ENDBRANCH  10  15
BRANCH  12  28
ATOM     28  C   UNL     1       2.786   3.993  19.110  0.00  0.00    +0.000 A 
ATOM     29  C   UNL     1       3.210   3.745  20.425  0.00  0.00    +0.000 A 
ATOM     30  C   UNL     1       2.356   3.163  21.365  0.00  0.00    +0.000 A 
ATOM     31  C   UNL     1       1.033   2.902  21.029  0.00  0.00    +0.000 A 
ATOM     32  C   UNL     1       0.561   3.243  19.764  0.00  0.00    +0.000 A 
ATOM     33  C   UNL     1       1.432   3.784  18.811  0.00  0.00    +0.000 A 
ENDBRANCH  12  28
TORSDOF 3
ENDMDL
MODEL 5
REMARK VINA RESULT:      -6.4      5.115      9.214
REMARK  Name = 
REMARK  5 active torsions:
REMARK  status: ('A' for Active; 'I' for Inactive)
REMARK    1  A    between atoms: C_1  and  C_2
REMARK    2  A    between atoms: N_10  and  C_11
REMARK    3  A    between atoms: C_15  and  C_17
REMARK    4  A    between atoms: N_20  and  C_21
REMARK    5  A    between atoms: C_25  and  C_26
REMARK                            x       y       z     vdW  Elec       q    Type
REMARK                         _______ _______ _______ _____ _____    ______ ____
ROOT
ATOM      1  C   UNL     1      -3.205  10.059  16.327  0.00  0.00    +0.000 C 
ATOM      2  C   UNL     1      -2.249  10.625  17.305  0.00  0.00    +0.000 A 
ATOM      3  C   UNL     1      -1.714  11.890  17.358  0.00  0.00    +0.000 A 
ATOM      4  N   UNL     1      -0.834  11.897  18.421  0.00  0.00    +0.000 N 
ATOM      5  C   UNL     1      -0.003  12.995  18.797  0.00  0.00    +0.000 A 
ATOM      6  C   UNL     1      -0.461  14.279  18.601  0.00  0.00    +0.000 A 
ATOM      7  C   UNL     1       0.286  15.259  19.208  0.00  0.00    +0.000 A 
ATOM      8  N   UNL     1       1.392  15.020  19.941  0.00  0.00    +0.000 NA
ATOM      9  C   UNL     1       1.800  13.750  20.019  0.00  0.00    +0.000 A 
ATOM     10  N   UNL     1       2.908  13.398  20.768  0.00  0.00    +0.000 N 
ATOM     11  N   UNL     1       1.158  12.739  19.429  0.00  0.00    +0.000 NA
ATOM     12  C   UNL     1      -0.954  10.648  19.045  0.00  0.00    +0.000 A 
ATOM     13  N   UNL     1      -1.767   9.868  18.338  0.00  0.00    +0.000 NA
ATOM     14  H   UNL     1       3.511  12.841  20.174  0.00  0.00    +0.000 HD
ENDROOT
BRANCH  10  15
ATOM     15  C   UNL     1       3.533  14.421  21.597  0.00  0.00    +0.000 C 
ATOM     16  C   UNL     1       4.414  15.327  20.727  0.00  0.00    +0.000 C 
ATOM     17  C   UNL     1       5.793  14.686  20.762  0.00  0.00    +0.000 C 
ATOM     18  N   UNL     1       5.867  14.062  22.065  0.00  0.00    +0.000 N 
ATOM     19  C   UNL     1       7.011  13.713  22.773  0.00  0.00    +0.000 C 
ATOM     20  O   UNL     1       6.934  13.313  23.936  0.00  0.00    +0.000 OA
ATOM     21  C   UNL     1       4.537  13.808  22.602  0.00  0.00    +0.000 C 
BRANCH  19  22
ATOM     22  C   UNL     1       8.334  13.865  22.121  0.00  0.00    +0.000 A 
ATOM     23  C   UNL     1       9.184  15.005  22.221  0.00  0.00    +0.000 A 
ATOM     24  C   UNL     1      10.305  14.701  21.486  0.00  0.00    +0.000 A 
ATOM     25  N   UNL     1      10.111  13.435  21.027  0.00  0.00    +0.000 N 
ATOM     26  C   UNL     1      11.033  12.641  20.250  0.00  0.00    +0.000 C 
ATOM     27  N   UNL     1       8.927  12.908  21.379  0.00  0.00    +0.000 NA
ENDBRANCH  19  22
ENDBRANCH  10  15
BRANCH  12  28
ATOM     28  C   UNL     1      -0.343  10.233  20.325  0.00  0.00    +0.000 A 
ATOM     29  C   UNL     1      -0.789  10.709  21.568  0.00  0.00    +0.000 A 
ATOM     30  C   UNL     1      -0.110  10.400  22.749  0.00  0.00    +0.000 A 
ATOM     31  C   UNL     1       0.976   9.532  22.716  0.00  0.00    +0.000 A 
ATOM     32  C   UNL     1       1.366   8.960  21.507  0.00  0.00    +0.000 A 
ATOM     33  C   UNL     1       0.711   9.309  20.320  0.00  0.00    +0.000 A 
ENDBRANCH  12  28
TORSDOF 3
ENDMDL
MODEL 6
REMARK VINA RESULT:      -6.2      3.352      5.042
REMARK  Name = 
REMARK  5 active torsions:
REMARK  status: ('A' for Active; 'I' for Inactive)
REMARK    1  A    between atoms: C_1  and  C_2
REMARK    2  A    between atoms: N_10  and  C_11
REMARK    3  A    between atoms: C_15  and  C_17
REMARK    4  A    between atoms: N_20  and  C_21
REMARK    5  A    between atoms: C_25  and  C_26
REMARK                            x       y       z     vdW  Elec       q    Type
REMARK                         _______ _______ _______ _____ _____    ______ ____
ROOT
ATOM      1  C   UNL     1       6.206  15.365  19.297  0.00  0.00    +0.000 C 
ATOM      2  C   UNL     1       4.809  15.189  19.754  0.00  0.00    +0.000 A 
ATOM      3  C   UNL     1       4.136  15.856  20.750  0.00  0.00    +0.000 A 
ATOM      4  N   UNL     1       2.881  15.283  20.823  0.00  0.00    +0.000 N 
ATOM      5  C   UNL     1       1.873  15.624  21.773  0.00  0.00    +0.000 A 
ATOM      6  C   UNL     1       1.786  16.925  22.219  0.00  0.00    +0.000 A 
ATOM      7  C   UNL     1       0.650  17.217  22.934  0.00  0.00    +0.000 A 
ATOM      8  N   UNL     1      -0.324  16.323  23.203  0.00  0.00    +0.000 NA
ATOM      9  C   UNL     1      -0.120  15.068  22.791  0.00  0.00    +0.000 A 
ATOM     10  N   UNL     1      -1.069  14.084  22.996  0.00  0.00    +0.000 N 
ATOM     11  N   UNL     1       0.972  14.687  22.124  0.00  0.00    +0.000 NA
ATOM     12  C   UNL     1       2.809  14.350  19.781  0.00  0.00    +0.000 A 
ATOM     13  N   UNL     1       3.989  14.260  19.174  0.00  0.00    +0.000 NA
ATOM     14  H   UNL     1      -0.600  13.295  23.426  0.00  0.00    +0.000 HD
ENDROOT
BRANCH  10  15
ATOM     15  C   UNL     1      -2.364  14.477  23.535  0.00  0.00    +0.000 C 
ATOM     16  C   UNL     1      -3.060  13.258  24.155  0.00  0.00    +0.000 C 
ATOM     17  C   UNL     1      -3.892  12.664  23.028  0.00  0.00    +0.000 C 
ATOM     18  N   UNL     1      -4.261  13.802  22.215  0.00  0.00    +0.000 N 
ATOM     19  C   UNL     1      -5.329  13.899  21.331  0.00  0.00    +0.000 C 
ATOM     20  O   UNL     1      -5.613  14.977  20.803  0.00  0.00    +0.000 OA
ATOM     21  C   UNL     1      -3.341  14.913  22.418  0.00  0.00    +0.000 C 
BRANCH  19  22
ATOM     22  C   UNL     1      -6.149  12.695  21.058  0.00  0.00    +0.000 A 
ATOM     23  C   UNL     1      -7.343  12.330  21.745  0.00  0.00    +0.000 A 
ATOM     24  C   UNL     1      -7.776  11.168  21.151  0.00  0.00    +0.000 A 
ATOM     25  N   UNL     1      -6.888  10.914  20.152  0.00  0.00    +0.000 N 
ATOM     26  C   UNL     1      -6.939   9.831  19.199  0.00  0.00    +0.000 C 
ATOM     27  N   UNL     1      -5.886  11.806  20.079  0.00  0.00    +0.000 NA
ENDBRANCH  19  22
ENDBRANCH  10  15
BRANCH  12  28
ATOM     28  C   UNL     1       1.613  13.602  19.340  0.00  0.00    +0.000 A 
ATOM     29  C   UNL     1       0.561  14.203  18.631  0.00  0.00    +0.000 A 
ATOM     30  C   UNL     1      -0.613  13.502  18.343  0.00  0.00    +0.000 A 
ATOM     31  C   UNL     1      -0.716  12.158  18.680  0.00  0.00    +0.000 A 
ATOM     32  C   UNL     1       0.360  11.512  19.284  0.00  0.00    +0.000 A 
ATOM     33  C   UNL     1       1.516  12.230  19.613  0.00  0.00    +0.000 A 
ENDBRANCH  12  28
TORSDOF 3
ENDMDL
MODEL 7
REMARK VINA RESULT:      -6.2      5.042      9.044
REMARK  Name = 
REMARK  5 active torsions:
REMARK  status: ('A' for Active; 'I' for Inactive)
REMARK    1  A    between atoms: C_1  and  C_2
REMARK    2  A    between atoms: N_10  and  C_11
REMARK    3  A    between atoms: C_15  and  C_17
REMARK    4  A    between atoms: N_20  and  C_21
REMARK    5  A    between atoms: C_25  and  C_26
REMARK                            x       y       z     vdW  Elec       q    Type
REMARK                         _______ _______ _______ _____ _____    ______ ____
ROOT
ATOM      1  C   UNL     1      -3.172  10.027  16.227  0.00  0.00    +0.000 C 
ATOM      2  C   UNL     1      -2.233  10.592  17.222  0.00  0.00    +0.000 A 
ATOM      3  C   UNL     1      -1.704  11.859  17.290  0.00  0.00    +0.000 A 
ATOM      4  N   UNL     1      -0.839  11.863  18.367  0.00  0.00    +0.000 N 
ATOM      5  C   UNL     1      -0.019  12.962  18.761  0.00  0.00    +0.000 A 
ATOM      6  C   UNL     1      -0.480  14.245  18.566  0.00  0.00    +0.000 A 
ATOM      7  C   UNL     1       0.255  15.225  19.189  0.00  0.00    +0.000 A 
ATOM      8  N   UNL     1       1.351  14.985  19.938  0.00  0.00    +0.000 NA
ATOM      9  C   UNL     1       1.763  13.717  20.014  0.00  0.00    +0.000 A 
ATOM     10  N   UNL     1       2.861  13.365  20.777  0.00  0.00    +0.000 N 
ATOM     11  N   UNL     1       1.133  12.707  19.409  0.00  0.00    +0.000 NA
ATOM     12  C   UNL     1      -0.963  10.610  18.981  0.00  0.00    +0.000 A 
ATOM     13  N   UNL     1      -1.762   9.831  18.257  0.00  0.00    +0.000 NA
ATOM     14  H   UNL     1       3.475  12.814  20.189  0.00  0.00    +0.000 HD
ENDROOT
BRANCH  10  15
ATOM     15  C   UNL     1       3.469  14.385  21.621  0.00  0.00    +0.000 C 
ATOM     16  C   UNL     1       3.901  15.581  20.761  0.00  0.00    +0.000 C 
ATOM     17  C   UNL     1       5.339  15.283  20.365  0.00  0.00    +0.000 C 
ATOM     18  N   UNL     1       5.868  14.525  21.477  0.00  0.00    +0.000 N 
ATOM     19  C   UNL     1       7.202  14.362  21.832  0.00  0.00    +0.000 C 
ATOM     20  O   UNL     1       7.510  13.803  22.887  0.00  0.00    +0.000 OA
ATOM     21  C   UNL     1       4.799  13.897  22.242  0.00  0.00    +0.000 C 
BRANCH  19  22
ATOM     22  C   UNL     1       8.254  14.905  20.940  0.00  0.00    +0.000 A 
ATOM     23  C   UNL     1       9.050  16.059  21.200  0.00  0.00    +0.000 A 
ATOM     24  C   UNL     1       9.903  16.175  20.128  0.00  0.00    +0.000 A 
ATOM     25  N   UNL     1       9.626  15.114  19.323  0.00  0.00    +0.000 N 
ATOM     26  C   UNL     1      10.294  14.757  18.094  0.00  0.00    +0.000 C 
ATOM     27  N   UNL     1       8.627  14.337  19.775  0.00  0.00    +0.000 NA
ENDBRANCH  19  22
ENDBRANCH  10  15
BRANCH  12  28
ATOM     28  C   UNL     1      -0.370  10.189  20.267  0.00  0.00    +0.000 A 
ATOM     29  C   UNL     1      -0.819  10.676  21.505  0.00  0.00    +0.000 A 
ATOM     30  C   UNL     1      -0.154  10.361  22.693  0.00  0.00    +0.000 A 
ATOM     31  C   UNL     1       0.918   9.476  22.672  0.00  0.00    +0.000 A 
ATOM     32  C   UNL     1       1.309   8.894  21.468  0.00  0.00    +0.000 A 
ATOM     33  C   UNL     1       0.670   9.249  20.275  0.00  0.00    +0.000 A 
ENDBRANCH  12  28
TORSDOF 3
ENDMDL
MODEL 8
REMARK VINA RESULT:      -6.2      3.621      9.165
REMARK  Name = 
REMARK  5 active torsions:
REMARK  status: ('A' for Active; 'I' for Inactive)
REMARK    1  A    between atoms: C_1  and  C_2
REMARK    2  A    between atoms: N_10  and  C_11
REMARK    3  A    between atoms: C_15  and  C_17
REMARK    4  A    between atoms: N_20  and  C_21
REMARK    5  A    between atoms: C_25  and  C_26
REMARK                            x       y       z     vdW  Elec       q    Type
REMARK                         _______ _______ _______ _____ _____    ______ ____
ROOT
ATOM      1  C   UNL     1      -0.049  18.346  25.994  0.00  0.00    +0.000 C 
ATOM      2  C   UNL     1      -0.088  17.278  24.969  0.00  0.00    +0.000 A 
ATOM      3  C   UNL     1      -0.841  16.129  24.948  0.00  0.00    +0.000 A 
ATOM      4  N   UNL     1      -0.470  15.440  23.810  0.00  0.00    +0.000 N 
ATOM      5  C   UNL     1      -0.954  14.154  23.429  0.00  0.00    +0.000 A 
ATOM      6  C   UNL     1      -2.248  13.804  23.748  0.00  0.00    +0.000 A 
ATOM      7  C   UNL     1      -2.706  12.661  23.138  0.00  0.00    +0.000 A 
ATOM      8  N   UNL     1      -1.971  11.911  22.291  0.00  0.00    +0.000 NA
ATOM      9  C   UNL     1      -0.705  12.289  22.096  0.00  0.00    +0.000 A 
ATOM     10  N   UNL     1       0.122  11.601  21.227  0.00  0.00    +0.000 N 
ATOM     11  N   UNL     1      -0.165  13.363  22.677  0.00  0.00    +0.000 NA
ATOM     12  C   UNL     1       0.430  16.266  23.122  0.00  0.00    +0.000 A 
ATOM     13  N   UNL     1       0.697  17.346  23.851  0.00  0.00    +0.000 NA
ATOM     14  H   UNL     1       0.978  11.391  21.726  0.00  0.00    +0.000 HD
ENDROOT
BRANCH  10  15
ATOM     15  C   UNL     1      -0.462  10.546  20.410  0.00  0.00    +0.000 C 
ATOM     16  C   UNL     1      -0.406   9.212  21.167  0.00  0.00    +0.000 C 
ATOM     17  C   UNL     1       0.914   8.579  20.753  0.00  0.00    +0.000 C 
ATOM     18  N   UNL     1       1.127   9.046  19.400  0.00  0.00    +0.000 N 
ATOM     19  C   UNL     1       1.926   8.466  18.421  0.00  0.00    +0.000 C 
ATOM     20  O   UNL     1       1.910   8.891  17.264  0.00  0.00    +0.000 OA
ATOM     21  C   UNL     1       0.380  10.270  19.143  0.00  0.00    +0.000 C 
BRANCH  19  22
ATOM     22  C   UNL     1       2.772   7.303  18.779  0.00  0.00    +0.000 A 
ATOM     23  C   UNL     1       2.470   6.331  19.777  0.00  0.00    +0.000 A 
ATOM     24  C   UNL     1       3.508   5.431  19.750  0.00  0.00    +0.000 A 
ATOM     25  N   UNL     1       4.336   5.856  18.757  0.00  0.00    +0.000 N 
ATOM     26  C   UNL     1       5.544   5.213  18.297  0.00  0.00    +0.000 C 
ATOM     27  N   UNL     1       3.930   6.990  18.162  0.00  0.00    +0.000 NA
ENDBRANCH  19  22
ENDBRANCH  10  15
BRANCH  12  28
ATOM     28  C   UNL     1       0.978  16.047  21.768  0.00  0.00    +0.000 A 
ATOM     29  C   UNL     1       2.277  15.563  21.544  0.00  0.00    +0.000 A 
ATOM     30  C   UNL     1       2.811  15.490  20.255  0.00  0.00    +0.000 A 
ATOM     31  C   UNL     1       2.020  15.813  19.159  0.00  0.00    +0.000 A 
ATOM     32  C   UNL     1       0.692  16.188  19.352  0.00  0.00    +0.000 A 
ATOM     33  C   UNL     1       0.176  16.305  20.647  0.00  0.00    +0.000 A 
ENDBRANCH  12  28
TORSDOF 3
ENDMDL
MODEL 9
REMARK VINA RESULT:      -6.1      3.299      5.243
REMARK  Name = 
REMARK  5 active torsions:
REMARK  status: ('A' for Active; 'I' for Inactive)
REMARK    1  A    between atoms: C_1  and  C_2
REMARK    2  A    between atoms: N_10  and  C_11
REMARK    3  A    between atoms: C_15  and  C_17
REMARK    4  A    between atoms: N_20  and  C_21
REMARK    5  A    between atoms: C_25  and  C_26
REMARK                            x       y       z     vdW  Elec       q    Type
REMARK                         _______ _______ _______ _____ _____    ______ ____
ROOT
ATOM      1  C   UNL     1       5.462  15.474  17.927  0.00  0.00    +0.000 C 
ATOM      2  C   UNL     1       4.119  15.286  18.522  0.00  0.00    +0.000 A 
ATOM      3  C   UNL     1       3.366  16.174  19.252  0.00  0.00    +0.000 A 
ATOM      4  N   UNL     1       2.221  15.498  19.626  0.00  0.00    +0.000 N 
ATOM      5  C   UNL     1       1.188  16.024  20.458  0.00  0.00    +0.000 A 
ATOM      6  C   UNL     1       0.902  17.371  20.401  0.00  0.00    +0.000 A 
ATOM      7  C   UNL     1      -0.253  17.744  21.043  0.00  0.00    +0.000 A 
ATOM      8  N   UNL     1      -1.066  16.888  21.695  0.00  0.00    +0.000 NA
ATOM      9  C   UNL     1      -0.672  15.613  21.757  0.00  0.00    +0.000 A 
ATOM     10  N   UNL     1      -1.448  14.652  22.380  0.00  0.00    +0.000 N 
ATOM     11  N   UNL     1       0.455  15.168  21.195  0.00  0.00    +0.000 NA
ATOM     12  C   UNL     1       2.280  14.243  19.006  0.00  0.00    +0.000 A 
ATOM     13  N   UNL     1       3.449  14.101  18.387  0.00  0.00    +0.000 NA
ATOM     14  H   UNL     1      -0.851  14.157  23.032  0.00  0.00    +0.000 HD
ENDROOT
BRANCH  10  15
ATOM     15  C   UNL     1      -2.779  15.031  22.834  0.00  0.00    +0.000 C 
ATOM     16  C   UNL     1      -3.400  13.881  23.639  0.00  0.00    +0.000 C 
ATOM     17  C   UNL     1      -4.162  13.051  22.617  0.00  0.00    +0.000 C 
ATOM     18  N   UNL     1      -4.593  14.011  21.624  0.00  0.00    +0.000 N 
ATOM     19  C   UNL     1      -5.646  13.883  20.725  0.00  0.00    +0.000 C 
ATOM     20  O   UNL     1      -5.994  14.836  20.024  0.00  0.00    +0.000 OA
ATOM     21  C   UNL     1      -3.760  15.205  21.651  0.00  0.00    +0.000 C 
BRANCH  19  22
ATOM     22  C   UNL     1      -6.371  12.593  20.646  0.00  0.00    +0.000 A 
ATOM     23  C   UNL     1      -7.603  12.291  21.296  0.00  0.00    +0.000 A 
ATOM     24  C   UNL     1      -7.917  11.005  20.926  0.00  0.00    +0.000 A 
ATOM     25  N   UNL     1      -6.927  10.616  20.077  0.00  0.00    +0.000 N 
ATOM     26  C   UNL     1      -6.831   9.362  19.369  0.00  0.00    +0.000 C 
ATOM     27  N   UNL     1      -5.972  11.544  19.898  0.00  0.00    +0.000 NA
ENDBRANCH  19  22
ENDBRANCH  10  15
BRANCH  12  28
ATOM     28  C   UNL     1       1.211  13.224  18.963  0.00  0.00    +0.000 A 
ATOM     29  C   UNL     1       1.350  11.955  19.547  0.00  0.00    +0.000 A 
ATOM     30  C   UNL     1       0.374  10.969  19.377  0.00  0.00    +0.000 A 
ATOM     31  C   UNL     1      -0.800  11.267  18.696  0.00  0.00    +0.000 A 
ATOM     32  C   UNL     1      -1.006  12.554  18.205  0.00  0.00    +0.000 A 
ATOM     33  C   UNL     1      -0.007  13.525  18.337  0.00  0.00    +0.000 A 
ENDBRANCH  12  28
TORSDOF 3
ENDMDL
