MODEL 1
REMARK VINA RESULT:      -6.6      0.000      0.000
REMARK  Name = 
REMARK  8 active torsions:
REMARK  status: ('A' for Active; 'I' for Inactive)
REMARK    1  A    between atoms: C_1  and  O_2
REMARK    2  A    between atoms: O_2  and  C_3
REMARK    3  A    between atoms: C_6  and  C_7
REMARK    4  A    between atoms: C_7  and  N_8
REMARK    5  A    between atoms: N_11  and  C_12
REMARK    6  A    between atoms: C_12  and  C_13
REMARK    7  A    between atoms: C_23  and  O_24
REMARK    8  A    between atoms: O_24  and  C_25
REMARK                            x       y       z     vdW  Elec       q    Type
REMARK                         _______ _______ _______ _____ _____    ______ ____
ROOT
ATOM      1  N   UNL     1       0.120   8.719  20.987  0.00  0.00    +0.000 NA
ATOM      2  C   UNL     1      -0.614   8.878  22.263  0.00  0.00    +0.000 C 
ATOM      3  C   UNL     1      -0.353  10.169  23.067  0.00  0.00    +0.000 C 
ATOM      4  N   UNL     1      -0.305  11.434  22.312  0.00  0.00    +0.000 NA
ATOM      5  C   UNL     1       0.377  11.241  21.019  0.00  0.00    +0.000 C 
ATOM      6  C   UNL     1      -0.017   9.975  20.227  0.00  0.00    +0.000 C 
ENDROOT
BRANCH   1   7
ATOM      7  C   UNL     1       1.528   8.303  21.134  0.00  0.00    +0.000 C 
BRANCH   7  11
ATOM      8  C   UNL     1       2.846   4.912  18.697  0.00  0.00    +0.000 A 
ATOM      9  C   UNL     1       2.867   6.228  18.192  0.00  0.00    +0.000 A 
ATOM     10  C   UNL     1       2.454   7.323  18.979  0.00  0.00    +0.000 A 
ATOM     11  C   UNL     1       1.953   7.124  20.265  0.00  0.00    +0.000 A 
ATOM     12  C   UNL     1       1.901   5.807  20.724  0.00  0.00    +0.000 A 
ATOM     13  C   UNL     1       2.409   4.719  20.010  0.00  0.00    +0.000 A 
BRANCH   8  15
ATOM     14  C   UNL     1       2.368   2.953  17.447  0.00  0.00    +0.000 C 
ATOM     15  O   UNL     1       3.341   3.843  17.994  0.00  0.00    +0.000 OA
ENDBRANCH   8  15
BRANCH  13  16
ATOM     16  O   UNL     1       2.537   3.634  20.832  0.00  0.00    +0.000 OA
ATOM     17  C   UNL     1       1.411   2.913  21.259  0.00  0.00    +0.000 C 
ENDBRANCH  13  16
ENDBRANCH   7  11
ENDBRANCH   1   7
BRANCH   4  18
ATOM     18  C   UNL     1      -1.632  12.050  22.146  0.00  0.00    +0.000 C 
BRANCH  18  19
ATOM     19  C   UNL     1      -1.937  13.115  23.180  0.00  0.00    +0.000 A 
ATOM     20  C   UNL     1      -1.022  14.140  23.472  0.00  0.00    +0.000 A 
ATOM     21  C   UNL     1      -1.329  15.123  24.419  0.00  0.00    +0.000 A 
ATOM     22  C   UNL     1      -2.554  15.103  25.082  0.00  0.00    +0.000 A 
ATOM     23  C   UNL     1      -3.474  14.097  24.800  0.00  0.00    +0.000 A 
ATOM     24  C   UNL     1      -3.161  13.116  23.857  0.00  0.00    +0.000 A 
ATOM     25  F   UNL     1      -4.062  12.155  23.608  0.00  0.00    +0.000 F 
ENDBRANCH  18  19
ENDBRANCH   4  18
TORSDOF 6
ENDMDL
MODEL 2
REMARK VINA RESULT:      -6.6      3.582      5.790
REMARK  Name = 
REMARK  8 active torsions:
REMARK  status: ('A' for Active; 'I' for Inactive)
REMARK    1  A    between atoms: C_1  and  O_2
REMARK    2  A    between atoms: O_2  and  C_3
REMARK    3  A    between atoms: C_6  and  C_7
REMARK    4  A    between atoms: C_7  and  N_8
REMARK    5  A    between atoms: N_11  and  C_12
REMARK    6  A    between atoms: C_12  and  C_13
REMARK    7  A    between atoms: C_23  and  O_24
REMARK    8  A    between atoms: O_24  and  C_25
REMARK                            x       y       z     vdW  Elec       q    Type
REMARK                         _______ _______ _______ _____ _____    ______ ____
ROOT
ATOM      1  N   UNL     1       2.844   4.776  18.614  0.00  0.00    +0.000 NA
ATOM      2  C   UNL     1       1.957   4.415  19.742  0.00  0.00    +0.000 C 
ATOM      3  C   UNL     1       1.911   5.388  20.939  0.00  0.00    +0.000 C 
ATOM      4  N   UNL     1       1.833   6.828  20.633  0.00  0.00    +0.000 NA
ATOM      5  C   UNL     1       2.677   7.156  19.468  0.00  0.00    +0.000 C 
ATOM      6  C   UNL     1       2.588   6.186  18.270  0.00  0.00    +0.000 C 
ENDROOT
BRANCH   1   7
ATOM      7  C   UNL     1       4.275   4.506  18.845  0.00  0.00    +0.000 C 
BRANCH   7  11
ATOM      8  C   UNL     1       6.808   5.061  15.316  0.00  0.00    +0.000 A 
ATOM      9  C   UNL     1       5.707   4.182  15.295  0.00  0.00    +0.000 A 
ATOM     10  C   UNL     1       4.882   4.010  16.427  0.00  0.00    +0.000 A 
ATOM     11  C   UNL     1       5.174   4.664  17.623  0.00  0.00    +0.000 A 
ATOM     12  C   UNL     1       6.297   5.494  17.629  0.00  0.00    +0.000 A 
ATOM     13  C   UNL     1       7.061   5.770  16.493  0.00  0.00    +0.000 A 
BRANCH   8  15
ATOM     14  C   UNL     1       7.141   4.684  12.997  0.00  0.00    +0.000 C 
ATOM     15  O   UNL     1       7.561   5.328  14.201  0.00  0.00    +0.000 OA
ENDBRANCH   8  15
BRANCH  13  16
ATOM     16  O   UNL     1       7.859   6.858  16.714  0.00  0.00    +0.000 OA
ATOM     17  C   UNL     1       7.432   7.912  17.536  0.00  0.00    +0.000 C 
ENDBRANCH  13  16
ENDBRANCH   7  11
ENDBRANCH   1   7
BRANCH   4  18
ATOM     18  C   UNL     1       0.450   7.301  20.458  0.00  0.00    +0.000 C 
BRANCH  18  19
ATOM     19  C   UNL     1       0.175   8.627  21.137  0.00  0.00    +0.000 A 
ATOM     20  C   UNL     1      -0.366   8.691  22.432  0.00  0.00    +0.000 A 
ATOM     21  C   UNL     1      -0.598   9.927  23.048  0.00  0.00    +0.000 A 
ATOM     22  C   UNL     1      -0.288  11.113  22.385  0.00  0.00    +0.000 A 
ATOM     23  C   UNL     1       0.253  11.065  21.104  0.00  0.00    +0.000 A 
ATOM     24  C   UNL     1       0.479   9.830  20.492  0.00  0.00    +0.000 A 
ATOM     25  F   UNL     1       0.995   9.812  19.255  0.00  0.00    +0.000 F 
ENDBRANCH  18  19
ENDBRANCH   4  18
TORSDOF 6
ENDMDL
MODEL 3
REMARK VINA RESULT:      -6.6      4.207      5.414
REMARK  Name = 
REMARK  8 active torsions:
REMARK  status: ('A' for Active; 'I' for Inactive)
REMARK    1  A    between atoms: C_1  and  O_2
REMARK    2  A    between atoms: O_2  and  C_3
REMARK    3  A    between atoms: C_6  and  C_7
REMARK    4  A    between atoms: C_7  and  N_8
REMARK    5  A    between atoms: N_11  and  C_12
REMARK    6  A    between atoms: C_12  and  C_13
REMARK    7  A    between atoms: C_23  and  O_24
REMARK    8  A    between atoms: O_24  and  C_25
REMARK                            x       y       z     vdW  Elec       q    Type
REMARK                         _______ _______ _______ _____ _____    ______ ____
ROOT
ATOM      1  N   UNL     1       2.528   5.809  19.265  0.00  0.00    +0.000 NA
ATOM      2  C   UNL     1       1.731   6.242  20.434  0.00  0.00    +0.000 C 
ATOM      3  C   UNL     1       1.757   7.744  20.785  0.00  0.00    +0.000 C 
ATOM      4  N   UNL     1       1.636   8.699  19.668  0.00  0.00    +0.000 NA
ATOM      5  C   UNL     1       2.388   8.220  18.493  0.00  0.00    +0.000 C 
ATOM      6  C   UNL     1       2.227   6.723  18.148  0.00  0.00    +0.000 C 
ENDROOT
BRANCH   1   7
ATOM      7  C   UNL     1       3.976   5.690  19.516  0.00  0.00    +0.000 C 
BRANCH   7  11
ATOM      8  C   UNL     1       6.361   4.731  15.972  0.00  0.00    +0.000 A 
ATOM      9  C   UNL     1       5.197   4.003  16.289  0.00  0.00    +0.000 A 
ATOM     10  C   UNL     1       4.421   4.317  17.424  0.00  0.00    +0.000 A 
ATOM     11  C   UNL     1       4.821   5.324  18.300  0.00  0.00    +0.000 A 
ATOM     12  C   UNL     1       6.002   6.000  17.986  0.00  0.00    +0.000 A 
ATOM     13  C   UNL     1       6.727   5.786  16.812  0.00  0.00    +0.000 A 
BRANCH   8  15
ATOM     14  C   UNL     1       6.332   4.006  13.712  0.00  0.00    +0.000 C 
ATOM     15  O   UNL     1       7.075   4.518  14.819  0.00  0.00    +0.000 OA
ENDBRANCH   8  15
BRANCH  13  16
ATOM     16  O   UNL     1       7.613   6.807  16.612  0.00  0.00    +0.000 OA
ATOM     17  C   UNL     1       7.667   7.901  17.489  0.00  0.00    +0.000 C 
ENDBRANCH  13  16
ENDBRANCH   7  11
ENDBRANCH   1   7
BRANCH   4  18
ATOM     18  C   UNL     1       0.237   9.012  19.334  0.00  0.00    +0.000 C 
BRANCH  18  19
ATOM     19  C   UNL     1       0.008  10.471  19.000  0.00  0.00    +0.000 A 
ATOM     20  C   UNL     1       0.937  11.462  19.359  0.00  0.00    +0.000 A 
ATOM     21  C   UNL     1       0.713  12.803  19.028  0.00  0.00    +0.000 A 
ATOM     22  C   UNL     1      -0.433  13.174  18.328  0.00  0.00    +0.000 A 
ATOM     23  C   UNL     1      -1.360  12.204  17.961  0.00  0.00    +0.000 A 
ATOM     24  C   UNL     1      -1.135  10.867  18.297  0.00  0.00    +0.000 A 
ATOM     25  F   UNL     1      -2.047   9.953  17.936  0.00  0.00    +0.000 F 
ENDBRANCH  18  19
ENDBRANCH   4  18
TORSDOF 6
ENDMDL
MODEL 4
REMARK VINA RESULT:      -6.5      3.087      4.896
REMARK  Name = 
REMARK  8 active torsions:
REMARK  status: ('A' for Active; 'I' for Inactive)
REMARK    1  A    between atoms: C_1  and  O_2
REMARK    2  A    between atoms: O_2  and  C_3
REMARK    3  A    between atoms: C_6  and  C_7
REMARK    4  A    between atoms: C_7  and  N_8
REMARK    5  A    between atoms: N_11  and  C_12
REMARK    6  A    between atoms: C_12  and  C_13
REMARK    7  A    between atoms: C_23  and  O_24
REMARK    8  A    between atoms: O_24  and  C_25
REMARK                            x       y       z     vdW  Elec       q    Type
REMARK                         _______ _______ _______ _____ _____    ______ ____
ROOT
ATOM      1  N   UNL     1       2.496   5.779  19.167  0.00  0.00    +0.000 NA
ATOM      2  C   UNL     1       1.669   5.933  20.385  0.00  0.00    +0.000 C 
ATOM      3  C   UNL     1       1.707   7.304  21.091  0.00  0.00    +0.000 C 
ATOM      4  N   UNL     1       1.636   8.504  20.236  0.00  0.00    +0.000 NA
ATOM      5  C   UNL     1       2.418   8.307  19.001  0.00  0.00    +0.000 C 
ATOM      6  C   UNL     1       2.245   6.943  18.298  0.00  0.00    +0.000 C 
ENDROOT
BRANCH   1   7
ATOM      7  C   UNL     1       3.934   5.570  19.422  0.00  0.00    +0.000 C 
BRANCH   7  11
ATOM      8  C   UNL     1       6.291   4.644  15.849  0.00  0.00    +0.000 A 
ATOM      9  C   UNL     1       5.107   3.939  16.148  0.00  0.00    +0.000 A 
ATOM     10  C   UNL     1       4.340   4.243  17.292  0.00  0.00    +0.000 A 
ATOM     11  C   UNL     1       4.769   5.215  18.195  0.00  0.00    +0.000 A 
ATOM     12  C   UNL     1       5.967   5.867  17.898  0.00  0.00    +0.000 A 
ATOM     13  C   UNL     1       6.685   5.665  16.718  0.00  0.00    +0.000 A 
BRANCH   8  15
ATOM     14  C   UNL     1       6.251   3.930  13.586  0.00  0.00    +0.000 C 
ATOM     15  O   UNL     1       6.998   4.443  14.691  0.00  0.00    +0.000 OA
ENDBRANCH   8  15
BRANCH  13  16
ATOM     16  O   UNL     1       7.600   6.666  16.545  0.00  0.00    +0.000 OA
ATOM     17  C   UNL     1       7.682   7.734  17.451  0.00  0.00    +0.000 C 
ENDBRANCH  13  16
ENDBRANCH   7  11
ENDBRANCH   1   7
BRANCH   4  18
ATOM     18  C   UNL     1       0.253   8.920  19.950  0.00  0.00    +0.000 C 
BRANCH  18  19
ATOM     19  C   UNL     1      -0.299   9.910  20.954  0.00  0.00    +0.000 A 
ATOM     20  C   UNL     1      -0.522   9.552  22.294  0.00  0.00    +0.000 A 
ATOM     21  C   UNL     1      -1.019  10.487  23.209  0.00  0.00    +0.000 A 
ATOM     22  C   UNL     1      -1.293  11.791  22.805  0.00  0.00    +0.000 A 
ATOM     23  C   UNL     1      -1.073  12.163  21.482  0.00  0.00    +0.000 A 
ATOM     24  C   UNL     1      -0.580  11.226  20.571  0.00  0.00    +0.000 A 
ATOM     25  F   UNL     1      -0.383  11.608  19.301  0.00  0.00    +0.000 F 
ENDBRANCH  18  19
ENDBRANCH   4  18
TORSDOF 6
ENDMDL
MODEL 5
REMARK VINA RESULT:      -6.5      8.141     10.607
REMARK  Name = 
REMARK  8 active torsions:
REMARK  status: ('A' for Active; 'I' for Inactive)
REMARK    1  A    between atoms: C_1  and  O_2
REMARK    2  A    between atoms: O_2  and  C_3
REMARK    3  A    between atoms: C_6  and  C_7
REMARK    4  A    between atoms: C_7  and  N_8
REMARK    5  A    between atoms: N_11  and  C_12
REMARK    6  A    between atoms: C_12  and  C_13
REMARK    7  A    between atoms: C_23  and  O_24
REMARK    8  A    between atoms: O_24  and  C_25
REMARK                            x       y       z     vdW  Elec       q    Type
REMARK                         _______ _______ _______ _____ _____    ______ ____
ROOT
ATOM      1  N   UNL     1       7.052   7.287  17.143  0.00  0.00    +0.000 NA
ATOM      2  C   UNL     1       7.339   6.065  16.359  0.00  0.00    +0.000 C 
ATOM      3  C   UNL     1       7.016   4.711  17.024  0.00  0.00    +0.000 C 
ATOM      4  N   UNL     1       5.731   4.602  17.739  0.00  0.00    +0.000 NA
ATOM      5  C   UNL     1       5.434   5.851  18.465  0.00  0.00    +0.000 C 
ATOM      6  C   UNL     1       5.689   7.163  17.692  0.00  0.00    +0.000 C 
ENDROOT
BRANCH   1   7
ATOM      7  C   UNL     1       8.049   7.599  18.186  0.00  0.00    +0.000 C 
BRANCH   7  11
ATOM      8  C   UNL     1       9.005  11.846  18.648  0.00  0.00    +0.000 A 
ATOM      9  C   UNL     1       8.335  11.368  17.505  0.00  0.00    +0.000 A 
ATOM     10  C   UNL     1       8.015  10.002  17.359  0.00  0.00    +0.000 A 
ATOM     11  C   UNL     1       8.411   9.074  18.321  0.00  0.00    +0.000 A 
ATOM     12  C   UNL     1       9.113   9.568  19.422  0.00  0.00    +0.000 A 
ATOM     13  C   UNL     1       9.343  10.928  19.646  0.00  0.00    +0.000 A 
BRANCH   8  15
ATOM     14  C   UNL     1       8.415  14.084  18.120  0.00  0.00    +0.000 C 
ATOM     15  O   UNL     1       9.234  13.181  18.866  0.00  0.00    +0.000 OA
ENDBRANCH   8  15
BRANCH  13  16
ATOM     16  O   UNL     1       9.732  11.133  20.940  0.00  0.00    +0.000 OA
ATOM     17  C   UNL     1       8.846  11.670  21.885  0.00  0.00    +0.000 C 
ENDBRANCH  13  16
ENDBRANCH   7  11
ENDBRANCH   1   7
BRANCH   4  18
ATOM     18  C   UNL     1       4.620   4.202  16.858  0.00  0.00    +0.000 C 
BRANCH  18  19
ATOM     19  C   UNL     1       3.467   3.555  17.597  0.00  0.00    +0.000 A 
ATOM     20  C   UNL     1       3.499   2.200  17.966  0.00  0.00    +0.000 A 
ATOM     21  C   UNL     1       2.430   1.624  18.662  0.00  0.00    +0.000 A 
ATOM     22  C   UNL     1       1.319   2.392  19.006  0.00  0.00    +0.000 A 
ATOM     23  C   UNL     1       1.275   3.737  18.651  0.00  0.00    +0.000 A 
ATOM     24  C   UNL     1       2.343   4.306  17.954  0.00  0.00    +0.000 A 
ATOM     25  F   UNL     1       2.272   5.602  17.619  0.00  0.00    +0.000 F 
ENDBRANCH  18  19
ENDBRANCH   4  18
TORSDOF 6
ENDMDL
MODEL 6
REMARK VINA RESULT:      -6.4      8.347     10.775
REMARK  Name = 
REMARK  8 active torsions:
REMARK  status: ('A' for Active; 'I' for Inactive)
REMARK    1  A    between atoms: C_1  and  O_2
REMARK    2  A    between atoms: O_2  and  C_3
REMARK    3  A    between atoms: C_6  and  C_7
REMARK    4  A    between atoms: C_7  and  N_8
REMARK    5  A    between atoms: N_11  and  C_12
REMARK    6  A    between atoms: C_12  and  C_13
REMARK    7  A    between atoms: C_23  and  O_24
REMARK    8  A    between atoms: O_24  and  C_25
REMARK                            x       y       z     vdW  Elec       q    Type
REMARK                         _______ _______ _______ _____ _____    ______ ____
ROOT
ATOM      1  N   UNL     1       6.958   7.161  17.092  0.00  0.00    +0.000 NA
ATOM      2  C   UNL     1       7.298   5.981  16.266  0.00  0.00    +0.000 C 
ATOM      3  C   UNL     1       7.043   4.592  16.886  0.00  0.00    +0.000 C 
ATOM      4  N   UNL     1       5.769   4.398  17.603  0.00  0.00    +0.000 NA
ATOM      5  C   UNL     1       5.418   5.607  18.372  0.00  0.00    +0.000 C 
ATOM      6  C   UNL     1       5.606   6.954  17.642  0.00  0.00    +0.000 C 
ENDROOT
BRANCH   1   7
ATOM      7  C   UNL     1       7.945   7.485  18.139  0.00  0.00    +0.000 C 
BRANCH   7  11
ATOM      8  C   UNL     1       8.962  11.727  18.513  0.00  0.00    +0.000 A 
ATOM      9  C   UNL     1       8.233  11.244  17.407  0.00  0.00    +0.000 A 
ATOM     10  C   UNL     1       7.895   9.880  17.290  0.00  0.00    +0.000 A 
ATOM     11  C   UNL     1       8.327   8.958  18.242  0.00  0.00    +0.000 A 
ATOM     12  C   UNL     1       9.085   9.456  19.303  0.00  0.00    +0.000 A 
ATOM     13  C   UNL     1       9.337  10.815  19.503  0.00  0.00    +0.000 A 
BRANCH   8  15
ATOM     14  C   UNL     1      10.575  13.467  18.569  0.00  0.00    +0.000 C 
ATOM     15  O   UNL     1       9.212  13.062  18.706  0.00  0.00    +0.000 OA
ENDBRANCH   8  15
BRANCH  13  16
ATOM     16  O   UNL     1       9.789  11.030  20.774  0.00  0.00    +0.000 OA
ATOM     17  C   UNL     1       8.935  11.523  21.772  0.00  0.00    +0.000 C 
ENDBRANCH  13  16
ENDBRANCH   7  11
ENDBRANCH   1   7
BRANCH   4  18
ATOM     18  C   UNL     1       4.673   3.975  16.715  0.00  0.00    +0.000 C 
BRANCH  18  19
ATOM     19  C   UNL     1       3.409   3.592  17.457  0.00  0.00    +0.000 A 
ATOM     20  C   UNL     1       2.370   4.515  17.664  0.00  0.00    +0.000 A 
ATOM     21  C   UNL     1       1.204   4.136  18.338  0.00  0.00    +0.000 A 
ATOM     22  C   UNL     1       1.053   2.833  18.807  0.00  0.00    +0.000 A 
ATOM     23  C   UNL     1       2.071   1.907  18.606  0.00  0.00    +0.000 A 
ATOM     24  C   UNL     1       3.235   2.289  17.935  0.00  0.00    +0.000 A 
ATOM     25  F   UNL     1       4.203   1.379  17.760  0.00  0.00    +0.000 F 
ENDBRANCH  18  19
ENDBRANCH   4  18
TORSDOF 6
ENDMDL
MODEL 7
REMARK VINA RESULT:      -6.4      1.453      2.057
REMARK  Name = 
REMARK  8 active torsions:
REMARK  status: ('A' for Active; 'I' for Inactive)
REMARK    1  A    between atoms: C_1  and  O_2
REMARK    2  A    between atoms: O_2  and  C_3
REMARK    3  A    between atoms: C_6  and  C_7
REMARK    4  A    between atoms: C_7  and  N_8
REMARK    5  A    between atoms: N_11  and  C_12
REMARK    6  A    between atoms: C_12  and  C_13
REMARK    7  A    between atoms: C_23  and  O_24
REMARK    8  A    between atoms: O_24  and  C_25
REMARK                            x       y       z     vdW  Elec       q    Type
REMARK                         _______ _______ _______ _____ _____    ______ ____
ROOT
ATOM      1  N   UNL     1       1.534   8.820  21.036  0.00  0.00    +0.000 NA
ATOM      2  C   UNL     1       0.851   9.785  20.147  0.00  0.00    +0.000 C 
ATOM      3  C   UNL     1      -0.570  10.229  20.552  0.00  0.00    +0.000 C 
ATOM      4  N   UNL     1      -0.795  10.553  21.972  0.00  0.00    +0.000 NA
ATOM      5  C   UNL     1      -0.058   9.617  22.841  0.00  0.00    +0.000 C 
ATOM      6  C   UNL     1       1.395   9.304  22.422  0.00  0.00    +0.000 C 
ENDROOT
BRANCH   1   7
ATOM      7  C   UNL     1       1.091   7.421  20.884  0.00  0.00    +0.000 C 
BRANCH   7  11
ATOM      8  C   UNL     1       3.759   4.913  18.484  0.00  0.00    +0.000 A 
ATOM      9  C   UNL     1       3.437   6.226  18.087  0.00  0.00    +0.000 A 
ATOM     10  C   UNL     1       2.586   7.040  18.865  0.00  0.00    +0.000 A 
ATOM     11  C   UNL     1       1.991   6.542  20.022  0.00  0.00    +0.000 A 
ATOM     12  C   UNL     1       2.292   5.223  20.368  0.00  0.00    +0.000 A 
ATOM     13  C   UNL     1       3.217   4.435  19.680  0.00  0.00    +0.000 A 
BRANCH   8  15
ATOM     14  C   UNL     1       6.038   4.498  17.966  0.00  0.00    +0.000 C 
ATOM     15  O   UNL     1       4.665   4.138  17.805  0.00  0.00    +0.000 OA
ENDBRANCH   8  15
BRANCH  13  16
ATOM     16  O   UNL     1       3.559   3.346  20.431  0.00  0.00    +0.000 OA
ATOM     17  C   UNL     1       2.608   2.684  21.222  0.00  0.00    +0.000 C 
ENDBRANCH  13  16
ENDBRANCH   7  11
ENDBRANCH   1   7
BRANCH   4  18
ATOM     18  C   UNL     1      -0.487  11.957  22.293  0.00  0.00    +0.000 C 
BRANCH  18  19
ATOM     19  C   UNL     1      -1.588  12.655  23.065  0.00  0.00    +0.000 A 
ATOM     20  C   UNL     1      -2.797  12.008  23.370  0.00  0.00    +0.000 A 
ATOM     21  C   UNL     1      -3.794  12.665  24.098  0.00  0.00    +0.000 A 
ATOM     22  C   UNL     1      -3.599  13.972  24.539  0.00  0.00    +0.000 A 
ATOM     23  C   UNL     1      -2.405  14.625  24.249  0.00  0.00    +0.000 A 
ATOM     24  C   UNL     1      -1.413  13.967  23.520  0.00  0.00    +0.000 A 
ATOM     25  F   UNL     1      -0.274  14.621  23.249  0.00  0.00    +0.000 F 
ENDBRANCH  18  19
ENDBRANCH   4  18
TORSDOF 6
ENDMDL
MODEL 8
REMARK VINA RESULT:      -6.3      3.110      4.988
REMARK  Name = 
REMARK  8 active torsions:
REMARK  status: ('A' for Active; 'I' for Inactive)
REMARK    1  A    between atoms: C_1  and  O_2
REMARK    2  A    between atoms: O_2  and  C_3
REMARK    3  A    between atoms: C_6  and  C_7
REMARK    4  A    between atoms: C_7  and  N_8
REMARK    5  A    between atoms: N_11  and  C_12
REMARK    6  A    between atoms: C_12  and  C_13
REMARK    7  A    between atoms: C_23  and  O_24
REMARK    8  A    between atoms: O_24  and  C_25
REMARK                            x       y       z     vdW  Elec       q    Type
REMARK                         _______ _______ _______ _____ _____    ______ ____
ROOT
ATOM      1  N   UNL     1       2.410   5.347  19.159  0.00  0.00    +0.000 NA
ATOM      2  C   UNL     1       1.652   5.584  20.407  0.00  0.00    +0.000 C 
ATOM      3  C   UNL     1       1.819   6.962  21.080  0.00  0.00    +0.000 C 
ATOM      4  N   UNL     1       1.796   8.147  20.202  0.00  0.00    +0.000 NA
ATOM      5  C   UNL     1       2.505   7.870  18.939  0.00  0.00    +0.000 C 
ATOM      6  C   UNL     1       2.204   6.509  18.275  0.00  0.00    +0.000 C 
ENDROOT
BRANCH   1   7
ATOM      7  C   UNL     1       3.840   5.039  19.355  0.00  0.00    +0.000 C 
BRANCH   7  11
ATOM      8  C   UNL     1       6.235   5.245  15.696  0.00  0.00    +0.000 A 
ATOM      9  C   UNL     1       5.256   4.247  15.874  0.00  0.00    +0.000 A 
ATOM     10  C   UNL     1       4.475   4.185  17.047  0.00  0.00    +0.000 A 
ATOM     11  C   UNL     1       4.695   5.080  18.093  0.00  0.00    +0.000 A 
ATOM     12  C   UNL     1       5.701   6.031  17.908  0.00  0.00    +0.000 A 
ATOM     13  C   UNL     1       6.409   6.185  16.714  0.00  0.00    +0.000 A 
BRANCH   8  15
ATOM     14  C   UNL     1       6.772   4.347  13.565  0.00  0.00    +0.000 C 
ATOM     15  O   UNL     1       6.933   5.394  14.524  0.00  0.00    +0.000 OA
ENDBRANCH   8  15
BRANCH  13  16
ATOM     16  O   UNL     1       7.061   7.386  16.705  0.00  0.00    +0.000 OA
ATOM     17  C   UNL     1       7.935   7.743  17.743  0.00  0.00    +0.000 C 
ENDBRANCH  13  16
ENDBRANCH   7  11
ENDBRANCH   1   7
BRANCH   4  18
ATOM     18  C   UNL     1       0.435   8.656  19.967  0.00  0.00    +0.000 C 
BRANCH  18  19
ATOM     19  C   UNL     1       0.087   9.864  20.812  0.00  0.00    +0.000 A 
ATOM     20  C   UNL     1       0.411  11.168  20.399  0.00  0.00    +0.000 A 
ATOM     21  C   UNL     1       0.068  12.272  21.188  0.00  0.00    +0.000 A 
ATOM     22  C   UNL     1      -0.609  12.094  22.392  0.00  0.00    +0.000 A 
ATOM     23  C   UNL     1      -0.941  10.809  22.812  0.00  0.00    +0.000 A 
ATOM     24  C   UNL     1      -0.594   9.710  22.024  0.00  0.00    +0.000 A 
ATOM     25  F   UNL     1      -0.920   8.483  22.454  0.00  0.00    +0.000 F 
ENDBRANCH  18  19
ENDBRANCH   4  18
TORSDOF 6
ENDMDL
MODEL 9
REMARK VINA RESULT:      -6.3      4.868     10.063
REMARK  Name = 
REMARK  8 active torsions:
REMARK  status: ('A' for Active; 'I' for Inactive)
REMARK    1  A    between atoms: C_1  and  O_2
REMARK    2  A    between atoms: O_2  and  C_3
REMARK    3  A    between atoms: C_6  and  C_7
REMARK    4  A    between atoms: C_7  and  N_8
REMARK    5  A    between atoms: N_11  and  C_12
REMARK    6  A    between atoms: C_12  and  C_13
REMARK    7  A    between atoms: C_23  and  O_24
REMARK    8  A    between atoms: O_24  and  C_25
REMARK                            x       y       z     vdW  Elec       q    Type
REMARK                         _______ _______ _______ _____ _____    ______ ____
ROOT
ATOM      1  N   UNL     1       2.142   6.695  18.914  0.00  0.00    +0.000 NA
ATOM      2  C   UNL     1       3.257   6.820  17.949  0.00  0.00    +0.000 C 
ATOM      3  C   UNL     1       4.630   6.269  18.387  0.00  0.00    +0.000 C 
ATOM      4  N   UNL     1       4.646   4.958  19.060  0.00  0.00    +0.000 NA
ATOM      5  C   UNL     1       3.494   4.829  19.972  0.00  0.00    +0.000 C 
ATOM      6  C   UNL     1       2.135   5.310  19.420  0.00  0.00    +0.000 C 
ENDROOT
BRANCH   1   7
ATOM      7  C   UNL     1       2.156   7.689  20.004  0.00  0.00    +0.000 C 
BRANCH   7  11
ATOM      8  C   UNL     1      -0.603  11.046  19.467  0.00  0.00    +0.000 A 
ATOM      9  C   UNL     1       0.029  10.435  18.366  0.00  0.00    +0.000 A 
ATOM     10  C   UNL     1       0.910   9.346  18.535  0.00  0.00    +0.000 A 
ATOM     11  C   UNL     1       1.226   8.882  19.811  0.00  0.00    +0.000 A 
ATOM     12  C   UNL     1       0.620   9.533  20.887  0.00  0.00    +0.000 A 
ATOM     13  C   UNL     1      -0.340  10.537  20.742  0.00  0.00    +0.000 A 
BRANCH   8  15
ATOM     14  C   UNL     1      -2.746  11.659  18.651  0.00  0.00    +0.000 C 
ATOM     15  O   UNL     1      -1.543  12.035  19.324  0.00  0.00    +0.000 OA
ENDBRANCH   8  15
BRANCH  13  16
ATOM     16  O   UNL     1      -0.996  10.736  21.924  0.00  0.00    +0.000 OA
ATOM     17  C   UNL     1      -0.591  10.079  23.096  0.00  0.00    +0.000 C 
ENDBRANCH  13  16
ENDBRANCH   7  11
ENDBRANCH   1   7
BRANCH   4  18
ATOM     18  C   UNL     1       4.725   3.832  18.114  0.00  0.00    +0.000 C 
BRANCH  18  19
ATOM     19  C   UNL     1       5.469   4.167  16.838  0.00  0.00    +0.000 A 
ATOM     20  C   UNL     1       4.809   4.236  15.599  0.00  0.00    +0.000 A 
ATOM     21  C   UNL     1       5.511   4.562  14.433  0.00  0.00    +0.000 A 
ATOM     22  C   UNL     1       6.877   4.832  14.487  0.00  0.00    +0.000 A 
ATOM     23  C   UNL     1       7.543   4.773  15.707  0.00  0.00    +0.000 A 
ATOM     24  C   UNL     1       6.840   4.443  16.867  0.00  0.00    +0.000 A 
ATOM     25  F   UNL     1       7.507   4.388  18.028  0.00  0.00    +0.000 F 
ENDBRANCH  18  19
ENDBRANCH   4  18
TORSDOF 6
ENDMDL
