MODEL 1
REMARK VINA RESULT:      -8.0      0.000      0.000
REMARK  Name = 
REMARK  3 active torsions:
REMARK  status: ('A' for Active; 'I' for Inactive)
REMARK    1  A    between atoms: S_2  and  C_4
REMARK    2  A    between atoms: S_2  and  N_9
REMARK    3  A    between atoms: N_12  and  C_13
REMARK                            x       y       z     vdW  Elec       q    Type
REMARK                         _______ _______ _______ _____ _____    ______ ____
ROOT
ATOM      1  N   UNL     1       4.647   3.526  18.343  0.00  0.00    +0.000 NA
ATOM      2  C   UNL     1       3.768   4.014  17.233  0.00  0.00    +0.000 C 
ATOM      3  C   UNL     1       2.658   4.963  17.737  0.00  0.00    +0.000 C 
ATOM      4  N   UNL     1       3.260   6.072  18.506  0.00  0.00    +0.000 N 
ATOM      5  C   UNL     1       4.037   5.585  19.669  0.00  0.00    +0.000 C 
ATOM      6  C   UNL     1       5.160   4.650  19.182  0.00  0.00    +0.000 C 
ENDROOT
BRANCH   4   7
ATOM      7  C   UNL     1       2.499   7.218  18.739  0.00  0.00    +0.000 A 
ATOM      8  C   UNL     1       2.237   8.184  17.758  0.00  0.00    +0.000 A 
ATOM      9  C   UNL     1       1.510   9.344  18.056  0.00  0.00    +0.000 A 
ATOM     10  C   UNL     1       1.041   9.556  19.347  0.00  0.00    +0.000 A 
ATOM     11 CL   UNL     1       0.160  10.987  19.716  0.00  0.00    +0.000 Cl
ATOM     12  C   UNL     1       1.287   8.617  20.342  0.00  0.00    +0.000 A 
ATOM     13  C   UNL     1       2.007   7.458  20.033  0.00  0.00    +0.000 A 
ENDBRANCH   4   7
BRANCH   1  15
ATOM     14  O   UNL     1       5.064   1.821  20.207  0.00  0.00    +0.000 OA
ATOM     15  S   UNL     1       4.103   2.154  19.175  0.00  0.00    +0.000 S 
ATOM     16  O   UNL     1       3.669   1.166  18.209  0.00  0.00    +0.000 OA
BRANCH  15  17
ATOM     17  C   UNL     1       2.642   2.545  20.053  0.00  0.00    +0.000 A 
ATOM     18  C   UNL     1       1.366   2.580  19.526  0.00  0.00    +0.000 A 
ATOM     19  N   UNL     1       0.561   2.977  20.559  0.00  0.00    +0.000 N 
ATOM     20  C   UNL     1       1.353   3.157  21.657  0.00  0.00    +0.000 A 
ATOM     21  N   UNL     1       2.614   2.890  21.399  0.00  0.00    +0.000 NA
ATOM     22  H   UNL     1      -0.439   3.125  20.518  0.00  0.00    +0.000 HD
ENDBRANCH  15  17
ENDBRANCH   1  15
TORSDOF 3
ENDMDL
MODEL 2
REMARK VINA RESULT:      -8.0      0.084      1.052
REMARK  Name = 
REMARK  3 active torsions:
REMARK  status: ('A' for Active; 'I' for Inactive)
REMARK    1  A    between atoms: S_2  and  C_4
REMARK    2  A    between atoms: S_2  and  N_9
REMARK    3  A    between atoms: N_12  and  C_13
REMARK                            x       y       z     vdW  Elec       q    Type
REMARK                         _______ _______ _______ _____ _____    ______ ____
ROOT
ATOM      1  N   UNL     1       4.612   3.523  18.315  0.00  0.00    +0.000 NA
ATOM      2  C   UNL     1       3.694   4.034  17.248  0.00  0.00    +0.000 C 
ATOM      3  C   UNL     1       2.621   4.996  17.807  0.00  0.00    +0.000 C 
ATOM      4  N   UNL     1       3.273   6.089  18.557  0.00  0.00    +0.000 N 
ATOM      5  C   UNL     1       4.092   5.581  19.683  0.00  0.00    +0.000 C 
ATOM      6  C   UNL     1       5.178   4.633  19.140  0.00  0.00    +0.000 C 
ENDROOT
BRANCH   4   7
ATOM      7  C   UNL     1       2.542   7.244  18.832  0.00  0.00    +0.000 A 
ATOM      8  C   UNL     1       1.985   7.527  20.087  0.00  0.00    +0.000 A 
ATOM      9  C   UNL     1       1.215   8.678  20.298  0.00  0.00    +0.000 A 
ATOM     10  C   UNL     1       0.984   9.560  19.249  0.00  0.00    +0.000 A 
ATOM     11 CL   UNL     1       0.027  10.966  19.505  0.00  0.00    +0.000 Cl
ATOM     12  C   UNL     1       1.521   9.306  17.992  0.00  0.00    +0.000 A 
ATOM     13  C   UNL     1       2.296   8.159  17.793  0.00  0.00    +0.000 A 
ENDBRANCH   4   7
BRANCH   1  15
ATOM     14  O   UNL     1       5.054   1.832  20.186  0.00  0.00    +0.000 OA
ATOM     15  S   UNL     1       4.083   2.153  19.159  0.00  0.00    +0.000 S 
ATOM     16  O   UNL     1       3.648   1.157  18.203  0.00  0.00    +0.000 OA
BRANCH  15  17
ATOM     17  C   UNL     1       2.626   2.539  20.047  0.00  0.00    +0.000 A 
ATOM     18  C   UNL     1       1.343   2.541  19.535  0.00  0.00    +0.000 A 
ATOM     19  N   UNL     1       0.545   2.948  20.569  0.00  0.00    +0.000 N 
ATOM     20  C   UNL     1       1.347   3.168  21.652  0.00  0.00    +0.000 A 
ATOM     21  N   UNL     1       2.609   2.916  21.384  0.00  0.00    +0.000 NA
ATOM     22  H   UNL     1      -0.458   3.079  20.537  0.00  0.00    +0.000 HD
ENDBRANCH  15  17
ENDBRANCH   1  15
TORSDOF 3
ENDMDL
MODEL 3
REMARK VINA RESULT:      -7.3      3.198      5.043
REMARK  Name = 
REMARK  3 active torsions:
REMARK  status: ('A' for Active; 'I' for Inactive)
REMARK    1  A    between atoms: S_2  and  C_4
REMARK    2  A    between atoms: S_2  and  N_9
REMARK    3  A    between atoms: N_12  and  C_13
REMARK                            x       y       z     vdW  Elec       q    Type
REMARK                         _______ _______ _______ _____ _____    ______ ____
ROOT
ATOM      1  N   UNL     1       5.536   4.326  17.481  0.00  0.00    +0.000 NA
ATOM      2  C   UNL     1       5.386   4.417  18.968  0.00  0.00    +0.000 C 
ATOM      3  C   UNL     1       4.811   5.777  19.420  0.00  0.00    +0.000 C 
ATOM      4  N   UNL     1       3.542   6.043  18.711  0.00  0.00    +0.000 N 
ATOM      5  C   UNL     1       3.720   6.063  17.241  0.00  0.00    +0.000 C 
ATOM      6  C   UNL     1       4.277   4.706  16.772  0.00  0.00    +0.000 C 
ENDROOT
BRANCH   4   7
ATOM      7  C   UNL     1       2.681   7.016  19.217  0.00  0.00    +0.000 A 
ATOM      8  C   UNL     1       2.074   6.932  20.478  0.00  0.00    +0.000 A 
ATOM      9  C   UNL     1       1.176   7.911  20.920  0.00  0.00    +0.000 A 
ATOM     10  C   UNL     1       0.866   8.989  20.098  0.00  0.00    +0.000 A 
ATOM     11 CL   UNL     1      -0.248  10.186  20.636  0.00  0.00    +0.000 Cl
ATOM     12  C   UNL     1       1.450   9.100  18.842  0.00  0.00    +0.000 A 
ATOM     13  C   UNL     1       2.352   8.121  18.412  0.00  0.00    +0.000 A 
ENDBRANCH   4   7
BRANCH   1  15
ATOM     14  O   UNL     1       8.082   4.130  17.302  0.00  0.00    +0.000 OA
ATOM     15  S   UNL     1       6.977   4.944  16.839  0.00  0.00    +0.000 S 
ATOM     16  O   UNL     1       6.983   6.382  17.009  0.00  0.00    +0.000 OA
BRANCH  15  17
ATOM     17  C   UNL     1       6.981   4.732  15.103  0.00  0.00    +0.000 A 
ATOM     18  C   UNL     1       6.255   3.790  14.401  0.00  0.00    +0.000 A 
ATOM     19  N   UNL     1       6.610   3.966  13.091  0.00  0.00    +0.000 N 
ATOM     20  C   UNL     1       7.511   4.991  13.039  0.00  0.00    +0.000 A 
ATOM     21  N   UNL     1       7.750   5.493  14.230  0.00  0.00    +0.000 NA
ATOM     22  H   UNL     1       6.278   3.427  12.302  0.00  0.00    +0.000 HD
ENDBRANCH  15  17
ENDBRANCH   1  15
TORSDOF 3
ENDMDL
MODEL 4
REMARK VINA RESULT:      -7.3      3.951      6.060
REMARK  Name = 
REMARK  3 active torsions:
REMARK  status: ('A' for Active; 'I' for Inactive)
REMARK    1  A    between atoms: S_2  and  C_4
REMARK    2  A    between atoms: S_2  and  N_9
REMARK    3  A    between atoms: N_12  and  C_13
REMARK                            x       y       z     vdW  Elec       q    Type
REMARK                         _______ _______ _______ _____ _____    ______ ____
ROOT
ATOM      1  N   UNL     1       5.377   5.615  16.230  0.00  0.00    +0.000 NA
ATOM      2  C   UNL     1       4.637   4.345  15.946  0.00  0.00    +0.000 C 
ATOM      3  C   UNL     1       4.292   3.564  17.234  0.00  0.00    +0.000 C 
ATOM      4  N   UNL     1       3.560   4.444  18.169  0.00  0.00    +0.000 N 
ATOM      5  C   UNL     1       4.345   5.646  18.534  0.00  0.00    +0.000 C 
ATOM      6  C   UNL     1       4.683   6.444  17.261  0.00  0.00    +0.000 C 
ENDROOT
BRANCH   4   7
ATOM      7  C   UNL     1       2.845   3.863  19.217  0.00  0.00    +0.000 A 
ATOM      8  C   UNL     1       1.459   3.998  19.376  0.00  0.00    +0.000 A 
ATOM      9  C   UNL     1       0.795   3.438  20.474  0.00  0.00    +0.000 A 
ATOM     10  C   UNL     1       1.514   2.738  21.436  0.00  0.00    +0.000 A 
ATOM     11 CL   UNL     1       0.700   2.061  22.792  0.00  0.00    +0.000 Cl
ATOM     12  C   UNL     1       2.890   2.588  21.307  0.00  0.00    +0.000 A 
ATOM     13  C   UNL     1       3.544   3.144  20.203  0.00  0.00    +0.000 A 
ENDBRANCH   4   7
BRANCH   1  15
ATOM     14  O   UNL     1       7.664   5.699  15.084  0.00  0.00    +0.000 OA
ATOM     15  S   UNL     1       7.059   5.480  16.381  0.00  0.00    +0.000 S 
ATOM     16  O   UNL     1       7.362   4.298  17.160  0.00  0.00    +0.000 OA
BRANCH  15  17
ATOM     17  C   UNL     1       7.664   6.792  17.368  0.00  0.00    +0.000 A 
ATOM     18  C   UNL     1       8.166   6.675  18.650  0.00  0.00    +0.000 A 
ATOM     19  N   UNL     1       8.467   7.953  19.035  0.00  0.00    +0.000 N 
ATOM     20  C   UNL     1       8.154   8.784  17.998  0.00  0.00    +0.000 A 
ATOM     21  N   UNL     1       7.682   8.121  16.966  0.00  0.00    +0.000 NA
ATOM     22  H   UNL     1       8.840   8.237  19.931  0.00  0.00    +0.000 HD
ENDBRANCH  15  17
ENDBRANCH   1  15
TORSDOF 3
ENDMDL
MODEL 5
REMARK VINA RESULT:      -7.3      3.156      4.895
REMARK  Name = 
REMARK  3 active torsions:
REMARK  status: ('A' for Active; 'I' for Inactive)
REMARK    1  A    between atoms: S_2  and  C_4
REMARK    2  A    between atoms: S_2  and  N_9
REMARK    3  A    between atoms: N_12  and  C_13
REMARK                            x       y       z     vdW  Elec       q    Type
REMARK                         _______ _______ _______ _____ _____    ______ ____
ROOT
ATOM      1  N   UNL     1       5.552   4.317  17.570  0.00  0.00    +0.000 NA
ATOM      2  C   UNL     1       5.396   4.502  19.048  0.00  0.00    +0.000 C 
ATOM      3  C   UNL     1       4.786   5.875  19.408  0.00  0.00    +0.000 C 
ATOM      4  N   UNL     1       3.513   6.062  18.681  0.00  0.00    +0.000 N 
ATOM      5  C   UNL     1       3.694   5.990  17.213  0.00  0.00    +0.000 C 
ATOM      6  C   UNL     1       4.286   4.619  16.835  0.00  0.00    +0.000 C 
ENDROOT
BRANCH   4   7
ATOM      7  C   UNL     1       2.627   7.045  19.121  0.00  0.00    +0.000 A 
ATOM      8  C   UNL     1       2.256   8.154  18.348  0.00  0.00    +0.000 A 
ATOM      9  C   UNL     1       1.402   9.141  18.855  0.00  0.00    +0.000 A 
ATOM     10  C   UNL     1       0.912   9.035  20.151  0.00  0.00    +0.000 A 
ATOM     11 CL   UNL     1      -0.127  10.255  20.778  0.00  0.00    +0.000 Cl
ATOM     12  C   UNL     1       1.262   7.948  20.943  0.00  0.00    +0.000 A 
ATOM     13  C   UNL     1       2.110   6.963  20.426  0.00  0.00    +0.000 A 
ENDBRANCH   4   7
BRANCH   1  15
ATOM     14  O   UNL     1       8.096   4.131  17.358  0.00  0.00    +0.000 OA
ATOM     15  S   UNL     1       6.979   4.926  16.890  0.00  0.00    +0.000 S 
ATOM     16  O   UNL     1       6.978   6.368  17.021  0.00  0.00    +0.000 OA
BRANCH  15  17
ATOM     17  C   UNL     1       6.959   4.668  15.160  0.00  0.00    +0.000 A 
ATOM     18  C   UNL     1       6.254   3.682  14.497  0.00  0.00    +0.000 A 
ATOM     19  N   UNL     1       6.578   3.836  13.177  0.00  0.00    +0.000 N 
ATOM     20  C   UNL     1       7.441   4.890  13.080  0.00  0.00    +0.000 A 
ATOM     21  N   UNL     1       7.683   5.432  14.253  0.00  0.00    +0.000 NA
ATOM     22  H   UNL     1       6.251   3.265  12.408  0.00  0.00    +0.000 HD
ENDBRANCH  15  17
ENDBRANCH   1  15
TORSDOF 3
ENDMDL
MODEL 6
REMARK VINA RESULT:      -7.2      2.128      4.154
REMARK  Name = 
REMARK  3 active torsions:
REMARK  status: ('A' for Active; 'I' for Inactive)
REMARK    1  A    between atoms: S_2  and  C_4
REMARK    2  A    between atoms: S_2  and  N_9
REMARK    3  A    between atoms: N_12  and  C_13
REMARK                            x       y       z     vdW  Elec       q    Type
REMARK                         _______ _______ _______ _____ _____    ______ ____
ROOT
ATOM      1  N   UNL     1       3.341   4.708  18.596  0.00  0.00    +0.000 NA
ATOM      2  C   UNL     1       2.379   4.599  19.739  0.00  0.00    +0.000 C 
ATOM      3  C   UNL     1       2.286   5.907  20.556  0.00  0.00    +0.000 C 
ATOM      4  N   UNL     1       1.964   7.035  19.658  0.00  0.00    +0.000 N 
ATOM      5  C   UNL     1       2.981   7.207  18.594  0.00  0.00    +0.000 C 
ATOM      6  C   UNL     1       3.074   5.917  17.759  0.00  0.00    +0.000 C 
ENDROOT
BRANCH   4   7
ATOM      7  C   UNL     1       1.482   8.220  20.214  0.00  0.00    +0.000 A 
ATOM      8  C   UNL     1       1.193   8.373  21.576  0.00  0.00    +0.000 A 
ATOM      9  C   UNL     1       0.662   9.569  22.078  0.00  0.00    +0.000 A 
ATOM     10  C   UNL     1       0.405  10.628  21.215  0.00  0.00    +0.000 A 
ATOM     11 CL   UNL     1      -0.260  12.091  21.829  0.00  0.00    +0.000 Cl
ATOM     12  C   UNL     1       0.679  10.506  19.858  0.00  0.00    +0.000 A 
ATOM     13  C   UNL     1       1.217   9.312  19.368  0.00  0.00    +0.000 A 
ENDBRANCH   4   7
BRANCH   1  15
ATOM     14  O   UNL     1       5.070   3.036  19.470  0.00  0.00    +0.000 OA
ATOM     15  S   UNL     1       4.964   4.386  18.956  0.00  0.00    +0.000 S 
ATOM     16  O   UNL     1       5.511   5.511  19.685  0.00  0.00    +0.000 OA
BRANCH  15  17
ATOM     17  C   UNL     1       5.897   4.360  17.475  0.00  0.00    +0.000 A 
ATOM     18  C   UNL     1       7.183   4.838  17.321  0.00  0.00    +0.000 A 
ATOM     19  N   UNL     1       7.478   4.653  15.998  0.00  0.00    +0.000 N 
ATOM     20  C   UNL     1       6.392   4.073  15.406  0.00  0.00    +0.000 A 
ATOM     21  N   UNL     1       5.421   3.864  16.268  0.00  0.00    +0.000 NA
ATOM     22  H   UNL     1       8.339   4.910  15.533  0.00  0.00    +0.000 HD
ENDBRANCH  15  17
ENDBRANCH   1  15
TORSDOF 3
ENDMDL
MODEL 7
REMARK VINA RESULT:      -7.1      2.120      4.019
REMARK  Name = 
REMARK  3 active torsions:
REMARK  status: ('A' for Active; 'I' for Inactive)
REMARK    1  A    between atoms: S_2  and  C_4
REMARK    2  A    between atoms: S_2  and  N_9
REMARK    3  A    between atoms: N_12  and  C_13
REMARK                            x       y       z     vdW  Elec       q    Type
REMARK                         _______ _______ _______ _____ _____    ______ ____
ROOT
ATOM      1  N   UNL     1       3.404   4.660  18.616  0.00  0.00    +0.000 NA
ATOM      2  C   UNL     1       2.460   4.603  19.778  0.00  0.00    +0.000 C 
ATOM      3  C   UNL     1       2.339   5.961  20.505  0.00  0.00    +0.000 C 
ATOM      4  N   UNL     1       1.973   7.014  19.535  0.00  0.00    +0.000 N 
ATOM      5  C   UNL     1       2.970   7.142  18.448  0.00  0.00    +0.000 C 
ATOM      6  C   UNL     1       3.091   5.800  17.702  0.00  0.00    +0.000 C 
ENDROOT
BRANCH   4   7
ATOM      7  C   UNL     1       1.463   8.221  20.015  0.00  0.00    +0.000 A 
ATOM      8  C   UNL     1       1.226   9.338  19.203  0.00  0.00    +0.000 A 
ATOM      9  C   UNL     1       0.760  10.544  19.742  0.00  0.00    +0.000 A 
ATOM     10  C   UNL     1       0.533  10.650  21.110  0.00  0.00    +0.000 A 
ATOM     11 CL   UNL     1      -0.026  12.135  21.774  0.00  0.00    +0.000 Cl
ATOM     12  C   UNL     1       0.760   9.560  21.942  0.00  0.00    +0.000 A 
ATOM     13  C   UNL     1       1.217   8.357  21.393  0.00  0.00    +0.000 A 
ENDBRANCH   4   7
BRANCH   1  15
ATOM     14  O   UNL     1       5.202   3.078  19.519  0.00  0.00    +0.000 OA
ATOM     15  S   UNL     1       5.041   4.410  18.973  0.00  0.00    +0.000 S 
ATOM     16  O   UNL     1       5.547   5.573  19.673  0.00  0.00    +0.000 OA
BRANCH  15  17
ATOM     17  C   UNL     1       5.965   4.385  17.488  0.00  0.00    +0.000 A 
ATOM     18  C   UNL     1       7.230   4.912  17.314  0.00  0.00    +0.000 A 
ATOM     19  N   UNL     1       7.526   4.706  15.994  0.00  0.00    +0.000 N 
ATOM     20  C   UNL     1       6.461   4.069  15.424  0.00  0.00    +0.000 A 
ATOM     21  N   UNL     1       5.504   3.841  16.296  0.00  0.00    +0.000 NA
ATOM     22  H   UNL     1       8.374   4.986  15.518  0.00  0.00    +0.000 HD
ENDBRANCH  15  17
ENDBRANCH   1  15
TORSDOF 3
ENDMDL
MODEL 8
REMARK VINA RESULT:      -7.1      3.964      6.099
REMARK  Name = 
REMARK  3 active torsions:
REMARK  status: ('A' for Active; 'I' for Inactive)
REMARK    1  A    between atoms: S_2  and  C_4
REMARK    2  A    between atoms: S_2  and  N_9
REMARK    3  A    between atoms: N_12  and  C_13
REMARK                            x       y       z     vdW  Elec       q    Type
REMARK                         _______ _______ _______ _____ _____    ______ ____
ROOT
ATOM      1  N   UNL     1       5.356   5.597  16.224  0.00  0.00    +0.000 NA
ATOM      2  C   UNL     1       4.625   4.308  16.012  0.00  0.00    +0.000 C 
ATOM      3  C   UNL     1       4.341   3.568  17.338  0.00  0.00    +0.000 C 
ATOM      4  N   UNL     1       3.633   4.469  18.271  0.00  0.00    +0.000 N 
ATOM      5  C   UNL     1       4.413   5.693  18.564  0.00  0.00    +0.000 C 
ATOM      6  C   UNL     1       4.690   6.452  17.253  0.00  0.00    +0.000 C 
ENDROOT
BRANCH   4   7
ATOM      7  C   UNL     1       2.967   3.915  19.365  0.00  0.00    +0.000 A 
ATOM      8  C   UNL     1       3.599   3.126  20.336  0.00  0.00    +0.000 A 
ATOM      9  C   UNL     1       2.877   2.550  21.388  0.00  0.00    +0.000 A 
ATOM     10  C   UNL     1       1.504   2.751  21.478  0.00  0.00    +0.000 A 
ATOM     11 CL   UNL     1       0.614   2.032  22.763  0.00  0.00    +0.000 Cl
ATOM     12  C   UNL     1       0.848   3.527  20.530  0.00  0.00    +0.000 A 
ATOM     13  C   UNL     1       1.580   4.105  19.487  0.00  0.00    +0.000 A 
ENDBRANCH   4   7
BRANCH   1  15
ATOM     14  O   UNL     1       7.600   5.759  15.004  0.00  0.00    +0.000 OA
ATOM     15  S   UNL     1       7.044   5.490  16.314  0.00  0.00    +0.000 S 
ATOM     16  O   UNL     1       7.395   4.291  17.045  0.00  0.00    +0.000 OA
BRANCH  15  17
ATOM     17  C   UNL     1       7.659   6.783  17.319  0.00  0.00    +0.000 A 
ATOM     18  C   UNL     1       8.131   6.649  18.610  0.00  0.00    +0.000 A 
ATOM     19  N   UNL     1       8.454   7.918  19.008  0.00  0.00    +0.000 N 
ATOM     20  C   UNL     1       8.183   8.761  17.968  0.00  0.00    +0.000 A 
ATOM     21  N   UNL     1       7.717   8.113  16.923  0.00  0.00    +0.000 NA
ATOM     22  H   UNL     1       8.815   8.190  19.913  0.00  0.00    +0.000 HD
ENDBRANCH  15  17
ENDBRANCH   1  15
TORSDOF 3
ENDMDL
MODEL 9
REMARK VINA RESULT:      -7.1      2.967      4.640
REMARK  Name = 
REMARK  3 active torsions:
REMARK  status: ('A' for Active; 'I' for Inactive)
REMARK    1  A    between atoms: S_2  and  C_4
REMARK    2  A    between atoms: S_2  and  N_9
REMARK    3  A    between atoms: N_12  and  C_13
REMARK                            x       y       z     vdW  Elec       q    Type
REMARK                         _______ _______ _______ _____ _____    ______ ____
ROOT
ATOM      1  N   UNL     1       5.803   4.170  17.574  0.00  0.00    +0.000 NA
ATOM      2  C   UNL     1       5.472   4.384  19.019  0.00  0.00    +0.000 C 
ATOM      3  C   UNL     1       4.895   5.792  19.288  0.00  0.00    +0.000 C 
ATOM      4  N   UNL     1       3.735   6.034  18.404  0.00  0.00    +0.000 N 
ATOM      5  C   UNL     1       4.096   5.931  16.971  0.00  0.00    +0.000 C 
ATOM      6  C   UNL     1       4.658   4.526  16.683  0.00  0.00    +0.000 C 
ENDROOT
BRANCH   4   7
ATOM      7  C   UNL     1       2.854   7.068  18.720  0.00  0.00    +0.000 A 
ATOM      8  C   UNL     1       2.550   8.119  17.845  0.00  0.00    +0.000 A 
ATOM      9  C   UNL     1       1.697   9.162  18.228  0.00  0.00    +0.000 A 
ATOM     10  C   UNL     1       1.142   9.170  19.503  0.00  0.00    +0.000 A 
ATOM     11 CL   UNL     1       0.105  10.458  19.979  0.00  0.00    +0.000 Cl
ATOM     12  C   UNL     1       1.426   8.142  20.394  0.00  0.00    +0.000 A 
ATOM     13  C   UNL     1       2.272   7.101  19.999  0.00  0.00    +0.000 A 
ENDBRANCH   4   7
BRANCH   1  15
ATOM     14  O   UNL     1       7.382   4.690  15.628  0.00  0.00    +0.000 OA
ATOM     15  S   UNL     1       7.335   4.695  17.076  0.00  0.00    +0.000 S 
ATOM     16  O   UNL     1       8.339   4.008  17.861  0.00  0.00    +0.000 OA
BRANCH  15  17
ATOM     17  C   UNL     1       7.547   6.376  17.511  0.00  0.00    +0.000 A 
ATOM     18  C   UNL     1       7.105   7.462  16.782  0.00  0.00    +0.000 A 
ATOM     19  N   UNL     1       7.536   8.560  17.476  0.00  0.00    +0.000 N 
ATOM     20  C   UNL     1       8.202   8.117  18.583  0.00  0.00    +0.000 A 
ATOM     21  N   UNL     1       8.217   6.804  18.651  0.00  0.00    +0.000 NA
ATOM     22  H   UNL     1       7.401   9.527  17.213  0.00  0.00    +0.000 HD
ENDBRANCH  15  17
ENDBRANCH   1  15
TORSDOF 3
ENDMDL
