MODEL 1
REMARK VINA RESULT:      -8.4      0.000      0.000
REMARK  Name = 
REMARK  1 active torsions:
REMARK  status: ('A' for Active; 'I' for Inactive)
REMARK    1  A    between atoms: O_1  and  C_2
REMARK                            x       y       z     vdW  Elec       q    Type
REMARK                         _______ _______ _______ _____ _____    ______ ____
ROOT
ATOM      1  C   UNL     1       6.092   5.624  17.240  0.00  0.00    +0.000 A 
ATOM      2  C   UNL     1       6.574   5.356  16.030  0.00  0.00    +0.000 A 
ATOM      3  N   UNL     1       7.678   5.795  15.375  0.00  0.00    +0.000 NA
ATOM      4  N   UNL     1       7.714   5.247  14.228  0.00  0.00    +0.000 NA
ATOM      5  N   UNL     1       6.582   4.365  14.033  0.00  0.00    +0.000 NA
ATOM      6  C   UNL     1       5.916   4.455  15.140  0.00  0.00    +0.000 A 
ATOM      7  O   UNL     1       4.761   3.807  15.453  0.00  0.00    +0.000 OA
ATOM      8  C   UNL     1       4.229   4.071  16.735  0.00  0.00    +0.000 A 
ATOM      9  C   UNL     1       3.050   3.403  17.069  0.00  0.00    +0.000 A 
ATOM     10  C   UNL     1       2.465   3.604  18.327  0.00  0.00    +0.000 A 
ATOM     11  C   UNL     1       3.059   4.508  19.229  0.00  0.00    +0.000 A 
ATOM     12  C   UNL     1       4.253   5.163  18.879  0.00  0.00    +0.000 A 
ATOM     13  C   UNL     1       4.849   4.954  17.633  0.00  0.00    +0.000 A 
ATOM     14  C   UNL     1       2.483   4.751  20.603  0.00  0.00    +0.000 C 
ATOM     15  C   UNL     1       1.029   4.307  20.729  0.00  0.00    +0.000 C 
ATOM     16  C   UNL     1       0.859   2.904  20.161  0.00  0.00    +0.000 C 
ATOM     17  C   UNL     1       1.176   2.892  18.666  0.00  0.00    +0.000 C 
ENDROOT
BRANCH   1  18
ATOM     18  O   UNL     1       6.680   6.481  18.143  0.00  0.00    +0.000 OA
ATOM     19  H   UNL     1       5.984   6.804  18.744  0.00  0.00    +0.000 HD
ENDBRANCH   1  18
TORSDOF 1
ENDMDL
MODEL 2
REMARK VINA RESULT:      -7.9      1.053      1.053
REMARK  Name = 
REMARK  1 active torsions:
REMARK  status: ('A' for Active; 'I' for Inactive)
REMARK    1  A    between atoms: O_1  and  C_2
REMARK                            x       y       z     vdW  Elec       q    Type
REMARK                         _______ _______ _______ _____ _____    ______ ____
ROOT
ATOM      1  C   UNL     1       6.468   4.354  17.586  0.00  0.00    +0.000 A 
ATOM      2  C   UNL     1       6.730   4.615  16.309  0.00  0.00    +0.000 A 
ATOM      3  N   UNL     1       7.879   4.939  15.665  0.00  0.00    +0.000 NA
ATOM      4  N   UNL     1       7.623   5.094  14.430  0.00  0.00    +0.000 NA
ATOM      5  N   UNL     1       6.218   4.874  14.155  0.00  0.00    +0.000 NA
ATOM      6  C   UNL     1       5.710   4.587  15.311  0.00  0.00    +0.000 A 
ATOM      7  O   UNL     1       4.409   4.294  15.581  0.00  0.00    +0.000 OA
ATOM      8  C   UNL     1       4.104   4.008  16.931  0.00  0.00    +0.000 A 
ATOM      9  C   UNL     1       2.774   3.696  17.216  0.00  0.00    +0.000 A 
ATOM     10  C   UNL     1       2.395   3.391  18.530  0.00  0.00    +0.000 A 
ATOM     11  C   UNL     1       3.358   3.435  19.557  0.00  0.00    +0.000 A 
ATOM     12  C   UNL     1       4.696   3.740  19.248  0.00  0.00    +0.000 A 
ATOM     13  C   UNL     1       5.083   4.030  17.938  0.00  0.00    +0.000 A 
ATOM     14  C   UNL     1       3.010   3.099  20.987  0.00  0.00    +0.000 C 
ATOM     15  C   UNL     1       1.512   3.164  21.269  0.00  0.00    +0.000 C 
ATOM     16  C   UNL     1       0.744   2.411  20.190  0.00  0.00    +0.000 C 
ATOM     17  C   UNL     1       0.946   3.078  18.829  0.00  0.00    +0.000 C 
ENDROOT
BRANCH   1  18
ATOM     18  O   UNL     1       7.407   4.363  18.594  0.00  0.00    +0.000 OA
ATOM     19  H   UNL     1       7.068   4.928  19.312  0.00  0.00    +0.000 HD
ENDBRANCH   1  18
TORSDOF 1
ENDMDL
MODEL 3
REMARK VINA RESULT:      -7.4      0.924      2.444
REMARK  Name = 
REMARK  1 active torsions:
REMARK  status: ('A' for Active; 'I' for Inactive)
REMARK    1  A    between atoms: O_1  and  C_2
REMARK                            x       y       z     vdW  Elec       q    Type
REMARK                         _______ _______ _______ _____ _____    ______ ____
ROOT
ATOM      1  C   UNL     1       5.669   3.746  16.308  0.00  0.00    +0.000 A 
ATOM      2  C   UNL     1       6.534   4.710  16.009  0.00  0.00    +0.000 A 
ATOM      3  N   UNL     1       7.472   4.819  15.035  0.00  0.00    +0.000 NA
ATOM      4  N   UNL     1       8.057   5.941  15.158  0.00  0.00    +0.000 NA
ATOM      5  N   UNL     1       7.522   6.691  16.276  0.00  0.00    +0.000 NA
ATOM      6  C   UNL     1       6.606   5.918  16.767  0.00  0.00    +0.000 A 
ATOM      7  O   UNL     1       5.807   6.177  17.837  0.00  0.00    +0.000 OA
ATOM      8  C   UNL     1       4.874   5.170  18.173  0.00  0.00    +0.000 A 
ATOM      9  C   UNL     1       4.043   5.431  19.264  0.00  0.00    +0.000 A 
ATOM     10  C   UNL     1       3.085   4.485  19.654  0.00  0.00    +0.000 A 
ATOM     11  C   UNL     1       2.996   3.263  18.958  0.00  0.00    +0.000 A 
ATOM     12  C   UNL     1       3.834   3.023  17.855  0.00  0.00    +0.000 A 
ATOM     13  C   UNL     1       4.780   3.969  17.452  0.00  0.00    +0.000 A 
ATOM     14  C   UNL     1       1.972   2.215  19.323  0.00  0.00    +0.000 C 
ATOM     15  C   UNL     1       1.400   2.401  20.725  0.00  0.00    +0.000 C 
ATOM     16  C   UNL     1       0.988   3.853  20.933  0.00  0.00    +0.000 C 
ATOM     17  C   UNL     1       2.207   4.770  20.851  0.00  0.00    +0.000 C 
ENDROOT
BRANCH   1  18
ATOM     18  O   UNL     1       5.550   2.561  15.617  0.00  0.00    +0.000 OA
ATOM     19  H   UNL     1       4.888   2.692  14.913  0.00  0.00    +0.000 HD
ENDBRANCH   1  18
TORSDOF 1
ENDMDL
MODEL 4
REMARK VINA RESULT:      -7.2      2.246      2.504
REMARK  Name = 
REMARK  1 active torsions:
REMARK  status: ('A' for Active; 'I' for Inactive)
REMARK    1  A    between atoms: O_1  and  C_2
REMARK                            x       y       z     vdW  Elec       q    Type
REMARK                         _______ _______ _______ _____ _____    ______ ____
ROOT
ATOM      1  C   UNL     1       6.529   5.628  19.216  0.00  0.00    +0.000 A 
ATOM      2  C   UNL     1       6.972   6.568  18.387  0.00  0.00    +0.000 A 
ATOM      3  N   UNL     1       8.149   7.238  18.320  0.00  0.00    +0.000 NA
ATOM      4  N   UNL     1       8.100   8.049  17.342  0.00  0.00    +0.000 NA
ATOM      5  N   UNL     1       6.825   7.969  16.659  0.00  0.00    +0.000 NA
ATOM      6  C   UNL     1       6.169   7.066  17.317  0.00  0.00    +0.000 A 
ATOM      7  O   UNL     1       4.908   6.626  17.061  0.00  0.00    +0.000 OA
ATOM      8  C   UNL     1       4.414   5.622  17.926  0.00  0.00    +0.000 A 
ATOM      9  C   UNL     1       3.125   5.157  17.665  0.00  0.00    +0.000 A 
ATOM     10  C   UNL     1       2.568   4.155  18.472  0.00  0.00    +0.000 A 
ATOM     11  C   UNL     1       3.308   3.653  19.561  0.00  0.00    +0.000 A 
ATOM     12  C   UNL     1       4.610   4.126  19.800  0.00  0.00    +0.000 A 
ATOM     13  C   UNL     1       5.175   5.113  18.990  0.00  0.00    +0.000 A 
ATOM     14  C   UNL     1       2.765   2.562  20.453  0.00  0.00    +0.000 C 
ATOM     15  C   UNL     1       1.251   2.403  20.350  0.00  0.00    +0.000 C 
ATOM     16  C   UNL     1       0.828   2.356  18.888  0.00  0.00    +0.000 C 
ATOM     17  C   UNL     1       1.162   3.676  18.194  0.00  0.00    +0.000 C 
ENDROOT
BRANCH   1  18
ATOM     18  O   UNL     1       7.253   5.106  20.265  0.00  0.00    +0.000 OA
ATOM     19  H   UNL     1       7.265   5.769  20.979  0.00  0.00    +0.000 HD
ENDBRANCH   1  18
TORSDOF 1
ENDMDL
MODEL 5
REMARK VINA RESULT:      -7.1      2.169      2.964
REMARK  Name = 
REMARK  1 active torsions:
REMARK  status: ('A' for Active; 'I' for Inactive)
REMARK    1  A    between atoms: O_1  and  C_2
REMARK                            x       y       z     vdW  Elec       q    Type
REMARK                         _______ _______ _______ _____ _____    ______ ____
ROOT
ATOM      1  C   UNL     1       5.216   6.496  17.147  0.00  0.00    +0.000 A 
ATOM      2  C   UNL     1       6.438   6.856  17.529  0.00  0.00    +0.000 A 
ATOM      3  N   UNL     1       7.333   7.731  17.003  0.00  0.00    +0.000 NA
ATOM      4  N   UNL     1       8.374   7.733  17.732  0.00  0.00    +0.000 NA
ATOM      5  N   UNL     1       8.237   6.815  18.845  0.00  0.00    +0.000 NA
ATOM      6  C   UNL     1       7.056   6.304  18.690  0.00  0.00    +0.000 A 
ATOM      7  O   UNL     1       6.456   5.381  19.490  0.00  0.00    +0.000 OA
ATOM      8  C   UNL     1       5.154   4.984  19.109  0.00  0.00    +0.000 A 
ATOM      9  C   UNL     1       4.525   4.046  19.928  0.00  0.00    +0.000 A 
ATOM     10  C   UNL     1       3.229   3.609  19.622  0.00  0.00    +0.000 A 
ATOM     11  C   UNL     1       2.587   4.100  18.468  0.00  0.00    +0.000 A 
ATOM     12  C   UNL     1       3.233   5.054  17.662  0.00  0.00    +0.000 A 
ATOM     13  C   UNL     1       4.518   5.505  17.970  0.00  0.00    +0.000 A 
ATOM     14  C   UNL     1       1.185   3.679  18.100  0.00  0.00    +0.000 C 
ATOM     15  C   UNL     1       0.745   2.394  18.796  0.00  0.00    +0.000 C 
ATOM     16  C   UNL     1       1.060   2.472  20.285  0.00  0.00    +0.000 C 
ATOM     17  C   UNL     1       2.569   2.575  20.505  0.00  0.00    +0.000 C 
ENDROOT
BRANCH   1  18
ATOM     18  O   UNL     1       4.566   6.992  16.039  0.00  0.00    +0.000 OA
ATOM     19  H   UNL     1       5.234   7.399  15.458  0.00  0.00    +0.000 HD
ENDBRANCH   1  18
TORSDOF 1
ENDMDL
MODEL 6
REMARK VINA RESULT:      -7.1      5.350      6.721
REMARK  Name = 
REMARK  1 active torsions:
REMARK  status: ('A' for Active; 'I' for Inactive)
REMARK    1  A    between atoms: O_1  and  C_2
REMARK                            x       y       z     vdW  Elec       q    Type
REMARK                         _______ _______ _______ _____ _____    ______ ____
ROOT
ATOM      1  C   UNL     1       1.665   9.374  18.525  0.00  0.00    +0.000 A 
ATOM      2  C   UNL     1       0.890   9.628  19.575  0.00  0.00    +0.000 A 
ATOM      3  N   UNL     1       0.080  10.674  19.874  0.00  0.00    +0.000 NA
ATOM      4  N   UNL     1      -0.461  10.459  21.005  0.00  0.00    +0.000 NA
ATOM      5  N   UNL     1      -0.026   9.194  21.561  0.00  0.00    +0.000 NA
ATOM      6  C   UNL     1       0.788   8.720  20.671  0.00  0.00    +0.000 A 
ATOM      7  O   UNL     1       1.463   7.540  20.730  0.00  0.00    +0.000 OA
ATOM      8  C   UNL     1       2.292   7.244  19.624  0.00  0.00    +0.000 A 
ATOM      9  C   UNL     1       2.980   6.031  19.670  0.00  0.00    +0.000 A 
ATOM     10  C   UNL     1       3.815   5.661  18.606  0.00  0.00    +0.000 A 
ATOM     11  C   UNL     1       3.974   6.537  17.514  0.00  0.00    +0.000 A 
ATOM     12  C   UNL     1       3.262   7.750  17.481  0.00  0.00    +0.000 A 
ATOM     13  C   UNL     1       2.418   8.116  18.531  0.00  0.00    +0.000 A 
ATOM     14  C   UNL     1       4.845   6.183  16.334  0.00  0.00    +0.000 C 
ATOM     15  C   UNL     1       5.840   5.067  16.638  0.00  0.00    +0.000 C 
ATOM     16  C   UNL     1       5.132   3.909  17.329  0.00  0.00    +0.000 C 
ATOM     17  C   UNL     1       4.573   4.356  18.680  0.00  0.00    +0.000 C 
ENDROOT
BRANCH   1  18
ATOM     18  O   UNL     1       1.805  10.207  17.438  0.00  0.00    +0.000 OA
ATOM     19  H   UNL     1       1.476   9.731  16.653  0.00  0.00    +0.000 HD
ENDBRANCH   1  18
TORSDOF 1
ENDMDL
MODEL 7
REMARK VINA RESULT:      -7.1      4.071      6.390
REMARK  Name = 
REMARK  1 active torsions:
REMARK  status: ('A' for Active; 'I' for Inactive)
REMARK    1  A    between atoms: O_1  and  C_2
REMARK                            x       y       z     vdW  Elec       q    Type
REMARK                         _______ _______ _______ _____ _____    ______ ____
ROOT
ATOM      1  C   UNL     1       2.404   2.648  18.642  0.00  0.00    +0.000 A 
ATOM      2  C   UNL     1       2.097   2.804  19.926  0.00  0.00    +0.000 A 
ATOM      3  N   UNL     1       1.122   2.265  20.699  0.00  0.00    +0.000 NA
ATOM      4  N   UNL     1       1.237   2.725  21.878  0.00  0.00    +0.000 NA
ATOM      5  N   UNL     1       2.350   3.647  21.974  0.00  0.00    +0.000 NA
ATOM      6  C   UNL     1       2.846   3.670  20.778  0.00  0.00    +0.000 A 
ATOM      7  O   UNL     1       3.918   4.393  20.353  0.00  0.00    +0.000 OA
ATOM      8  C   UNL     1       4.268   4.241  18.992  0.00  0.00    +0.000 A 
ATOM      9  C   UNL     1       5.373   4.970  18.549  0.00  0.00    +0.000 A 
ATOM     10  C   UNL     1       5.789   4.866  17.215  0.00  0.00    +0.000 A 
ATOM     11  C   UNL     1       5.063   4.048  16.326  0.00  0.00    +0.000 A 
ATOM     12  C   UNL     1       3.960   3.312  16.794  0.00  0.00    +0.000 A 
ATOM     13  C   UNL     1       3.551   3.400  18.126  0.00  0.00    +0.000 A 
ATOM     14  C   UNL     1       5.476   3.884  14.883  0.00  0.00    +0.000 C 
ATOM     15  C   UNL     1       6.413   4.988  14.400  0.00  0.00    +0.000 C 
ATOM     16  C   UNL     1       7.537   5.198  15.406  0.00  0.00    +0.000 C 
ATOM     17  C   UNL     1       6.972   5.679  16.742  0.00  0.00    +0.000 C 
ENDROOT
BRANCH   1  18
ATOM     18  O   UNL     1       1.723   1.827  17.770  0.00  0.00    +0.000 OA
ATOM     19  H   UNL     1       2.278   1.045  17.602  0.00  0.00    +0.000 HD
ENDBRANCH   1  18
TORSDOF 1
ENDMDL
MODEL 8
REMARK VINA RESULT:      -7.0      2.884      3.497
REMARK  Name = 
REMARK  1 active torsions:
REMARK  status: ('A' for Active; 'I' for Inactive)
REMARK    1  A    between atoms: O_1  and  C_2
REMARK                            x       y       z     vdW  Elec       q    Type
REMARK                         _______ _______ _______ _____ _____    ______ ____
ROOT
ATOM      1  C   UNL     1       4.666   4.763  18.027  0.00  0.00    +0.000 A 
ATOM      2  C   UNL     1       5.377   4.780  16.904  0.00  0.00    +0.000 A 
ATOM      3  N   UNL     1       6.231   3.880  16.355  0.00  0.00    +0.000 NA
ATOM      4  N   UNL     1       6.669   4.352  15.259  0.00  0.00    +0.000 NA
ATOM      5  N   UNL     1       6.110   5.661  14.992  0.00  0.00    +0.000 NA
ATOM      6  C   UNL     1       5.335   5.888  16.005  0.00  0.00    +0.000 A 
ATOM      7  O   UNL     1       4.576   6.996  16.219  0.00  0.00    +0.000 OA
ATOM      8  C   UNL     1       3.806   7.001  17.405  0.00  0.00    +0.000 A 
ATOM      9  C   UNL     1       3.017   8.130  17.628  0.00  0.00    +0.000 A 
ATOM     10  C   UNL     1       2.217   8.206  18.778  0.00  0.00    +0.000 A 
ATOM     11  C   UNL     1       2.247   7.152  19.712  0.00  0.00    +0.000 A 
ATOM     12  C   UNL     1       3.041   6.018  19.463  0.00  0.00    +0.000 A 
ATOM     13  C   UNL     1       3.827   5.930  18.313  0.00  0.00    +0.000 A 
ATOM     14  C   UNL     1       1.395   7.172  20.958  0.00  0.00    +0.000 C 
ATOM     15  C   UNL     1       0.890   8.568  21.314  0.00  0.00    +0.000 C 
ATOM     16  C   UNL     1       0.304   9.243  20.081  0.00  0.00    +0.000 C 
ATOM     17  C   UNL     1       1.385   9.444  19.019  0.00  0.00    +0.000 C 
ENDROOT
BRANCH   1  18
ATOM     18  O   UNL     1       4.662   3.726  18.933  0.00  0.00    +0.000 OA
ATOM     19  H   UNL     1       5.379   3.885  19.573  0.00  0.00    +0.000 HD
ENDBRANCH   1  18
TORSDOF 1
ENDMDL
MODEL 9
REMARK VINA RESULT:      -7.0      1.104      2.703
REMARK  Name = 
REMARK  1 active torsions:
REMARK  status: ('A' for Active; 'I' for Inactive)
REMARK    1  A    between atoms: O_1  and  C_2
REMARK                            x       y       z     vdW  Elec       q    Type
REMARK                         _______ _______ _______ _____ _____    ______ ____
ROOT
ATOM      1  C   UNL     1       5.490   4.761  16.427  0.00  0.00    +0.000 A 
ATOM      2  C   UNL     1       6.448   5.657  16.645  0.00  0.00    +0.000 A 
ATOM      3  N   UNL     1       7.461   6.111  15.865  0.00  0.00    +0.000 NA
ATOM      4  N   UNL     1       8.121   6.977  16.521  0.00  0.00    +0.000 NA
ATOM      5  N   UNL     1       7.566   7.166  17.845  0.00  0.00    +0.000 NA
ATOM      6  C   UNL     1       6.557   6.353  17.885  0.00  0.00    +0.000 A 
ATOM      7  O   UNL     1       5.704   6.163  18.928  0.00  0.00    +0.000 OA
ATOM      8  C   UNL     1       4.673   5.218  18.720  0.00  0.00    +0.000 A 
ATOM      9  C   UNL     1       3.787   5.023  19.780  0.00  0.00    +0.000 A 
ATOM     10  C   UNL     1       2.731   4.110  19.649  0.00  0.00    +0.000 A 
ATOM     11  C   UNL     1       2.598   3.373  18.455  0.00  0.00    +0.000 A 
ATOM     12  C   UNL     1       3.495   3.593  17.394  0.00  0.00    +0.000 A 
ATOM     13  C   UNL     1       4.539   4.513  17.514  0.00  0.00    +0.000 A 
ATOM     14  C   UNL     1       1.472   2.390  18.251  0.00  0.00    +0.000 C 
ATOM     15  C   UNL     1       0.813   1.956  19.558  0.00  0.00    +0.000 C 
ATOM     16  C   UNL     1       0.502   3.174  20.417  0.00  0.00    +0.000 C 
ATOM     17  C   UNL     1       1.793   3.891  20.813  0.00  0.00    +0.000 C 
ENDROOT
BRANCH   1  18
ATOM     18  O   UNL     1       5.330   4.058  15.254  0.00  0.00    +0.000 OA
ATOM     19  H   UNL     1       5.409   3.109  15.461  0.00  0.00    +0.000 HD
ENDBRANCH   1  18
TORSDOF 1
ENDMDL
