MODEL 1
REMARK VINA RESULT:      -6.8      0.000      0.000
REMARK  Name = 
REMARK  24 active torsions:
REMARK  status: ('A' for Active; 'I' for Inactive)
REMARK    1  A    between atoms: C_1  and  C_2
REMARK    2  A    between atoms: C_2  and  C_3
REMARK    3  A    between atoms: C_3  and  C_4
REMARK    4  A    between atoms: C_4  and  N_5
REMARK    5  A    between atoms: C_6  and  C_8
REMARK    6  A    between atoms: C_8  and  C_9
REMARK    7  A    between atoms: C_8  and  C_10
REMARK    8  A    between atoms: C_10  and  C_11
REMARK    9  A    between atoms: C_11  and  O_12
REMARK   10  A    between atoms: C_11  and  C_13
REMARK   11  A    between atoms: C_13  and  C_14
REMARK   12  A    between atoms: C_13  and  N_18
REMARK   13  A    between atoms: C_14  and  C_15
REMARK   14  A    between atoms: C_15  and  C_16
REMARK   15  A    between atoms: C_15  and  C_17
REMARK   16  A    between atoms: C_19  and  C_21
REMARK   17  A    between atoms: C_21  and  C_22
REMARK   18  A    between atoms: C_21  and  N_23
REMARK   19  A    between atoms: N_23  and  C_24
REMARK   20  A    between atoms: C_25  and  C_27
REMARK   21  A    between atoms: C_27  and  C_28
REMARK   22  A    between atoms: C_28  and  C_29
REMARK   23  A    between atoms: C_29  and  C_30
REMARK   24  A    between atoms: C_29  and  C_31
REMARK                            x       y       z     vdW  Elec       q    Type
REMARK                         _______ _______ _______ _____ _____    ______ ____
ROOT
ATOM      1  C   UNL     1       2.766   5.546  19.392  0.00  0.00    +0.000 C 
ENDROOT
BRANCH   1   2
ATOM      2  N   UNL     1       2.658   6.955  19.810  0.00  0.00    +0.000 N 
ATOM      3  C   UNL     1       1.628   7.387  20.617  0.00  0.00    +0.000 C 
ATOM      4  O   UNL     1       0.791   6.594  21.073  0.00  0.00    +0.000 OA
ATOM      5  H   UNL     1       3.124   7.671  19.252  0.00  0.00    +0.000 HD
BRANCH   3   6
ATOM      6  C   UNL     1       1.431   8.912  20.804  0.00  0.00    +0.000 C 
ATOM      7  C   UNL     1       1.677   9.281  22.271  0.00  0.00    +0.000 C 
BRANCH   6   8
ATOM      8  N   UNL     1       0.228   9.538  20.197  0.00  0.00    +0.000 N 
ATOM      9  C   UNL     1      -0.810   9.990  21.118  0.00  0.00    +0.000 C 
ATOM     10  C   UNL     1       0.172   9.845  18.838  0.00  0.00    +0.000 C 
ATOM     11  O   UNL     1       1.153   9.708  18.107  0.00  0.00    +0.000 OA
BRANCH  10  12
ATOM     12  C   UNL     1      -1.124  10.479  18.324  0.00  0.00    +0.000 C 
BRANCH  12  13
ATOM     13  C   UNL     1      -1.732   9.810  17.085  0.00  0.00    +0.000 C 
BRANCH  13  14
ATOM     14  C   UNL     1      -2.572  10.733  16.176  0.00  0.00    +0.000 C 
ATOM     15  C   UNL     1      -2.890  10.107  14.818  0.00  0.00    +0.000 C 
ATOM     16  C   UNL     1      -3.887  11.096  16.878  0.00  0.00    +0.000 C 
ENDBRANCH  13  14
ENDBRANCH  12  13
ENDBRANCH  10  12
ENDBRANCH   6   8
ENDBRANCH   3   6
ENDBRANCH   1   2
BRANCH   1  17
ATOM     17  C   UNL     1       1.604   5.204  18.409  0.00  0.00    +0.000 C 
BRANCH  17  18
ATOM     18  C   UNL     1       1.193   3.714  18.302  0.00  0.00    +0.000 C 
ATOM     19  C   UNL     1       2.231   2.867  17.563  0.00  0.00    +0.000 C 
ATOM     20  C   UNL     1       0.910   3.100  19.671  0.00  0.00    +0.000 C 
ENDBRANCH  17  18
ENDBRANCH   1  17
BRANCH   1  21
ATOM     21  C   UNL     1       4.167   5.186  18.796  0.00  0.00    +0.000 C 
BRANCH  21  22
ATOM     22  O   UNL     1       5.204   5.485  19.740  0.00  0.00    +0.000 OA
ATOM     23  H   UNL     1       5.960   4.907  19.538  0.00  0.00    +0.000 HD
ENDBRANCH  21  22
BRANCH  21  24
ATOM     24  C   UNL     1       4.582   5.929  17.520  0.00  0.00    +0.000 C 
BRANCH  24  25
ATOM     25  C   UNL     1       5.759   5.225  16.802  0.00  0.00    +0.000 C 
ATOM     26  C   UNL     1       5.372   4.743  15.409  0.00  0.00    +0.000 C 
BRANCH  25  28
ATOM     27  N   UNL     1       7.147   6.826  17.963  0.00  0.00    +0.000 N 
ATOM     28  C   UNL     1       6.986   6.128  16.784  0.00  0.00    +0.000 C 
ATOM     29  O   UNL     1       7.758   6.211  15.837  0.00  0.00    +0.000 OA
ATOM     30  H   UNL     1       6.392   6.824  18.634  0.00  0.00    +0.000 HD
BRANCH  27  31
ATOM     31  C   UNL     1       8.236   7.756  18.160  0.00  0.00    +0.000 C 
BRANCH  31  32
ATOM     32  C   UNL     1       7.838   9.147  17.680  0.00  0.00    +0.000 C 
BRANCH  32  34
ATOM     33  C   UNL     1       9.268  10.028  19.546  0.00  0.00    +0.000 C 
ATOM     34  C   UNL     1       8.861  10.199  18.092  0.00  0.00    +0.000 C 
ENDBRANCH  32  34
ENDBRANCH  31  32
ENDBRANCH  27  31
ENDBRANCH  25  28
ENDBRANCH  24  25
ENDBRANCH  21  24
ENDBRANCH   1  21
TORSDOF 16
ENDMDL
MODEL 2
REMARK VINA RESULT:      -6.3      1.489      3.154
REMARK  Name = 
REMARK  24 active torsions:
REMARK  status: ('A' for Active; 'I' for Inactive)
REMARK    1  A    between atoms: C_1  and  C_2
REMARK    2  A    between atoms: C_2  and  C_3
REMARK    3  A    between atoms: C_3  and  C_4
REMARK    4  A    between atoms: C_4  and  N_5
REMARK    5  A    between atoms: C_6  and  C_8
REMARK    6  A    between atoms: C_8  and  C_9
REMARK    7  A    between atoms: C_8  and  C_10
REMARK    8  A    between atoms: C_10  and  C_11
REMARK    9  A    between atoms: C_11  and  O_12
REMARK   10  A    between atoms: C_11  and  C_13
REMARK   11  A    between atoms: C_13  and  C_14
REMARK   12  A    between atoms: C_13  and  N_18
REMARK   13  A    between atoms: C_14  and  C_15
REMARK   14  A    between atoms: C_15  and  C_16
REMARK   15  A    between atoms: C_15  and  C_17
REMARK   16  A    between atoms: C_19  and  C_21
REMARK   17  A    between atoms: C_21  and  C_22
REMARK   18  A    between atoms: C_21  and  N_23
REMARK   19  A    between atoms: N_23  and  C_24
REMARK   20  A    between atoms: C_25  and  C_27
REMARK   21  A    between atoms: C_27  and  C_28
REMARK   22  A    between atoms: C_28  and  C_29
REMARK   23  A    between atoms: C_29  and  C_30
REMARK   24  A    between atoms: C_29  and  C_31
REMARK                            x       y       z     vdW  Elec       q    Type
REMARK                         _______ _______ _______ _____ _____    ______ ____
ROOT
ATOM      1  C   UNL     1       3.146   5.251  19.404  0.00  0.00    +0.000 C 
ENDROOT
BRANCH   1   2
ATOM      2  N   UNL     1       3.050   6.659  19.829  0.00  0.00    +0.000 N 
ATOM      3  C   UNL     1       1.977   7.114  20.565  0.00  0.00    +0.000 C 
ATOM      4  O   UNL     1       1.088   6.343  20.953  0.00  0.00    +0.000 OA
ATOM      5  H   UNL     1       3.573   7.366  19.312  0.00  0.00    +0.000 HD
BRANCH   3   6
ATOM      6  C   UNL     1       1.812   8.643  20.754  0.00  0.00    +0.000 C 
ATOM      7  C   UNL     1       1.700   8.963  22.248  0.00  0.00    +0.000 C 
BRANCH   6   8
ATOM      8  N   UNL     1       0.829   9.348  19.890  0.00  0.00    +0.000 N 
ATOM      9  C   UNL     1      -0.331   9.930  20.558  0.00  0.00    +0.000 C 
ATOM     10  C   UNL     1       1.090   9.600  18.543  0.00  0.00    +0.000 C 
ATOM     11  O   UNL     1       2.184   9.345  18.042  0.00  0.00    +0.000 OA
BRANCH  10  12
ATOM     12  C   UNL     1      -0.002  10.325  17.750  0.00  0.00    +0.000 C 
BRANCH  12  13
ATOM     13  C   UNL     1      -1.250   9.489  17.443  0.00  0.00    +0.000 C 
BRANCH  13  14
ATOM     14  C   UNL     1      -2.482  10.286  16.964  0.00  0.00    +0.000 C 
ATOM     15  C   UNL     1      -2.696  10.205  15.452  0.00  0.00    +0.000 C 
ATOM     16  C   UNL     1      -3.741   9.772  17.674  0.00  0.00    +0.000 C 
ENDBRANCH  13  14
ENDBRANCH  12  13
ENDBRANCH  10  12
ENDBRANCH   6   8
ENDBRANCH   3   6
ENDBRANCH   1   2
BRANCH   1  17
ATOM     17  C   UNL     1       1.867   4.859  18.602  0.00  0.00    +0.000 C 
BRANCH  17  18
ATOM     18  C   UNL     1       1.157   3.545  19.014  0.00  0.00    +0.000 C 
ATOM     19  C   UNL     1       1.581   2.351  18.156  0.00  0.00    +0.000 C 
ATOM     20  C   UNL     1       1.373   3.218  20.490  0.00  0.00    +0.000 C 
ENDBRANCH  17  18
ENDBRANCH   1  17
BRANCH   1  21
ATOM     21  C   UNL     1       4.458   4.935  18.613  0.00  0.00    +0.000 C 
BRANCH  21  22
ATOM     22  O   UNL     1       4.759   3.534  18.683  0.00  0.00    +0.000 OA
ATOM     23  H   UNL     1       5.707   3.428  18.494  0.00  0.00    +0.000 HD
ENDBRANCH  21  22
BRANCH  21  24
ATOM     24  C   UNL     1       5.737   5.627  19.100  0.00  0.00    +0.000 C 
BRANCH  24  25
ATOM     25  C   UNL     1       6.503   6.304  17.937  0.00  0.00    +0.000 C 
ATOM     26  C   UNL     1       7.685   7.128  18.435  0.00  0.00    +0.000 C 
BRANCH  25  28
ATOM     27  N   UNL     1       6.745   5.719  15.606  0.00  0.00    +0.000 N 
ATOM     28  C   UNL     1       6.913   5.268  16.899  0.00  0.00    +0.000 C 
ATOM     29  O   UNL     1       7.364   4.164  17.177  0.00  0.00    +0.000 OA
ATOM     30  H   UNL     1       6.228   6.574  15.455  0.00  0.00    +0.000 HD
BRANCH  27  31
ATOM     31  C   UNL     1       7.056   4.895  14.460  0.00  0.00    +0.000 C 
BRANCH  31  32
ATOM     32  C   UNL     1       5.831   4.090  14.040  0.00  0.00    +0.000 C 
BRANCH  32  34
ATOM     33  C   UNL     1       6.996   4.130  11.817  0.00  0.00    +0.000 C 
ATOM     34  C   UNL     1       6.067   3.348  12.730  0.00  0.00    +0.000 C 
ENDBRANCH  32  34
ENDBRANCH  31  32
ENDBRANCH  27  31
ENDBRANCH  25  28
ENDBRANCH  24  25
ENDBRANCH  21  24
ENDBRANCH   1  21
TORSDOF 16
ENDMDL
MODEL 3
REMARK VINA RESULT:      -6.2      2.443      8.303
REMARK  Name = 
REMARK  24 active torsions:
REMARK  status: ('A' for Active; 'I' for Inactive)
REMARK    1  A    between atoms: C_1  and  C_2
REMARK    2  A    between atoms: C_2  and  C_3
REMARK    3  A    between atoms: C_3  and  C_4
REMARK    4  A    between atoms: C_4  and  N_5
REMARK    5  A    between atoms: C_6  and  C_8
REMARK    6  A    between atoms: C_8  and  C_9
REMARK    7  A    between atoms: C_8  and  C_10
REMARK    8  A    between atoms: C_10  and  C_11
REMARK    9  A    between atoms: C_11  and  O_12
REMARK   10  A    between atoms: C_11  and  C_13
REMARK   11  A    between atoms: C_13  and  C_14
REMARK   12  A    between atoms: C_13  and  N_18
REMARK   13  A    between atoms: C_14  and  C_15
REMARK   14  A    between atoms: C_15  and  C_16
REMARK   15  A    between atoms: C_15  and  C_17
REMARK   16  A    between atoms: C_19  and  C_21
REMARK   17  A    between atoms: C_21  and  C_22
REMARK   18  A    between atoms: C_21  and  N_23
REMARK   19  A    between atoms: N_23  and  C_24
REMARK   20  A    between atoms: C_25  and  C_27
REMARK   21  A    between atoms: C_27  and  C_28
REMARK   22  A    between atoms: C_28  and  C_29
REMARK   23  A    between atoms: C_29  and  C_30
REMARK   24  A    between atoms: C_29  and  C_31
REMARK                            x       y       z     vdW  Elec       q    Type
REMARK                         _______ _______ _______ _____ _____    ______ ____
ROOT
ATOM      1  C   UNL     1       2.203   6.461  19.548  0.00  0.00    +0.000 C 
ENDROOT
BRANCH   1   2
ATOM      2  N   UNL     1       3.518   6.228  18.924  0.00  0.00    +0.000 N 
ATOM      3  C   UNL     1       3.665   5.365  17.860  0.00  0.00    +0.000 C 
ATOM      4  O   UNL     1       2.687   4.802  17.347  0.00  0.00    +0.000 OA
ATOM      5  H   UNL     1       4.361   6.423  19.466  0.00  0.00    +0.000 HD
BRANCH   3   6
ATOM      6  C   UNL     1       5.099   4.974  17.425  0.00  0.00    +0.000 C 
ATOM      7  C   UNL     1       6.116   5.666  18.339  0.00  0.00    +0.000 C 
BRANCH   6   8
ATOM      8  N   UNL     1       5.426   5.028  15.976  0.00  0.00    +0.000 N 
ATOM      9  C   UNL     1       5.420   6.347  15.352  0.00  0.00    +0.000 C 
ATOM     10  C   UNL     1       5.892   3.907  15.291  0.00  0.00    +0.000 C 
ATOM     11  O   UNL     1       6.153   2.857  15.878  0.00  0.00    +0.000 OA
BRANCH  10  12
ATOM     12  C   UNL     1       6.186   4.080  13.797  0.00  0.00    +0.000 C 
BRANCH  12  13
ATOM     13  C   UNL     1       4.954   4.078  12.885  0.00  0.00    +0.000 C 
BRANCH  13  14
ATOM     14  C   UNL     1       5.126   3.345  11.537  0.00  0.00    +0.000 C 
ATOM     15  C   UNL     1       5.862   2.011  11.671  0.00  0.00    +0.000 C 
ATOM     16  C   UNL     1       3.751   3.095  10.903  0.00  0.00    +0.000 C 
ENDBRANCH  13  14
ENDBRANCH  12  13
ENDBRANCH  10  12
ENDBRANCH   6   8
ENDBRANCH   3   6
ENDBRANCH   1   2
BRANCH   1  17
ATOM     17  C   UNL     1       2.070   5.580  20.828  0.00  0.00    +0.000 C 
BRANCH  17  18
ATOM     18  C   UNL     1       2.000   4.046  20.620  0.00  0.00    +0.000 C 
ATOM     19  C   UNL     1       2.164   3.265  21.926  0.00  0.00    +0.000 C 
ATOM     20  C   UNL     1       0.706   3.622  19.928  0.00  0.00    +0.000 C 
ENDBRANCH  17  18
ENDBRANCH   1  17
BRANCH   1  21
ATOM     21  C   UNL     1       1.917   7.971  19.839  0.00  0.00    +0.000 C 
BRANCH  21  22
ATOM     22  O   UNL     1       0.953   8.103  20.892  0.00  0.00    +0.000 OA
ATOM     23  H   UNL     1       0.250   8.694  20.574  0.00  0.00    +0.000 HD
ENDBRANCH  21  22
BRANCH  21  24
ATOM     24  C   UNL     1       1.337   8.794  18.682  0.00  0.00    +0.000 C 
BRANCH  24  25
ATOM     25  C   UNL     1       1.216  10.294  19.048  0.00  0.00    +0.000 C 
ATOM     26  C   UNL     1       2.188  11.156  18.251  0.00  0.00    +0.000 C 
BRANCH  25  28
ATOM     27  N   UNL     1      -0.982   9.911  18.122  0.00  0.00    +0.000 N 
ATOM     28  C   UNL     1      -0.227  10.760  18.905  0.00  0.00    +0.000 C 
ATOM     29  O   UNL     1      -0.675  11.764  19.442  0.00  0.00    +0.000 OA
ATOM     30  H   UNL     1      -0.509   9.193  17.591  0.00  0.00    +0.000 HD
BRANCH  27  31
ATOM     31  C   UNL     1      -2.376  10.168  17.838  0.00  0.00    +0.000 C 
BRANCH  31  32
ATOM     32  C   UNL     1      -2.509  11.047  16.599  0.00  0.00    +0.000 C 
BRANCH  32  34
ATOM     33  C   UNL     1      -3.140  10.104  14.359  0.00  0.00    +0.000 C 
ATOM     34  C   UNL     1      -3.654  10.587  15.704  0.00  0.00    +0.000 C 
ENDBRANCH  32  34
ENDBRANCH  31  32
ENDBRANCH  27  31
ENDBRANCH  25  28
ENDBRANCH  24  25
ENDBRANCH  21  24
ENDBRANCH   1  21
TORSDOF 16
ENDMDL
MODEL 4
REMARK VINA RESULT:      -6.2      2.499      4.422
REMARK  Name = 
REMARK  24 active torsions:
REMARK  status: ('A' for Active; 'I' for Inactive)
REMARK    1  A    between atoms: C_1  and  C_2
REMARK    2  A    between atoms: C_2  and  C_3
REMARK    3  A    between atoms: C_3  and  C_4
REMARK    4  A    between atoms: C_4  and  N_5
REMARK    5  A    between atoms: C_6  and  C_8
REMARK    6  A    between atoms: C_8  and  C_9
REMARK    7  A    between atoms: C_8  and  C_10
REMARK    8  A    between atoms: C_10  and  C_11
REMARK    9  A    between atoms: C_11  and  O_12
REMARK   10  A    between atoms: C_11  and  C_13
REMARK   11  A    between atoms: C_13  and  C_14
REMARK   12  A    between atoms: C_13  and  N_18
REMARK   13  A    between atoms: C_14  and  C_15
REMARK   14  A    between atoms: C_15  and  C_16
REMARK   15  A    between atoms: C_15  and  C_17
REMARK   16  A    between atoms: C_19  and  C_21
REMARK   17  A    between atoms: C_21  and  C_22
REMARK   18  A    between atoms: C_21  and  N_23
REMARK   19  A    between atoms: N_23  and  C_24
REMARK   20  A    between atoms: C_25  and  C_27
REMARK   21  A    between atoms: C_27  and  C_28
REMARK   22  A    between atoms: C_28  and  C_29
REMARK   23  A    between atoms: C_29  and  C_30
REMARK   24  A    between atoms: C_29  and  C_31
REMARK                            x       y       z     vdW  Elec       q    Type
REMARK                         _______ _______ _______ _____ _____    ______ ____
ROOT
ATOM      1  C   UNL     1       3.036   6.119  19.002  0.00  0.00    +0.000 C 
ENDROOT
BRANCH   1   2
ATOM      2  N   UNL     1       2.333   7.366  18.651  0.00  0.00    +0.000 N 
ATOM      3  C   UNL     1       1.741   8.152  19.616  0.00  0.00    +0.000 C 
ATOM      4  O   UNL     1       1.834   7.873  20.821  0.00  0.00    +0.000 OA
ATOM      5  H   UNL     1       1.985   7.483  17.699  0.00  0.00    +0.000 HD
BRANCH   3   6
ATOM      6  C   UNL     1       0.806   9.299  19.157  0.00  0.00    +0.000 C 
ATOM      7  C   UNL     1       0.921   9.473  17.640  0.00  0.00    +0.000 C 
BRANCH   6   8
ATOM      8  N   UNL     1       0.828  10.566  19.934  0.00  0.00    +0.000 N 
ATOM      9  C   UNL     1       1.508  11.700  19.318  0.00  0.00    +0.000 C 
ATOM     10  C   UNL     1       0.082  10.718  21.102  0.00  0.00    +0.000 C 
ATOM     11  O   UNL     1      -0.705   9.851  21.480  0.00  0.00    +0.000 OA
BRANCH  10  12
ATOM     12  C   UNL     1       0.191  12.066  21.823  0.00  0.00    +0.000 C 
BRANCH  12  13
ATOM     13  C   UNL     1      -1.058  12.951  21.747  0.00  0.00    +0.000 C 
BRANCH  13  14
ATOM     14  C   UNL     1      -1.766  13.218  23.092  0.00  0.00    +0.000 C 
ATOM     15  C   UNL     1      -2.474  14.573  23.138  0.00  0.00    +0.000 C 
ATOM     16  C   UNL     1      -2.791  12.111  23.369  0.00  0.00    +0.000 C 
ENDBRANCH  13  14
ENDBRANCH  12  13
ENDBRANCH  10  12
ENDBRANCH   6   8
ENDBRANCH   3   6
ENDBRANCH   1   2
BRANCH   1  17
ATOM     17  C   UNL     1       2.033   4.925  18.961  0.00  0.00    +0.000 C 
BRANCH  17  18
ATOM     18  C   UNL     1       2.361   3.704  19.856  0.00  0.00    +0.000 C 
ATOM     19  C   UNL     1       2.091   3.970  21.339  0.00  0.00    +0.000 C 
ATOM     20  C   UNL     1       1.604   2.453  19.415  0.00  0.00    +0.000 C 
ENDBRANCH  17  18
ENDBRANCH   1  17
BRANCH   1  21
ATOM     21  C   UNL     1       4.302   5.857  18.122  0.00  0.00    +0.000 C 
BRANCH  21  22
ATOM     22  O   UNL     1       3.990   4.951  17.055  0.00  0.00    +0.000 OA
ATOM     23  H   UNL     1       4.826   4.561  16.746  0.00  0.00    +0.000 HD
ENDBRANCH  21  22
BRANCH  21  24
ATOM     24  C   UNL     1       5.508   5.221  18.825  0.00  0.00    +0.000 C 
BRANCH  24  25
ATOM     25  C   UNL     1       6.782   6.087  18.677  0.00  0.00    +0.000 C 
ATOM     26  C   UNL     1       7.928   5.569  19.538  0.00  0.00    +0.000 C 
BRANCH  25  28
ATOM     27  N   UNL     1       7.119   5.008  16.542  0.00  0.00    +0.000 N 
ATOM     28  C   UNL     1       7.170   6.214  17.210  0.00  0.00    +0.000 C 
ATOM     29  O   UNL     1       7.471   7.272  16.673  0.00  0.00    +0.000 OA
ATOM     30  H   UNL     1       7.014   4.160  17.083  0.00  0.00    +0.000 HD
BRANCH  27  31
ATOM     31  C   UNL     1       7.464   4.890  15.144  0.00  0.00    +0.000 C 
BRANCH  31  32
ATOM     32  C   UNL     1       6.202   4.845  14.289  0.00  0.00    +0.000 C 
BRANCH  32  34
ATOM     33  C   UNL     1       5.596   3.516  12.248  0.00  0.00    +0.000 C 
ATOM     34  C   UNL     1       5.957   3.452  13.722  0.00  0.00    +0.000 C 
ENDBRANCH  32  34
ENDBRANCH  31  32
ENDBRANCH  27  31
ENDBRANCH  25  28
ENDBRANCH  24  25
ENDBRANCH  21  24
ENDBRANCH   1  21
TORSDOF 16
ENDMDL
MODEL 5
REMARK VINA RESULT:      -6.1      2.298      3.260
REMARK  Name = 
REMARK  24 active torsions:
REMARK  status: ('A' for Active; 'I' for Inactive)
REMARK    1  A    between atoms: C_1  and  C_2
REMARK    2  A    between atoms: C_2  and  C_3
REMARK    3  A    between atoms: C_3  and  C_4
REMARK    4  A    between atoms: C_4  and  N_5
REMARK    5  A    between atoms: C_6  and  C_8
REMARK    6  A    between atoms: C_8  and  C_9
REMARK    7  A    between atoms: C_8  and  C_10
REMARK    8  A    between atoms: C_10  and  C_11
REMARK    9  A    between atoms: C_11  and  O_12
REMARK   10  A    between atoms: C_11  and  C_13
REMARK   11  A    between atoms: C_13  and  C_14
REMARK   12  A    between atoms: C_13  and  N_18
REMARK   13  A    between atoms: C_14  and  C_15
REMARK   14  A    between atoms: C_15  and  C_16
REMARK   15  A    between atoms: C_15  and  C_17
REMARK   16  A    between atoms: C_19  and  C_21
REMARK   17  A    between atoms: C_21  and  C_22
REMARK   18  A    between atoms: C_21  and  N_23
REMARK   19  A    between atoms: N_23  and  C_24
REMARK   20  A    between atoms: C_25  and  C_27
REMARK   21  A    between atoms: C_27  and  C_28
REMARK   22  A    between atoms: C_28  and  C_29
REMARK   23  A    between atoms: C_29  and  C_30
REMARK   24  A    between atoms: C_29  and  C_31
REMARK                            x       y       z     vdW  Elec       q    Type
REMARK                         _______ _______ _______ _____ _____    ______ ____
ROOT
ATOM      1  C   UNL     1       2.389   6.193  20.083  0.00  0.00    +0.000 C 
ENDROOT
BRANCH   1   2
ATOM      2  N   UNL     1       2.181   7.520  20.691  0.00  0.00    +0.000 N 
ATOM      3  C   UNL     1       0.956   7.891  21.202  0.00  0.00    +0.000 C 
ATOM      4  O   UNL     1       0.003   7.099  21.230  0.00  0.00    +0.000 OA
ATOM      5  H   UNL     1       2.813   8.280  20.440  0.00  0.00    +0.000 HD
BRANCH   3   6
ATOM      6  C   UNL     1       0.740   9.375  21.586  0.00  0.00    +0.000 C 
ATOM      7  C   UNL     1       0.590   9.492  23.106  0.00  0.00    +0.000 C 
BRANCH   6   8
ATOM      8  N   UNL     1      -0.248  10.160  20.801  0.00  0.00    +0.000 N 
ATOM      9  C   UNL     1      -1.055  11.124  21.541  0.00  0.00    +0.000 C 
ATOM     10  C   UNL     1      -0.275  10.113  19.407  0.00  0.00    +0.000 C 
ATOM     11  O   UNL     1       0.582   9.504  18.768  0.00  0.00    +0.000 OA
BRANCH  10  12
ATOM     12  C   UNL     1      -1.344  10.957  18.707  0.00  0.00    +0.000 C 
BRANCH  12  13
ATOM     13  C   UNL     1      -1.561  10.637  17.223  0.00  0.00    +0.000 C 
BRANCH  13  14
ATOM     14  C   UNL     1      -3.008  10.273  16.825  0.00  0.00    +0.000 C 
ATOM     15  C   UNL     1      -3.991  11.428  17.022  0.00  0.00    +0.000 C 
ATOM     16  C   UNL     1      -3.047   9.829  15.358  0.00  0.00    +0.000 C 
ENDBRANCH  13  14
ENDBRANCH  12  13
ENDBRANCH  10  12
ENDBRANCH   6   8
ENDBRANCH   3   6
ENDBRANCH   1   2
BRANCH   1  17
ATOM     17  C   UNL     1       1.062   5.375  20.151  0.00  0.00    +0.000 C 
BRANCH  17  18
ATOM     18  C   UNL     1       1.131   3.982  20.825  0.00  0.00    +0.000 C 
ATOM     19  C   UNL     1       0.788   2.843  19.862  0.00  0.00    +0.000 C 
ATOM     20  C   UNL     1       2.496   3.722  21.460  0.00  0.00    +0.000 C 
ENDBRANCH  17  18
ENDBRANCH   1  17
BRANCH   1  21
ATOM     21  C   UNL     1       2.965   6.263  18.631  0.00  0.00    +0.000 C 
BRANCH  21  22
ATOM     22  O   UNL     1       2.246   7.230  17.854  0.00  0.00    +0.000 OA
ATOM     23  H   UNL     1       1.355   7.309  18.236  0.00  0.00    +0.000 HD
ENDBRANCH  21  22
BRANCH  21  24
ATOM     24  C   UNL     1       2.895   4.974  17.802  0.00  0.00    +0.000 C 
BRANCH  24  25
ATOM     25  C   UNL     1       3.980   3.956  18.230  0.00  0.00    +0.000 C 
ATOM     26  C   UNL     1       3.682   2.553  17.714  0.00  0.00    +0.000 C 
BRANCH  25  28
ATOM     27  N   UNL     1       5.396   4.887  16.507  0.00  0.00    +0.000 N 
ATOM     28  C   UNL     1       5.361   4.447  17.815  0.00  0.00    +0.000 C 
ATOM     29  O   UNL     1       6.330   4.470  18.562  0.00  0.00    +0.000 OA
ATOM     30  H   UNL     1       4.603   4.694  15.911  0.00  0.00    +0.000 HD
BRANCH  27  31
ATOM     31  C   UNL     1       6.610   5.379  15.897  0.00  0.00    +0.000 C 
BRANCH  31  32
ATOM     32  C   UNL     1       6.964   4.542  14.673  0.00  0.00    +0.000 C 
BRANCH  32  34
ATOM     33  C   UNL     1       6.086   3.452  12.588  0.00  0.00    +0.000 C 
ATOM     34  C   UNL     1       5.719   4.109  13.908  0.00  0.00    +0.000 C 
ENDBRANCH  32  34
ENDBRANCH  31  32
ENDBRANCH  27  31
ENDBRANCH  25  28
ENDBRANCH  24  25
ENDBRANCH  21  24
ENDBRANCH   1  21
TORSDOF 16
ENDMDL
MODEL 6
REMARK VINA RESULT:      -6.1      2.849      4.625
REMARK  Name = 
REMARK  24 active torsions:
REMARK  status: ('A' for Active; 'I' for Inactive)
REMARK    1  A    between atoms: C_1  and  C_2
REMARK    2  A    between atoms: C_2  and  C_3
REMARK    3  A    between atoms: C_3  and  C_4
REMARK    4  A    between atoms: C_4  and  N_5
REMARK    5  A    between atoms: C_6  and  C_8
REMARK    6  A    between atoms: C_8  and  C_9
REMARK    7  A    between atoms: C_8  and  C_10
REMARK    8  A    between atoms: C_10  and  C_11
REMARK    9  A    between atoms: C_11  and  O_12
REMARK   10  A    between atoms: C_11  and  C_13
REMARK   11  A    between atoms: C_13  and  C_14
REMARK   12  A    between atoms: C_13  and  N_18
REMARK   13  A    between atoms: C_14  and  C_15
REMARK   14  A    between atoms: C_15  and  C_16
REMARK   15  A    between atoms: C_15  and  C_17
REMARK   16  A    between atoms: C_19  and  C_21
REMARK   17  A    between atoms: C_21  and  C_22
REMARK   18  A    between atoms: C_21  and  N_23
REMARK   19  A    between atoms: N_23  and  C_24
REMARK   20  A    between atoms: C_25  and  C_27
REMARK   21  A    between atoms: C_27  and  C_28
REMARK   22  A    between atoms: C_28  and  C_29
REMARK   23  A    between atoms: C_29  and  C_30
REMARK   24  A    between atoms: C_29  and  C_31
REMARK                            x       y       z     vdW  Elec       q    Type
REMARK                         _______ _______ _______ _____ _____    ______ ____
ROOT
ATOM      1  C   UNL     1       2.449   5.773  20.236  0.00  0.00    +0.000 C 
ENDROOT
BRANCH   1   2
ATOM      2  N   UNL     1       1.711   6.915  20.804  0.00  0.00    +0.000 N 
ATOM      3  C   UNL     1       1.582   8.100  20.113  0.00  0.00    +0.000 C 
ATOM      4  O   UNL     1       2.026   8.227  18.962  0.00  0.00    +0.000 OA
ATOM      5  H   UNL     1       1.588   6.967  21.815  0.00  0.00    +0.000 HD
BRANCH   3   6
ATOM      6  C   UNL     1       1.022   9.332  20.867  0.00  0.00    +0.000 C 
ATOM      7  C   UNL     1       0.025   8.868  21.933  0.00  0.00    +0.000 C 
BRANCH   6   8
ATOM      8  N   UNL     1       0.574  10.497  20.060  0.00  0.00    +0.000 N 
ATOM      9  C   UNL     1      -0.492  10.253  19.093  0.00  0.00    +0.000 C 
ATOM     10  C   UNL     1       1.016  11.791  20.337  0.00  0.00    +0.000 C 
ATOM     11  O   UNL     1       1.710  12.035  21.323  0.00  0.00    +0.000 OA
BRANCH  10  12
ATOM     12  C   UNL     1       0.494  12.910  19.431  0.00  0.00    +0.000 C 
BRANCH  12  13
ATOM     13  C   UNL     1       1.503  13.449  18.410  0.00  0.00    +0.000 C 
BRANCH  13  14
ATOM     14  C   UNL     1       1.908  14.927  18.592  0.00  0.00    +0.000 C 
ATOM     15  C   UNL     1       0.741  15.820  19.016  0.00  0.00    +0.000 C 
ATOM     16  C   UNL     1       3.024  15.034  19.639  0.00  0.00    +0.000 C 
ENDBRANCH  13  14
ENDBRANCH  12  13
ENDBRANCH  10  12
ENDBRANCH   6   8
ENDBRANCH   3   6
ENDBRANCH   1   2
BRANCH   1  17
ATOM     17  C   UNL     1       1.491   4.551  20.093  0.00  0.00    +0.000 C 
BRANCH  17  18
ATOM     18  C   UNL     1       2.068   3.160  20.460  0.00  0.00    +0.000 C 
ATOM     19  C   UNL     1       1.560   2.647  21.809  0.00  0.00    +0.000 C 
ATOM     20  C   UNL     1       1.784   2.121  19.377  0.00  0.00    +0.000 C 
ENDBRANCH  17  18
ENDBRANCH   1  17
BRANCH   1  21
ATOM     21  C   UNL     1       3.174   6.113  18.893  0.00  0.00    +0.000 C 
BRANCH  21  22
ATOM     22  O   UNL     1       2.452   5.565  17.782  0.00  0.00    +0.000 OA
ATOM     23  H   UNL     1       1.528   5.446  18.062  0.00  0.00    +0.000 HD
ENDBRANCH  21  22
BRANCH  21  24
ATOM     24  C   UNL     1       4.601   5.576  18.727  0.00  0.00    +0.000 C 
BRANCH  24  25
ATOM     25  C   UNL     1       5.165   5.866  17.315  0.00  0.00    +0.000 C 
ATOM     26  C   UNL     1       6.516   6.569  17.372  0.00  0.00    +0.000 C 
BRANCH  25  28
ATOM     27  N   UNL     1       6.028   4.700  15.383  0.00  0.00    +0.000 N 
ATOM     28  C   UNL     1       5.210   4.587  16.489  0.00  0.00    +0.000 C 
ATOM     29  O   UNL     1       4.608   3.563  16.783  0.00  0.00    +0.000 OA
ATOM     30  H   UNL     1       6.367   5.615  15.123  0.00  0.00    +0.000 HD
BRANCH  27  31
ATOM     31  C   UNL     1       6.207   3.612  14.448  0.00  0.00    +0.000 C 
BRANCH  31  32
ATOM     32  C   UNL     1       6.243   4.143  13.020  0.00  0.00    +0.000 C 
BRANCH  32  34
ATOM     33  C   UNL     1       5.807   2.137  11.575  0.00  0.00    +0.000 C 
ATOM     34  C   UNL     1       5.233   3.430  12.129  0.00  0.00    +0.000 C 
ENDBRANCH  32  34
ENDBRANCH  31  32
ENDBRANCH  27  31
ENDBRANCH  25  28
ENDBRANCH  24  25
ENDBRANCH  21  24
ENDBRANCH   1  21
TORSDOF 16
ENDMDL
MODEL 7
REMARK VINA RESULT:      -6.1      2.477      4.142
REMARK  Name = 
REMARK  24 active torsions:
REMARK  status: ('A' for Active; 'I' for Inactive)
REMARK    1  A    between atoms: C_1  and  C_2
REMARK    2  A    between atoms: C_2  and  C_3
REMARK    3  A    between atoms: C_3  and  C_4
REMARK    4  A    between atoms: C_4  and  N_5
REMARK    5  A    between atoms: C_6  and  C_8
REMARK    6  A    between atoms: C_8  and  C_9
REMARK    7  A    between atoms: C_8  and  C_10
REMARK    8  A    between atoms: C_10  and  C_11
REMARK    9  A    between atoms: C_11  and  O_12
REMARK   10  A    between atoms: C_11  and  C_13
REMARK   11  A    between atoms: C_13  and  C_14
REMARK   12  A    between atoms: C_13  and  N_18
REMARK   13  A    between atoms: C_14  and  C_15
REMARK   14  A    between atoms: C_15  and  C_16
REMARK   15  A    between atoms: C_15  and  C_17
REMARK   16  A    between atoms: C_19  and  C_21
REMARK   17  A    between atoms: C_21  and  C_22
REMARK   18  A    between atoms: C_21  and  N_23
REMARK   19  A    between atoms: N_23  and  C_24
REMARK   20  A    between atoms: C_25  and  C_27
REMARK   21  A    between atoms: C_27  and  C_28
REMARK   22  A    between atoms: C_28  and  C_29
REMARK   23  A    between atoms: C_29  and  C_30
REMARK   24  A    between atoms: C_29  and  C_31
REMARK                            x       y       z     vdW  Elec       q    Type
REMARK                         _______ _______ _______ _____ _____    ______ ____
ROOT
ATOM      1  C   UNL     1       2.952   6.458  18.702  0.00  0.00    +0.000 C 
ENDROOT
BRANCH   1   2
ATOM      2  N   UNL     1       2.398   7.800  18.446  0.00  0.00    +0.000 N 
ATOM      3  C   UNL     1       1.646   8.459  19.394  0.00  0.00    +0.000 C 
ATOM      4  O   UNL     1       1.463   7.975  20.521  0.00  0.00    +0.000 OA
ATOM      5  H   UNL     1       2.272   8.104  17.480  0.00  0.00    +0.000 HD
BRANCH   3   6
ATOM      6  C   UNL     1       0.887   9.740  18.969  0.00  0.00    +0.000 C 
ATOM      7  C   UNL     1       1.760  10.556  18.011  0.00  0.00    +0.000 C 
BRANCH   6   8
ATOM      8  N   UNL     1       0.215  10.535  20.030  0.00  0.00    +0.000 N 
ATOM      9  C   UNL     1       1.018  10.881  21.197  0.00  0.00    +0.000 C 
ATOM     10  C   UNL     1      -1.056  11.078  19.840  0.00  0.00    +0.000 C 
ATOM     11  O   UNL     1      -1.628  11.011  18.753  0.00  0.00    +0.000 OA
BRANCH  10  12
ATOM     12  C   UNL     1      -1.652  11.869  21.008  0.00  0.00    +0.000 C 
BRANCH  12  13
ATOM     13  C   UNL     1      -1.784  13.379  20.775  0.00  0.00    +0.000 C 
BRANCH  13  14
ATOM     14  C   UNL     1      -0.466  14.123  20.472  0.00  0.00    +0.000 C 
ATOM     15  C   UNL     1      -0.393  14.651  19.039  0.00  0.00    +0.000 C 
ATOM     16  C   UNL     1      -0.296  15.295  21.446  0.00  0.00    +0.000 C 
ENDBRANCH  13  14
ENDBRANCH  12  13
ENDBRANCH  10  12
ENDBRANCH   6   8
ENDBRANCH   3   6
ENDBRANCH   1   2
BRANCH   1  17
ATOM     17  C   UNL     1       1.848   5.383  18.456  0.00  0.00    +0.000 C 
BRANCH  17  18
ATOM     18  C   UNL     1       1.585   4.374  19.602  0.00  0.00    +0.000 C 
ATOM     19  C   UNL     1       1.601   2.921  19.124  0.00  0.00    +0.000 C 
ATOM     20  C   UNL     1       2.575   4.546  20.753  0.00  0.00    +0.000 C 
ENDBRANCH  17  18
ENDBRANCH   1  17
BRANCH   1  21
ATOM     21  C   UNL     1       4.254   6.163  17.888  0.00  0.00    +0.000 C 
BRANCH  21  22
ATOM     22  O   UNL     1       3.960   5.326  16.761  0.00  0.00    +0.000 OA
ATOM     23  H   UNL     1       3.002   5.157  16.763  0.00  0.00    +0.000 HD
ENDBRANCH  21  22
BRANCH  21  24
ATOM     24  C   UNL     1       5.376   5.427  18.631  0.00  0.00    +0.000 C 
BRANCH  24  25
ATOM     25  C   UNL     1       6.731   6.164  18.502  0.00  0.00    +0.000 C 
ATOM     26  C   UNL     1       7.781   5.599  19.451  0.00  0.00    +0.000 C 
BRANCH  25  28
ATOM     27  N   UNL     1       6.864   5.005  16.387  0.00  0.00    +0.000 N 
ATOM     28  C   UNL     1       7.199   6.166  17.053  0.00  0.00    +0.000 C 
ATOM     29  O   UNL     1       7.786   7.102  16.527  0.00  0.00    +0.000 OA
ATOM     30  H   UNL     1       6.520   4.221  16.924  0.00  0.00    +0.000 HD
BRANCH  27  31
ATOM     31  C   UNL     1       7.225   4.783  15.005  0.00  0.00    +0.000 C 
BRANCH  31  32
ATOM     32  C   UNL     1       6.133   3.990  14.294  0.00  0.00    +0.000 C 
BRANCH  32  34
ATOM     33  C   UNL     1       5.269   3.419  12.007  0.00  0.00    +0.000 C 
ATOM     34  C   UNL     1       6.505   3.695  12.846  0.00  0.00    +0.000 C 
ENDBRANCH  32  34
ENDBRANCH  31  32
ENDBRANCH  27  31
ENDBRANCH  25  28
ENDBRANCH  24  25
ENDBRANCH  21  24
ENDBRANCH   1  21
TORSDOF 16
ENDMDL
MODEL 8
REMARK VINA RESULT:      -6.0      2.709      4.661
REMARK  Name = 
REMARK  24 active torsions:
REMARK  status: ('A' for Active; 'I' for Inactive)
REMARK    1  A    between atoms: C_1  and  C_2
REMARK    2  A    between atoms: C_2  and  C_3
REMARK    3  A    between atoms: C_3  and  C_4
REMARK    4  A    between atoms: C_4  and  N_5
REMARK    5  A    between atoms: C_6  and  C_8
REMARK    6  A    between atoms: C_8  and  C_9
REMARK    7  A    between atoms: C_8  and  C_10
REMARK    8  A    between atoms: C_10  and  C_11
REMARK    9  A    between atoms: C_11  and  O_12
REMARK   10  A    between atoms: C_11  and  C_13
REMARK   11  A    between atoms: C_13  and  C_14
REMARK   12  A    between atoms: C_13  and  N_18
REMARK   13  A    between atoms: C_14  and  C_15
REMARK   14  A    between atoms: C_15  and  C_16
REMARK   15  A    between atoms: C_15  and  C_17
REMARK   16  A    between atoms: C_19  and  C_21
REMARK   17  A    between atoms: C_21  and  C_22
REMARK   18  A    between atoms: C_21  and  N_23
REMARK   19  A    between atoms: N_23  and  C_24
REMARK   20  A    between atoms: C_25  and  C_27
REMARK   21  A    between atoms: C_27  and  C_28
REMARK   22  A    between atoms: C_28  and  C_29
REMARK   23  A    between atoms: C_29  and  C_30
REMARK   24  A    between atoms: C_29  and  C_31
REMARK                            x       y       z     vdW  Elec       q    Type
REMARK                         _______ _______ _______ _____ _____    ______ ____
ROOT
ATOM      1  C   UNL     1       2.549   5.756  18.841  0.00  0.00    +0.000 C 
ENDROOT
BRANCH   1   2
ATOM      2  N   UNL     1       2.274   7.104  18.312  0.00  0.00    +0.000 N 
ATOM      3  C   UNL     1       1.765   8.100  19.118  0.00  0.00    +0.000 C 
ATOM      4  O   UNL     1       1.581   7.918  20.330  0.00  0.00    +0.000 OA
ATOM      5  H   UNL     1       2.131   7.219  17.309  0.00  0.00    +0.000 HD
BRANCH   3   6
ATOM      6  C   UNL     1       1.261   9.401  18.445  0.00  0.00    +0.000 C 
ATOM      7  C   UNL     1       2.461  10.244  18.004  0.00  0.00    +0.000 C 
BRANCH   6   8
ATOM      8  N   UNL     1       0.181  10.163  19.126  0.00  0.00    +0.000 N 
ATOM      9  C   UNL     1      -1.189   9.844  18.740  0.00  0.00    +0.000 C 
ATOM     10  C   UNL     1       0.451  11.003  20.206  0.00  0.00    +0.000 C 
ATOM     11  O   UNL     1       1.574  11.068  20.706  0.00  0.00    +0.000 OA
BRANCH  10  12
ATOM     12  C   UNL     1      -0.740  11.745  20.820  0.00  0.00    +0.000 C 
BRANCH  12  13
ATOM     13  C   UNL     1      -1.087  11.345  22.259  0.00  0.00    +0.000 C 
BRANCH  13  14
ATOM     14  C   UNL     1      -2.004  12.327  23.020  0.00  0.00    +0.000 C 
ATOM     15  C   UNL     1      -1.310  13.644  23.372  0.00  0.00    +0.000 C 
ATOM     16  C   UNL     1      -3.251  12.630  22.180  0.00  0.00    +0.000 C 
ENDBRANCH  13  14
ENDBRANCH  12  13
ENDBRANCH  10  12
ENDBRANCH   6   8
ENDBRANCH   3   6
ENDBRANCH   1   2
BRANCH   1  17
ATOM     17  C   UNL     1       1.617   4.720  18.141  0.00  0.00    +0.000 C 
BRANCH  17  18
ATOM     18  C   UNL     1       1.071   3.563  19.015  0.00  0.00    +0.000 C 
ATOM     19  C   UNL     1       1.863   2.265  18.838  0.00  0.00    +0.000 C 
ATOM     20  C   UNL     1       1.027   3.938  20.495  0.00  0.00    +0.000 C 
ENDBRANCH  17  18
ENDBRANCH   1  17
BRANCH   1  21
ATOM     21  C   UNL     1       4.057   5.351  18.743  0.00  0.00    +0.000 C 
BRANCH  21  22
ATOM     22  O   UNL     1       4.814   5.986  19.783  0.00  0.00    +0.000 OA
ATOM     23  H   UNL     1       5.611   5.451  19.934  0.00  0.00    +0.000 HD
ENDBRANCH  21  22
BRANCH  21  24
ATOM     24  C   UNL     1       4.787   5.732  17.449  0.00  0.00    +0.000 C 
BRANCH  24  25
ATOM     25  C   UNL     1       5.562   4.532  16.852  0.00  0.00    +0.000 C 
ATOM     26  C   UNL     1       4.678   3.299  16.703  0.00  0.00    +0.000 C 
BRANCH  25  28
ATOM     27  N   UNL     1       5.983   4.028  14.527  0.00  0.00    +0.000 N 
ATOM     28  C   UNL     1       6.228   4.930  15.541  0.00  0.00    +0.000 C 
ATOM     29  O   UNL     1       6.890   5.949  15.395  0.00  0.00    +0.000 OA
ATOM     30  H   UNL     1       5.561   3.140  14.761  0.00  0.00    +0.000 HD
BRANCH  27  31
ATOM     31  C   UNL     1       6.532   4.198  13.201  0.00  0.00    +0.000 C 
BRANCH  31  32
ATOM     32  C   UNL     1       5.846   3.254  12.219  0.00  0.00    +0.000 C 
BRANCH  32  34
ATOM     33  C   UNL     1       6.242   1.022  11.139  0.00  0.00    +0.000 C 
ATOM     34  C   UNL     1       6.853   2.367  11.496  0.00  0.00    +0.000 C 
ENDBRANCH  32  34
ENDBRANCH  31  32
ENDBRANCH  27  31
ENDBRANCH  25  28
ENDBRANCH  24  25
ENDBRANCH  21  24
ENDBRANCH   1  21
TORSDOF 16
ENDMDL
MODEL 9
REMARK VINA RESULT:      -6.0      1.717      3.175
REMARK  Name = 
REMARK  24 active torsions:
REMARK  status: ('A' for Active; 'I' for Inactive)
REMARK    1  A    between atoms: C_1  and  C_2
REMARK    2  A    between atoms: C_2  and  C_3
REMARK    3  A    between atoms: C_3  and  C_4
REMARK    4  A    between atoms: C_4  and  N_5
REMARK    5  A    between atoms: C_6  and  C_8
REMARK    6  A    between atoms: C_8  and  C_9
REMARK    7  A    between atoms: C_8  and  C_10
REMARK    8  A    between atoms: C_10  and  C_11
REMARK    9  A    between atoms: C_11  and  O_12
REMARK   10  A    between atoms: C_11  and  C_13
REMARK   11  A    between atoms: C_13  and  C_14
REMARK   12  A    between atoms: C_13  and  N_18
REMARK   13  A    between atoms: C_14  and  C_15
REMARK   14  A    between atoms: C_15  and  C_16
REMARK   15  A    between atoms: C_15  and  C_17
REMARK   16  A    between atoms: C_19  and  C_21
REMARK   17  A    between atoms: C_21  and  C_22
REMARK   18  A    between atoms: C_21  and  N_23
REMARK   19  A    between atoms: N_23  and  C_24
REMARK   20  A    between atoms: C_25  and  C_27
REMARK   21  A    between atoms: C_27  and  C_28
REMARK   22  A    between atoms: C_28  and  C_29
REMARK   23  A    between atoms: C_29  and  C_30
REMARK   24  A    between atoms: C_29  and  C_31
REMARK                            x       y       z     vdW  Elec       q    Type
REMARK                         _______ _______ _______ _____ _____    ______ ____
ROOT
ATOM      1  C   UNL     1       2.846   5.235  19.647  0.00  0.00    +0.000 C 
ENDROOT
BRANCH   1   2
ATOM      2  N   UNL     1       2.769   6.678  19.934  0.00  0.00    +0.000 N 
ATOM      3  C   UNL     1       1.742   7.207  20.685  0.00  0.00    +0.000 C 
ATOM      4  O   UNL     1       0.880   6.479  21.201  0.00  0.00    +0.000 OA
ATOM      5  H   UNL     1       3.258   7.329  19.319  0.00  0.00    +0.000 HD
BRANCH   3   6
ATOM      6  C   UNL     1       1.582   8.746  20.730  0.00  0.00    +0.000 C 
ATOM      7  C   UNL     1       1.743   9.234  22.174  0.00  0.00    +0.000 C 
BRANCH   6   8
ATOM      8  N   UNL     1       0.440   9.349  19.993  0.00  0.00    +0.000 N 
ATOM      9  C   UNL     1      -0.769   9.616  20.764  0.00  0.00    +0.000 C 
ATOM     10  C   UNL     1       0.578   9.805  18.682  0.00  0.00    +0.000 C 
ATOM     11  O   UNL     1       1.672   9.825  18.120  0.00  0.00    +0.000 OA
BRANCH  10  12
ATOM     12  C   UNL     1      -0.670  10.398  18.021  0.00  0.00    +0.000 C 
BRANCH  12  13
ATOM     13  C   UNL     1      -1.420   9.453  17.075  0.00  0.00    +0.000 C 
BRANCH  13  14
ATOM     14  C   UNL     1      -2.846   9.896  16.684  0.00  0.00    +0.000 C 
ATOM     15  C   UNL     1      -3.731  10.198  17.894  0.00  0.00    +0.000 C 
ATOM     16  C   UNL     1      -2.777  11.142  15.792  0.00  0.00    +0.000 C 
ENDBRANCH  13  14
ENDBRANCH  12  13
ENDBRANCH  10  12
ENDBRANCH   6   8
ENDBRANCH   3   6
ENDBRANCH   1   2
BRANCH   1  17
ATOM     17  C   UNL     1       1.489   4.749  19.050  0.00  0.00    +0.000 C 
BRANCH  17  18
ATOM     18  C   UNL     1       0.842   3.502  19.703  0.00  0.00    +0.000 C 
ATOM     19  C   UNL     1       0.819   2.291  18.767  0.00  0.00    +0.000 C 
ATOM     20  C   UNL     1       1.527   3.124  21.014  0.00  0.00    +0.000 C 
ENDBRANCH  17  18
ENDBRANCH   1  17
BRANCH   1  21
ATOM     21  C   UNL     1       4.061   4.850  18.740  0.00  0.00    +0.000 C 
BRANCH  21  22
ATOM     22  O   UNL     1       4.149   3.426  18.599  0.00  0.00    +0.000 OA
ATOM     23  H   UNL     1       4.090   3.039  19.489  0.00  0.00    +0.000 HD
ENDBRANCH  21  22
BRANCH  21  24
ATOM     24  C   UNL     1       5.449   5.274  19.236  0.00  0.00    +0.000 C 
BRANCH  24  25
ATOM     25  C   UNL     1       6.102   6.317  18.297  0.00  0.00    +0.000 C 
ATOM     26  C   UNL     1       7.621   6.192  18.272  0.00  0.00    +0.000 C 
BRANCH  25  28
ATOM     27  N   UNL     1       6.118   5.300  16.105  0.00  0.00    +0.000 N 
ATOM     28  C   UNL     1       5.490   6.233  16.904  0.00  0.00    +0.000 C 
ATOM     29  O   UNL     1       4.531   6.901  16.539  0.00  0.00    +0.000 OA
ATOM     30  H   UNL     1       6.991   4.902  16.421  0.00  0.00    +0.000 HD
BRANCH  27  31
ATOM     31  C   UNL     1       5.713   5.065  14.737  0.00  0.00    +0.000 C 
BRANCH  31  32
ATOM     32  C   UNL     1       6.177   3.688  14.277  0.00  0.00    +0.000 C 
BRANCH  32  34
ATOM     33  C   UNL     1       7.281   4.471  12.163  0.00  0.00    +0.000 C 
ATOM     34  C   UNL     1       6.202   3.582  12.757  0.00  0.00    +0.000 C 
ENDBRANCH  32  34
ENDBRANCH  31  32
ENDBRANCH  27  31
ENDBRANCH  25  28
ENDBRANCH  24  25
ENDBRANCH  21  24
ENDBRANCH   1  21
TORSDOF 16
ENDMDL
