MODEL 1
REMARK VINA RESULT:      -6.6      0.000      0.000
REMARK  Name = 
REMARK  8 active torsions:
REMARK  status: ('A' for Active; 'I' for Inactive)
REMARK    1  A    between atoms: C_1  and  C_2
REMARK    2  A    between atoms: C_6  and  O_7
REMARK    3  A    between atoms: O_7  and  C_8
REMARK    4  A    between atoms: C_8  and  C_9
REMARK    5  A    between atoms: C_9  and  O_10
REMARK    6  A    between atoms: C_9  and  C_11
REMARK    7  A    between atoms: C_11  and  N_12
REMARK    8  A    between atoms: C_16  and  C_17
REMARK                            x       y       z     vdW  Elec       q    Type
REMARK                         _______ _______ _______ _____ _____    ______ ____
ROOT
ATOM      1  C   UNL     1       7.484   5.595  18.725  0.00  0.00    +0.000 C 
ENDROOT
BRANCH   1   2
ATOM      2  O   UNL     1       8.116   4.352  18.397  0.00  0.00    +0.000 OA
ATOM      3  H   UNL     1       8.766   4.536  17.693  0.00  0.00    +0.000 HD
ENDBRANCH   1   2
BRANCH   1   4
ATOM      4  C   UNL     1       6.106   5.299  19.335  0.00  0.00    +0.000 C 
BRANCH   4   5
ATOM      5  O   UNL     1       5.703   3.986  18.922  0.00  0.00    +0.000 OA
BRANCH   5  11
ATOM      6  C   UNL     1       1.001   4.312  20.493  0.00  0.00    +0.000 C 
ATOM      7  C   UNL     1       2.026   3.871  19.491  0.00  0.00    +0.000 A 
ATOM      8  C   UNL     1       1.658   3.174  18.336  0.00  0.00    +0.000 A 
ATOM      9  C   UNL     1       2.631   2.771  17.421  0.00  0.00    +0.000 A 
ATOM     10  C   UNL     1       3.975   3.063  17.656  0.00  0.00    +0.000 A 
ATOM     11  C   UNL     1       4.358   3.758  18.805  0.00  0.00    +0.000 A 
ATOM     12  C   UNL     1       3.381   4.159  19.718  0.00  0.00    +0.000 A 
ENDBRANCH   5  11
ENDBRANCH   4   5
ENDBRANCH   1   4
BRANCH   1  13
ATOM     13  C   UNL     1       7.344   6.484  17.481  0.00  0.00    +0.000 C 
BRANCH  13  14
ATOM     14  N   UNL     1       6.716   5.817  16.354  0.00  0.00    +0.000 N 
ATOM     15  C   UNL     1       7.319   4.868  15.573  0.00  0.00    +0.000 A 
ATOM     16  C   UNL     1       6.345   4.449  14.699  0.00  0.00    +0.000 A 
ATOM     17  N   UNL     1       5.172   5.116  14.931  0.00  0.00    +0.000 NA
ATOM     18  C   UNL     1       5.412   5.935  15.932  0.00  0.00    +0.000 A 
ATOM     19  C   UNL     1       4.424   6.862  16.540  0.00  0.00    +0.000 C 
ENDBRANCH  13  14
ENDBRANCH   1  13
TORSDOF 6
ENDMDL
MODEL 2
REMARK VINA RESULT:      -6.4      2.481      5.298
REMARK  Name = 
REMARK  8 active torsions:
REMARK  status: ('A' for Active; 'I' for Inactive)
REMARK    1  A    between atoms: C_1  and  C_2
REMARK    2  A    between atoms: C_6  and  O_7
REMARK    3  A    between atoms: O_7  and  C_8
REMARK    4  A    between atoms: C_8  and  C_9
REMARK    5  A    between atoms: C_9  and  O_10
REMARK    6  A    between atoms: C_9  and  C_11
REMARK    7  A    between atoms: C_11  and  N_12
REMARK    8  A    between atoms: C_16  and  C_17
REMARK                            x       y       z     vdW  Elec       q    Type
REMARK                         _______ _______ _______ _____ _____    ______ ____
ROOT
ATOM      1  C   UNL     1       3.146   6.174  18.666  0.00  0.00    +0.000 C 
ENDROOT
BRANCH   1   2
ATOM      2  O   UNL     1       2.698   6.724  19.911  0.00  0.00    +0.000 OA
ATOM      3  H   UNL     1       2.515   5.975  20.509  0.00  0.00    +0.000 HD
ENDBRANCH   1   2
BRANCH   1   4
ATOM      4  C   UNL     1       3.427   7.327  17.692  0.00  0.00    +0.000 C 
BRANCH   4   5
ATOM      5  O   UNL     1       4.848   7.476  17.569  0.00  0.00    +0.000 OA
BRANCH   5  11
ATOM      6  C   UNL     1       5.774   4.159  13.988  0.00  0.00    +0.000 C 
ATOM      7  C   UNL     1       6.067   4.765  15.328  0.00  0.00    +0.000 A 
ATOM      8  C   UNL     1       7.098   4.274  16.135  0.00  0.00    +0.000 A 
ATOM      9  C   UNL     1       7.349   4.853  17.379  0.00  0.00    +0.000 A 
ATOM     10  C   UNL     1       6.571   5.924  17.822  0.00  0.00    +0.000 A 
ATOM     11  C   UNL     1       5.538   6.424  17.027  0.00  0.00    +0.000 A 
ATOM     12  C   UNL     1       5.291   5.843  15.783  0.00  0.00    +0.000 A 
ENDBRANCH   5  11
ENDBRANCH   4   5
ENDBRANCH   1   4
BRANCH   1  13
ATOM     13  C   UNL     1       2.097   5.217  18.082  0.00  0.00    +0.000 C 
BRANCH  13  14
ATOM     14  N   UNL     1       2.430   3.813  18.247  0.00  0.00    +0.000 N 
ATOM     15  C   UNL     1       3.374   3.143  17.515  0.00  0.00    +0.000 A 
ATOM     16  C   UNL     1       3.423   1.883  18.059  0.00  0.00    +0.000 A 
ATOM     17  N   UNL     1       2.539   1.773  19.099  0.00  0.00    +0.000 NA
ATOM     18  C   UNL     1       1.950   2.945  19.199  0.00  0.00    +0.000 A 
ATOM     19  C   UNL     1       0.912   3.302  20.200  0.00  0.00    +0.000 C 
ENDBRANCH  13  14
ENDBRANCH   1  13
TORSDOF 6
ENDMDL
MODEL 3
REMARK VINA RESULT:      -6.3      2.631      6.019
REMARK  Name = 
REMARK  8 active torsions:
REMARK  status: ('A' for Active; 'I' for Inactive)
REMARK    1  A    between atoms: C_1  and  C_2
REMARK    2  A    between atoms: C_6  and  O_7
REMARK    3  A    between atoms: O_7  and  C_8
REMARK    4  A    between atoms: C_8  and  C_9
REMARK    5  A    between atoms: C_9  and  O_10
REMARK    6  A    between atoms: C_9  and  C_11
REMARK    7  A    between atoms: C_11  and  N_12
REMARK    8  A    between atoms: C_16  and  C_17
REMARK                            x       y       z     vdW  Elec       q    Type
REMARK                         _______ _______ _______ _____ _____    ______ ____
ROOT
ATOM      1  C   UNL     1       4.924   4.024  17.779  0.00  0.00    +0.000 C 
ENDROOT
BRANCH   1   2
ATOM      2  O   UNL     1       6.234   3.977  18.357  0.00  0.00    +0.000 OA
ATOM      3  H   UNL     1       6.676   3.182  18.004  0.00  0.00    +0.000 HD
ENDBRANCH   1   2
BRANCH   1   4
ATOM      4  C   UNL     1       4.995   4.820  16.467  0.00  0.00    +0.000 C 
BRANCH   4   5
ATOM      5  O   UNL     1       6.352   4.806  16.004  0.00  0.00    +0.000 OA
BRANCH   5  11
ATOM      6  C   UNL     1       5.354   2.507  11.714  0.00  0.00    +0.000 C 
ATOM      7  C   UNL     1       6.130   3.502  12.524  0.00  0.00    +0.000 A 
ATOM      8  C   UNL     1       7.140   4.278  11.946  0.00  0.00    +0.000 A 
ATOM      9  C   UNL     1       7.850   5.194  12.722  0.00  0.00    +0.000 A 
ATOM     10  C   UNL     1       7.554   5.339  14.078  0.00  0.00    +0.000 A 
ATOM     11  C   UNL     1       6.550   4.572  14.669  0.00  0.00    +0.000 A 
ATOM     12  C   UNL     1       5.841   3.656  13.889  0.00  0.00    +0.000 A 
ENDBRANCH   5  11
ENDBRANCH   4   5
ENDBRANCH   1   4
BRANCH   1  13
ATOM     13  C   UNL     1       3.921   4.667  18.747  0.00  0.00    +0.000 C 
BRANCH  13  14
ATOM     14  N   UNL     1       2.678   3.927  18.877  0.00  0.00    +0.000 N 
ATOM     15  C   UNL     1       2.277   2.920  18.040  0.00  0.00    +0.000 A 
ATOM     16  C   UNL     1       1.106   2.449  18.581  0.00  0.00    +0.000 A 
ATOM     17  N   UNL     1       0.789   3.139  19.720  0.00  0.00    +0.000 NA
ATOM     18  C   UNL     1       1.747   4.025  19.886  0.00  0.00    +0.000 A 
ATOM     19  C   UNL     1       1.833   5.000  21.002  0.00  0.00    +0.000 C 
ENDBRANCH  13  14
ENDBRANCH   1  13
TORSDOF 6
ENDMDL
MODEL 4
REMARK VINA RESULT:      -6.3      1.998      3.521
REMARK  Name = 
REMARK  8 active torsions:
REMARK  status: ('A' for Active; 'I' for Inactive)
REMARK    1  A    between atoms: C_1  and  C_2
REMARK    2  A    between atoms: C_6  and  O_7
REMARK    3  A    between atoms: O_7  and  C_8
REMARK    4  A    between atoms: C_8  and  C_9
REMARK    5  A    between atoms: C_9  and  O_10
REMARK    6  A    between atoms: C_9  and  C_11
REMARK    7  A    between atoms: C_11  and  N_12
REMARK    8  A    between atoms: C_16  and  C_17
REMARK                            x       y       z     vdW  Elec       q    Type
REMARK                         _______ _______ _______ _____ _____    ______ ____
ROOT
ATOM      1  C   UNL     1       4.731   3.894  18.496  0.00  0.00    +0.000 C 
ENDROOT
BRANCH   1   2
ATOM      2  O   UNL     1       5.138   2.952  19.496  0.00  0.00    +0.000 OA
ATOM      3  H   UNL     1       4.857   2.069  19.192  0.00  0.00    +0.000 HD
ENDBRANCH   1   2
BRANCH   1   4
ATOM      4  C   UNL     1       3.480   3.351  17.790  0.00  0.00    +0.000 C 
BRANCH   4   5
ATOM      5  O   UNL     1       2.332   3.703  18.574  0.00  0.00    +0.000 OA
BRANCH   5  11
ATOM      6  C   UNL     1       2.526   8.600  17.758  0.00  0.00    +0.000 C 
ATOM      7  C   UNL     1       2.291   7.424  18.659  0.00  0.00    +0.000 A 
ATOM      8  C   UNL     1       1.936   7.598  20.001  0.00  0.00    +0.000 A 
ATOM      9  C   UNL     1       1.726   6.489  20.819  0.00  0.00    +0.000 A 
ATOM     10  C   UNL     1       1.870   5.201  20.301  0.00  0.00    +0.000 A 
ATOM     11  C   UNL     1       2.224   5.011  18.964  0.00  0.00    +0.000 A 
ATOM     12  C   UNL     1       2.433   6.124  18.148  0.00  0.00    +0.000 A 
ENDBRANCH   5  11
ENDBRANCH   4   5
ENDBRANCH   1   4
BRANCH   1  13
ATOM     13  C   UNL     1       5.859   4.140  17.484  0.00  0.00    +0.000 C 
BRANCH  13  14
ATOM     14  N   UNL     1       6.458   5.459  17.585  0.00  0.00    +0.000 N 
ATOM     15  C   UNL     1       7.477   5.791  18.437  0.00  0.00    +0.000 A 
ATOM     16  C   UNL     1       7.788   7.094  18.136  0.00  0.00    +0.000 A 
ATOM     17  N   UNL     1       6.990   7.558  17.125  0.00  0.00    +0.000 NA
ATOM     18  C   UNL     1       6.195   6.560  16.803  0.00  0.00    +0.000 A 
ATOM     19  C   UNL     1       5.156   6.596  15.743  0.00  0.00    +0.000 C 
ENDBRANCH  13  14
ENDBRANCH   1  13
TORSDOF 6
ENDMDL
MODEL 5
REMARK VINA RESULT:      -6.3      1.433      2.199
REMARK  Name = 
REMARK  8 active torsions:
REMARK  status: ('A' for Active; 'I' for Inactive)
REMARK    1  A    between atoms: C_1  and  C_2
REMARK    2  A    between atoms: C_6  and  O_7
REMARK    3  A    between atoms: O_7  and  C_8
REMARK    4  A    between atoms: C_8  and  C_9
REMARK    5  A    between atoms: C_9  and  O_10
REMARK    6  A    between atoms: C_9  and  C_11
REMARK    7  A    between atoms: C_11  and  N_12
REMARK    8  A    between atoms: C_16  and  C_17
REMARK                            x       y       z     vdW  Elec       q    Type
REMARK                         _______ _______ _______ _____ _____    ______ ____
ROOT
ATOM      1  C   UNL     1       4.190   5.791  18.649  0.00  0.00    +0.000 C 
ENDROOT
BRANCH   1   2
ATOM      2  O   UNL     1       3.488   6.554  19.638  0.00  0.00    +0.000 OA
ATOM      3  H   UNL     1       4.113   6.726  20.367  0.00  0.00    +0.000 HD
ENDBRANCH   1   2
BRANCH   1   4
ATOM      4  C   UNL     1       5.415   5.141  19.309  0.00  0.00    +0.000 C 
BRANCH   4   5
ATOM      5  O   UNL     1       5.314   3.720  19.146  0.00  0.00    +0.000 OA
BRANCH   5  11
ATOM      6  C   UNL     1       1.220   2.519  21.692  0.00  0.00    +0.000 C 
ATOM      7  C   UNL     1       2.022   2.543  20.424  0.00  0.00    +0.000 A 
ATOM      8  C   UNL     1       1.526   1.984  19.243  0.00  0.00    +0.000 A 
ATOM      9  C   UNL     1       2.293   2.016  18.078  0.00  0.00    +0.000 A 
ATOM     10  C   UNL     1       3.557   2.607  18.089  0.00  0.00    +0.000 A 
ATOM     11  C   UNL     1       4.066   3.169  19.261  0.00  0.00    +0.000 A 
ATOM     12  C   UNL     1       3.295   3.135  20.425  0.00  0.00    +0.000 A 
ENDBRANCH   5  11
ENDBRANCH   4   5
ENDBRANCH   1   4
BRANCH   1  13
ATOM     13  C   UNL     1       4.618   6.681  17.474  0.00  0.00    +0.000 C 
BRANCH  13  14
ATOM     14  N   UNL     1       5.635   6.082  16.627  0.00  0.00    +0.000 N 
ATOM     15  C   UNL     1       5.392   5.148  15.655  0.00  0.00    +0.000 A 
ATOM     16  C   UNL     1       6.607   4.934  15.051  0.00  0.00    +0.000 A 
ATOM     17  N   UNL     1       7.575   5.712  15.627  0.00  0.00    +0.000 NA
ATOM     18  C   UNL     1       6.972   6.399  16.574  0.00  0.00    +0.000 A 
ATOM     19  C   UNL     1       7.627   7.388  17.467  0.00  0.00    +0.000 C 
ENDBRANCH  13  14
ENDBRANCH   1  13
TORSDOF 6
ENDMDL
MODEL 6
REMARK VINA RESULT:      -6.2      2.642      5.384
REMARK  Name = 
REMARK  8 active torsions:
REMARK  status: ('A' for Active; 'I' for Inactive)
REMARK    1  A    between atoms: C_1  and  C_2
REMARK    2  A    between atoms: C_6  and  O_7
REMARK    3  A    between atoms: O_7  and  C_8
REMARK    4  A    between atoms: C_8  and  C_9
REMARK    5  A    between atoms: C_9  and  O_10
REMARK    6  A    between atoms: C_9  and  C_11
REMARK    7  A    between atoms: C_11  and  N_12
REMARK    8  A    between atoms: C_16  and  C_17
REMARK                            x       y       z     vdW  Elec       q    Type
REMARK                         _______ _______ _______ _____ _____    ______ ____
ROOT
ATOM      1  C   UNL     1       2.870   6.095  19.815  0.00  0.00    +0.000 C 
ENDROOT
BRANCH   1   2
ATOM      2  O   UNL     1       2.199   7.237  20.360  0.00  0.00    +0.000 OA
ATOM      3  H   UNL     1       1.247   7.026  20.390  0.00  0.00    +0.000 HD
ENDBRANCH   1   2
BRANCH   1   4
ATOM      4  C   UNL     1       2.828   6.185  18.282  0.00  0.00    +0.000 C 
BRANCH   4   5
ATOM      5  O   UNL     1       4.020   6.847  17.837  0.00  0.00    +0.000 OA
BRANCH   5  11
ATOM      6  C   UNL     1       6.071   4.036  14.291  0.00  0.00    +0.000 C 
ATOM      7  C   UNL     1       6.101   4.668  15.652  0.00  0.00    +0.000 A 
ATOM      8  C   UNL     1       7.185   4.480  16.515  0.00  0.00    +0.000 A 
ATOM      9  C   UNL     1       7.186   5.075  17.776  0.00  0.00    +0.000 A 
ATOM     10  C   UNL     1       6.105   5.861  18.180  0.00  0.00    +0.000 A 
ATOM     11  C   UNL     1       5.016   6.057  17.329  0.00  0.00    +0.000 A 
ATOM     12  C   UNL     1       5.018   5.459  16.068  0.00  0.00    +0.000 A 
ENDBRANCH   5  11
ENDBRANCH   4   5
ENDBRANCH   1   4
BRANCH   1  13
ATOM     13  C   UNL     1       2.216   4.793  20.297  0.00  0.00    +0.000 C 
BRANCH  13  14
ATOM     14  N   UNL     1       2.786   3.596  19.704  0.00  0.00    +0.000 N 
ATOM     15  C   UNL     1       4.105   3.236  19.786  0.00  0.00    +0.000 A 
ATOM     16  C   UNL     1       4.181   2.010  19.173  0.00  0.00    +0.000 A 
ATOM     17  N   UNL     1       2.949   1.617  18.726  0.00  0.00    +0.000 NA
ATOM     18  C   UNL     1       2.119   2.584  19.055  0.00  0.00    +0.000 A 
ATOM     19  C   UNL     1       0.660   2.596  18.778  0.00  0.00    +0.000 C 
ENDBRANCH  13  14
ENDBRANCH   1  13
TORSDOF 6
ENDMDL
MODEL 7
REMARK VINA RESULT:      -6.2      2.799      4.082
REMARK  Name = 
REMARK  8 active torsions:
REMARK  status: ('A' for Active; 'I' for Inactive)
REMARK    1  A    between atoms: C_1  and  C_2
REMARK    2  A    between atoms: C_6  and  O_7
REMARK    3  A    between atoms: O_7  and  C_8
REMARK    4  A    between atoms: C_8  and  C_9
REMARK    5  A    between atoms: C_9  and  O_10
REMARK    6  A    between atoms: C_9  and  C_11
REMARK    7  A    between atoms: C_11  and  N_12
REMARK    8  A    between atoms: C_16  and  C_17
REMARK                            x       y       z     vdW  Elec       q    Type
REMARK                         _______ _______ _______ _____ _____    ______ ____
ROOT
ATOM      1  C   UNL     1       4.371   4.216  19.070  0.00  0.00    +0.000 C 
ENDROOT
BRANCH   1   2
ATOM      2  O   UNL     1       4.343   2.988  19.806  0.00  0.00    +0.000 OA
ATOM      3  H   UNL     1       3.467   2.583  19.660  0.00  0.00    +0.000 HD
ENDBRANCH   1   2
BRANCH   1   4
ATOM      4  C   UNL     1       2.949   4.795  19.025  0.00  0.00    +0.000 C 
BRANCH   4   5
ATOM      5  O   UNL     1       2.846   5.815  20.027  0.00  0.00    +0.000 OA
BRANCH   5  11
ATOM      6  C   UNL     1       0.356  10.038  20.832  0.00  0.00    +0.000 C 
ATOM      7  C   UNL     1       1.127   9.115  19.935  0.00  0.00    +0.000 A 
ATOM      8  C   UNL     1       1.369   9.440  18.597  0.00  0.00    +0.000 A 
ATOM      9  C   UNL     1       2.085   8.563  17.783  0.00  0.00    +0.000 A 
ATOM     10  C   UNL     1       2.562   7.358  18.302  0.00  0.00    +0.000 A 
ATOM     11  C   UNL     1       2.327   7.020  19.635  0.00  0.00    +0.000 A 
ATOM     12  C   UNL     1       1.610   7.901  20.447  0.00  0.00    +0.000 A 
ENDBRANCH   5  11
ENDBRANCH   4   5
ENDBRANCH   1   4
BRANCH   1  13
ATOM     13  C   UNL     1       4.908   3.991  17.649  0.00  0.00    +0.000 C 
BRANCH  13  14
ATOM     14  N   UNL     1       5.875   4.988  17.224  0.00  0.00    +0.000 N 
ATOM     15  C   UNL     1       6.346   6.004  18.012  0.00  0.00    +0.000 A 
ATOM     16  C   UNL     1       7.295   6.639  17.249  0.00  0.00    +0.000 A 
ATOM     17  N   UNL     1       7.414   6.035  16.026  0.00  0.00    +0.000 NA
ATOM     18  C   UNL     1       6.552   5.041  16.028  0.00  0.00    +0.000 A 
ATOM     19  C   UNL     1       6.330   4.094  14.906  0.00  0.00    +0.000 C 
ENDBRANCH  13  14
ENDBRANCH   1  13
TORSDOF 6
ENDMDL
MODEL 8
REMARK VINA RESULT:      -6.1      3.257      5.409
REMARK  Name = 
REMARK  8 active torsions:
REMARK  status: ('A' for Active; 'I' for Inactive)
REMARK    1  A    between atoms: C_1  and  C_2
REMARK    2  A    between atoms: C_6  and  O_7
REMARK    3  A    between atoms: O_7  and  C_8
REMARK    4  A    between atoms: C_8  and  C_9
REMARK    5  A    between atoms: C_9  and  O_10
REMARK    6  A    between atoms: C_9  and  C_11
REMARK    7  A    between atoms: C_11  and  N_12
REMARK    8  A    between atoms: C_16  and  C_17
REMARK                            x       y       z     vdW  Elec       q    Type
REMARK                         _______ _______ _______ _____ _____    ______ ____
ROOT
ATOM      1  C   UNL     1       4.305   3.042  17.766  0.00  0.00    +0.000 C 
ENDROOT
BRANCH   1   2
ATOM      2  O   UNL     1       5.350   3.520  18.621  0.00  0.00    +0.000 OA
ATOM      3  H   UNL     1       4.948   3.712  19.489  0.00  0.00    +0.000 HD
ENDBRANCH   1   2
BRANCH   1   4
ATOM      4  C   UNL     1       3.369   4.213  17.433  0.00  0.00    +0.000 C 
BRANCH   4   5
ATOM      5  O   UNL     1       4.023   5.434  17.805  0.00  0.00    +0.000 OA
BRANCH   5  11
ATOM      6  C   UNL     1       1.841   9.896  17.914  0.00  0.00    +0.000 C 
ATOM      7  C   UNL     1       2.141   8.561  18.531  0.00  0.00    +0.000 A 
ATOM      8  C   UNL     1       1.631   8.212  19.786  0.00  0.00    +0.000 A 
ATOM      9  C   UNL     1       1.927   6.967  20.339  0.00  0.00    +0.000 A 
ATOM     10  C   UNL     1       2.733   6.065  19.642  0.00  0.00    +0.000 A 
ATOM     11  C   UNL     1       3.250   6.400  18.389  0.00  0.00    +0.000 A 
ATOM     12  C   UNL     1       2.951   7.647  17.839  0.00  0.00    +0.000 A 
ENDBRANCH   5  11
ENDBRANCH   4   5
ENDBRANCH   1   4
BRANCH   1  13
ATOM     13  C   UNL     1       3.526   1.902  18.438  0.00  0.00    +0.000 C 
BRANCH  13  14
ATOM     14  N   UNL     1       2.830   2.304  19.648  0.00  0.00    +0.000 N 
ATOM     15  C   UNL     1       3.439   2.593  20.839  0.00  0.00    +0.000 A 
ATOM     16  C   UNL     1       2.426   3.009  21.668  0.00  0.00    +0.000 A 
ATOM     17  N   UNL     1       1.225   2.982  21.013  0.00  0.00    +0.000 NA
ATOM     18  C   UNL     1       1.486   2.556  19.795  0.00  0.00    +0.000 A 
ATOM     19  C   UNL     1       0.484   2.372  18.716  0.00  0.00    +0.000 C 
ENDBRANCH  13  14
ENDBRANCH   1  13
TORSDOF 6
ENDMDL
MODEL 9
REMARK VINA RESULT:      -6.1      3.392      5.262
REMARK  Name = 
REMARK  8 active torsions:
REMARK  status: ('A' for Active; 'I' for Inactive)
REMARK    1  A    between atoms: C_1  and  C_2
REMARK    2  A    between atoms: C_6  and  O_7
REMARK    3  A    between atoms: O_7  and  C_8
REMARK    4  A    between atoms: C_8  and  C_9
REMARK    5  A    between atoms: C_9  and  O_10
REMARK    6  A    between atoms: C_9  and  C_11
REMARK    7  A    between atoms: C_11  and  N_12
REMARK    8  A    between atoms: C_16  and  C_17
REMARK                            x       y       z     vdW  Elec       q    Type
REMARK                         _______ _______ _______ _____ _____    ______ ____
ROOT
ATOM      1  C   UNL     1       4.747   4.293  18.090  0.00  0.00    +0.000 C 
ENDROOT
BRANCH   1   2
ATOM      2  O   UNL     1       6.122   3.970  17.851  0.00  0.00    +0.000 OA
ATOM      3  H   UNL     1       6.255   3.045  18.133  0.00  0.00    +0.000 HD
ENDBRANCH   1   2
BRANCH   1   4
ATOM      4  C   UNL     1       4.616   5.819  18.211  0.00  0.00    +0.000 C 
BRANCH   4   5
ATOM      5  O   UNL     1       3.321   6.200  17.728  0.00  0.00    +0.000 OA
BRANCH   5  11
ATOM      6  C   UNL     1       0.993  10.540  18.383  0.00  0.00    +0.000 C 
ATOM      7  C   UNL     1       1.461   9.208  18.890  0.00  0.00    +0.000 A 
ATOM      8  C   UNL     1       1.204   8.801  20.203  0.00  0.00    +0.000 A 
ATOM      9  C   UNL     1       1.653   7.558  20.650  0.00  0.00    +0.000 A 
ATOM     10  C   UNL     1       2.359   6.718  19.789  0.00  0.00    +0.000 A 
ATOM     11  C   UNL     1       2.623   7.110  18.476  0.00  0.00    +0.000 A 
ATOM     12  C   UNL     1       2.172   8.354  18.031  0.00  0.00    +0.000 A 
ENDBRANCH   5  11
ENDBRANCH   4   5
ENDBRANCH   1   4
BRANCH   1  13
ATOM     13  C   UNL     1       4.236   3.605  19.363  0.00  0.00    +0.000 C 
BRANCH  13  14
ATOM     14  N   UNL     1       2.838   3.214  19.295  0.00  0.00    +0.000 N 
ATOM     15  C   UNL     1       2.208   2.761  18.167  0.00  0.00    +0.000 A 
ATOM     16  C   UNL     1       0.940   2.425  18.575  0.00  0.00    +0.000 A 
ATOM     17  N   UNL     1       0.787   2.659  19.915  0.00  0.00    +0.000 NA
ATOM     18  C   UNL     1       1.941   3.132  20.334  0.00  0.00    +0.000 A 
ATOM     19  C   UNL     1       2.252   3.525  21.732  0.00  0.00    +0.000 C 
ENDBRANCH  13  14
ENDBRANCH   1  13
TORSDOF 6
ENDMDL
