MODEL 1
REMARK VINA RESULT:      -8.9      0.000      0.000
REMARK  Name = 
REMARK  4 active torsions:
REMARK  status: ('A' for Active; 'I' for Inactive)
REMARK    1  A    between atoms: C_2  and  C_4
REMARK    2  A    between atoms: C_7  and  N_8
REMARK    3  A    between atoms: N_8  and  C_9
REMARK    4  A    between atoms: C_9  and  C_10
REMARK                            x       y       z     vdW  Elec       q    Type
REMARK                         _______ _______ _______ _____ _____    ______ ____
ROOT
ATOM      1  C   UNL     1       2.790   3.387  19.928  0.00  0.00    +0.000 A 
ATOM      2  C   UNL     1       3.384   2.506  19.017  0.00  0.00    +0.000 A 
ATOM      3  C   UNL     1       3.942   3.000  17.844  0.00  0.00    +0.000 A 
ATOM      4  C   UNL     1       3.924   4.369  17.562  0.00  0.00    +0.000 A 
ATOM      5  C   UNL     1       3.295   5.270  18.491  0.00  0.00    +0.000 A 
ATOM      6  C   UNL     1       3.152   6.669  18.322  0.00  0.00    +0.000 A 
ATOM      7  C   UNL     1       2.414   7.473  19.183  0.00  0.00    +0.000 A 
ATOM      8  C   UNL     1       1.848   6.868  20.268  0.00  0.00    +0.000 A 
ATOM      9  N   UNL     1       2.000   5.558  20.535  0.00  0.00    +0.000 NA
ATOM     10  C   UNL     1       2.687   4.760  19.669  0.00  0.00    +0.000 A 
ENDROOT
BRANCH   1  12
ATOM     11  N   UNL     1       0.953   2.826  21.436  0.00  0.00    +0.000 N 
ATOM     12  C   UNL     1       2.294   2.778  21.198  0.00  0.00    +0.000 C 
ATOM     13  O   UNL     1       3.062   2.283  22.013  0.00  0.00    +0.000 OA
ATOM     14  H   UNL     1       0.601   2.305  22.223  0.00  0.00    +0.000 HD
ATOM     15  H   UNL     1       0.326   3.007  20.655  0.00  0.00    +0.000 HD
ENDBRANCH   1  12
BRANCH   4  16
ATOM     16  N   UNL     1       4.588   4.714  16.350  0.00  0.00    +0.000 N 
ATOM     17  H   UNL     1       3.939   5.145  15.693  0.00  0.00    +0.000 HD
BRANCH  16  18
ATOM     18  C   UNL     1       5.957   5.089  16.066  0.00  0.00    +0.000 C 
ATOM     19  C   UNL     1       6.315   6.467  16.727  0.00  0.00    +0.000 C 
ATOM     20  N   UNL     1       7.546   5.870  17.281  0.00  0.00    +0.000 NA
ATOM     21  C   UNL     1       6.925   4.532  17.182  0.00  0.00    +0.000 C 
ATOM     22  H   UNL     1       7.771   6.170  18.229  0.00  0.00    +0.000 HD
BRANCH  18  23
ATOM     23  C   UNL     1       6.372   4.699  14.547  0.00  0.00    +0.000 A 
ATOM     24  C   UNL     1       5.694   3.716  13.783  0.00  0.00    +0.000 A 
ATOM     25  C   UNL     1       6.036   3.416  12.463  0.00  0.00    +0.000 A 
ATOM     26  C   UNL     1       7.102   4.068  11.861  0.00  0.00    +0.000 A 
ATOM     27  C   UNL     1       7.807   5.031  12.573  0.00  0.00    +0.000 A 
ATOM     28  C   UNL     1       7.439   5.342  13.886  0.00  0.00    +0.000 A 
ENDBRANCH  18  23
ENDBRANCH  16  18
ENDBRANCH   4  16
TORSDOF 4
ENDMDL
MODEL 2
REMARK VINA RESULT:      -8.8      1.365      3.102
REMARK  Name = 
REMARK  4 active torsions:
REMARK  status: ('A' for Active; 'I' for Inactive)
REMARK    1  A    between atoms: C_2  and  C_4
REMARK    2  A    between atoms: C_7  and  N_8
REMARK    3  A    between atoms: N_8  and  C_9
REMARK    4  A    between atoms: C_9  and  C_10
REMARK                            x       y       z     vdW  Elec       q    Type
REMARK                         _______ _______ _______ _____ _____    ______ ____
ROOT
ATOM      1  C   UNL     1       2.687   3.397  19.923  0.00  0.00    +0.000 A 
ATOM      2  C   UNL     1       3.216   2.513  18.975  0.00  0.00    +0.000 A 
ATOM      3  C   UNL     1       3.723   3.008  17.779  0.00  0.00    +0.000 A 
ATOM      4  C   UNL     1       3.719   4.380  17.511  0.00  0.00    +0.000 A 
ATOM      5  C   UNL     1       3.156   5.284  18.479  0.00  0.00    +0.000 A 
ATOM      6  C   UNL     1       3.034   6.687  18.331  0.00  0.00    +0.000 A 
ATOM      7  C   UNL     1       2.357   7.496  19.236  0.00  0.00    +0.000 A 
ATOM      8  C   UNL     1       1.835   6.892  20.342  0.00  0.00    +0.000 A 
ATOM      9  N   UNL     1       1.974   5.577  20.589  0.00  0.00    +0.000 NA
ATOM     10  C   UNL     1       2.599   4.774  19.682  0.00  0.00    +0.000 A 
ENDROOT
BRANCH   1  12
ATOM     11  N   UNL     1       0.908   2.780  21.478  0.00  0.00    +0.000 N 
ATOM     12  C   UNL     1       2.244   2.785  21.211  0.00  0.00    +0.000 C 
ATOM     13  O   UNL     1       3.049   2.333  22.016  0.00  0.00    +0.000 OA
ATOM     14  H   UNL     1       0.595   2.255  22.279  0.00  0.00    +0.000 HD
ATOM     15  H   UNL     1       0.258   2.924  20.708  0.00  0.00    +0.000 HD
ENDBRANCH   1  12
BRANCH   4  16
ATOM     16  N   UNL     1       4.327   4.725  16.270  0.00  0.00    +0.000 N 
ATOM     17  H   UNL     1       3.753   5.395  15.760  0.00  0.00    +0.000 HD
BRANCH  16  18
ATOM     18  C   UNL     1       5.711   4.785  15.851  0.00  0.00    +0.000 C 
ATOM     19  C   UNL     1       6.159   3.438  15.182  0.00  0.00    +0.000 C 
ATOM     20  N   UNL     1       6.727   4.199  14.052  0.00  0.00    +0.000 NA
ATOM     21  C   UNL     1       5.817   5.322  14.370  0.00  0.00    +0.000 C 
ATOM     22  H   UNL     1       6.578   3.773  13.138  0.00  0.00    +0.000 HD
BRANCH  18  23
ATOM     23  C   UNL     1       6.619   5.585  16.933  0.00  0.00    +0.000 A 
ATOM     24  C   UNL     1       6.911   6.968  16.833  0.00  0.00    +0.000 A 
ATOM     25  C   UNL     1       7.662   7.653  17.791  0.00  0.00    +0.000 A 
ATOM     26  C   UNL     1       8.186   6.968  18.877  0.00  0.00    +0.000 A 
ATOM     27  C   UNL     1       7.939   5.606  19.013  0.00  0.00    +0.000 A 
ATOM     28  C   UNL     1       7.163   4.936  18.061  0.00  0.00    +0.000 A 
ENDBRANCH  18  23
ENDBRANCH  16  18
ENDBRANCH   4  16
TORSDOF 4
ENDMDL
MODEL 3
REMARK VINA RESULT:      -8.4      2.453      6.619
REMARK  Name = 
REMARK  4 active torsions:
REMARK  status: ('A' for Active; 'I' for Inactive)
REMARK    1  A    between atoms: C_2  and  C_4
REMARK    2  A    between atoms: C_7  and  N_8
REMARK    3  A    between atoms: N_8  and  C_9
REMARK    4  A    between atoms: C_9  and  C_10
REMARK                            x       y       z     vdW  Elec       q    Type
REMARK                         _______ _______ _______ _____ _____    ______ ____
ROOT
ATOM      1  C   UNL     1       5.984   4.278  15.938  0.00  0.00    +0.000 A 
ATOM      2  C   UNL     1       4.857   3.451  15.865  0.00  0.00    +0.000 A 
ATOM      3  C   UNL     1       4.108   3.203  17.009  0.00  0.00    +0.000 A 
ATOM      4  C   UNL     1       4.461   3.774  18.235  0.00  0.00    +0.000 A 
ATOM      5  C   UNL     1       5.631   4.608  18.312  0.00  0.00    +0.000 A 
ATOM      6  C   UNL     1       6.143   5.213  19.485  0.00  0.00    +0.000 A 
ATOM      7  C   UNL     1       7.354   5.894  19.530  0.00  0.00    +0.000 A 
ATOM      8  C   UNL     1       8.043   6.016  18.358  0.00  0.00    +0.000 A 
ATOM      9  N   UNL     1       7.586   5.532  17.189  0.00  0.00    +0.000 NA
ATOM     10  C   UNL     1       6.421   4.826  17.151  0.00  0.00    +0.000 A 
ENDROOT
BRANCH   1  12
ATOM     11  N   UNL     1       7.671   5.488  14.652  0.00  0.00    +0.000 N 
ATOM     12  C   UNL     1       6.676   4.556  14.645  0.00  0.00    +0.000 C 
ATOM     13  O   UNL     1       6.345   3.995  13.608  0.00  0.00    +0.000 OA
ATOM     14  H   UNL     1       8.225   5.583  13.816  0.00  0.00    +0.000 HD
ATOM     15  H   UNL     1       8.088   5.746  15.543  0.00  0.00    +0.000 HD
ENDBRANCH   1  12
BRANCH   4  16
ATOM     16  N   UNL     1       3.557   3.467  19.292  0.00  0.00    +0.000 N 
ATOM     17  H   UNL     1       4.064   3.190  20.132  0.00  0.00    +0.000 HD
BRANCH  16  18
ATOM     18  C   UNL     1       2.233   3.958  19.611  0.00  0.00    +0.000 C 
ATOM     19  C   UNL     1       1.126   2.971  19.096  0.00  0.00    +0.000 C 
ATOM     20  N   UNL     1       0.478   3.022  20.422  0.00  0.00    +0.000 NA
ATOM     21  C   UNL     1       1.770   3.421  21.021  0.00  0.00    +0.000 C 
ATOM     22  H   UNL     1       0.112   2.129  20.748  0.00  0.00    +0.000 HD
BRANCH  18  23
ATOM     23  C   UNL     1       2.141   5.568  19.430  0.00  0.00    +0.000 A 
ATOM     24  C   UNL     1       1.807   6.452  20.485  0.00  0.00    +0.000 A 
ATOM     25  C   UNL     1       1.769   7.839  20.326  0.00  0.00    +0.000 A 
ATOM     26  C   UNL     1       2.030   8.399  19.085  0.00  0.00    +0.000 A 
ATOM     27  C   UNL     1       2.351   7.572  18.014  0.00  0.00    +0.000 A 
ATOM     28  C   UNL     1       2.412   6.186  18.191  0.00  0.00    +0.000 A 
ENDBRANCH  18  23
ENDBRANCH  16  18
ENDBRANCH   4  16
TORSDOF 4
ENDMDL
MODEL 4
REMARK VINA RESULT:      -8.3      2.277      4.341
REMARK  Name = 
REMARK  4 active torsions:
REMARK  status: ('A' for Active; 'I' for Inactive)
REMARK    1  A    between atoms: C_2  and  C_4
REMARK    2  A    between atoms: C_7  and  N_8
REMARK    3  A    between atoms: N_8  and  C_9
REMARK    4  A    between atoms: C_9  and  C_10
REMARK                            x       y       z     vdW  Elec       q    Type
REMARK                         _______ _______ _______ _____ _____    ______ ____
ROOT
ATOM      1  C   UNL     1       2.298   7.187  19.508  0.00  0.00    +0.000 A 
ATOM      2  C   UNL     1       2.898   7.722  18.363  0.00  0.00    +0.000 A 
ATOM      3  C   UNL     1       3.563   6.883  17.477  0.00  0.00    +0.000 A 
ATOM      4  C   UNL     1       3.637   5.507  17.710  0.00  0.00    +0.000 A 
ATOM      5  C   UNL     1       3.037   4.962  18.899  0.00  0.00    +0.000 A 
ATOM      6  C   UNL     1       3.071   3.604  19.298  0.00  0.00    +0.000 A 
ATOM      7  C   UNL     1       2.596   3.154  20.524  0.00  0.00    +0.000 A 
ATOM      8  C   UNL     1       2.025   4.079  21.348  0.00  0.00    +0.000 A 
ATOM      9  N   UNL     1       1.889   5.374  21.009  0.00  0.00    +0.000 NA
ATOM     10  C   UNL     1       2.394   5.826  19.826  0.00  0.00    +0.000 A 
ENDROOT
BRANCH   1  12
ATOM     11  N   UNL     1       1.809   8.167  21.691  0.00  0.00    +0.000 N 
ATOM     12  C   UNL     1       1.534   8.149  20.357  0.00  0.00    +0.000 C 
ATOM     13  O   UNL     1       0.668   8.874  19.882  0.00  0.00    +0.000 OA
ATOM     14  H   UNL     1       1.393   8.900  22.242  0.00  0.00    +0.000 HD
ATOM     15  H   UNL     1       2.681   7.753  22.013  0.00  0.00    +0.000 HD
ENDBRANCH   1  12
BRANCH   4  16
ATOM     16  N   UNL     1       4.302   4.785  16.679  0.00  0.00    +0.000 N 
ATOM     17  H   UNL     1       3.637   4.464  15.976  0.00  0.00    +0.000 HD
BRANCH  16  18
ATOM     18  C   UNL     1       5.642   4.876  16.138  0.00  0.00    +0.000 C 
ATOM     19  C   UNL     1       6.058   3.538  15.431  0.00  0.00    +0.000 C 
ATOM     20  N   UNL     1       6.506   4.310  14.255  0.00  0.00    +0.000 NA
ATOM     21  C   UNL     1       5.604   5.412  14.655  0.00  0.00    +0.000 C 
ATOM     22  H   UNL     1       6.286   3.879  13.358  0.00  0.00    +0.000 HD
BRANCH  18  23
ATOM     23  C   UNL     1       6.625   5.696  17.136  0.00  0.00    +0.000 A 
ATOM     24  C   UNL     1       6.998   7.047  16.924  0.00  0.00    +0.000 A 
ATOM     25  C   UNL     1       7.814   7.754  17.810  0.00  0.00    +0.000 A 
ATOM     26  C   UNL     1       8.323   7.121  18.934  0.00  0.00    +0.000 A 
ATOM     27  C   UNL     1       7.996   5.792  19.179  0.00  0.00    +0.000 A 
ATOM     28  C   UNL     1       7.157   5.101  18.299  0.00  0.00    +0.000 A 
ENDBRANCH  18  23
ENDBRANCH  16  18
ENDBRANCH   4  16
TORSDOF 4
ENDMDL
MODEL 5
REMARK VINA RESULT:      -8.1      2.291      4.352
REMARK  Name = 
REMARK  4 active torsions:
REMARK  status: ('A' for Active; 'I' for Inactive)
REMARK    1  A    between atoms: C_2  and  C_4
REMARK    2  A    between atoms: C_7  and  N_8
REMARK    3  A    between atoms: N_8  and  C_9
REMARK    4  A    between atoms: C_9  and  C_10
REMARK                            x       y       z     vdW  Elec       q    Type
REMARK                         _______ _______ _______ _____ _____    ______ ____
ROOT
ATOM      1  C   UNL     1       2.131   7.449  19.659  0.00  0.00    +0.000 A 
ATOM      2  C   UNL     1       2.646   8.102  18.533  0.00  0.00    +0.000 A 
ATOM      3  C   UNL     1       3.302   7.368  17.552  0.00  0.00    +0.000 A 
ATOM      4  C   UNL     1       3.451   5.984  17.670  0.00  0.00    +0.000 A 
ATOM      5  C   UNL     1       2.938   5.318  18.838  0.00  0.00    +0.000 A 
ATOM      6  C   UNL     1       3.055   3.937  19.125  0.00  0.00    +0.000 A 
ATOM      7  C   UNL     1       2.665   3.369  20.332  0.00  0.00    +0.000 A 
ATOM      8  C   UNL     1       2.096   4.198  21.254  0.00  0.00    +0.000 A 
ATOM      9  N   UNL     1       1.884   5.507  21.027  0.00  0.00    +0.000 NA
ATOM     10  C   UNL     1       2.306   6.074  19.861  0.00  0.00    +0.000 A 
ENDROOT
BRANCH   1  12
ATOM     11  N   UNL     1       1.815   8.357  21.904  0.00  0.00    +0.000 N 
ATOM     12  C   UNL     1       1.368   8.303  20.618  0.00  0.00    +0.000 C 
ATOM     13  O   UNL     1       0.360   8.908  20.274  0.00  0.00    +0.000 OA
ATOM     14  H   UNL     1       1.384   9.029  22.518  0.00  0.00    +0.000 HD
ATOM     15  H   UNL     1       2.768   8.061  22.101  0.00  0.00    +0.000 HD
ENDBRANCH   1  12
BRANCH   4  16
ATOM     16  N   UNL     1       4.094   5.378  16.553  0.00  0.00    +0.000 N 
ATOM     17  H   UNL     1       3.637   5.648  15.682  0.00  0.00    +0.000 HD
BRANCH  16  18
ATOM     18  C   UNL     1       5.463   4.965  16.327  0.00  0.00    +0.000 C 
ATOM     19  C   UNL     1       5.561   3.411  16.135  0.00  0.00    +0.000 C 
ATOM     20  N   UNL     1       6.378   3.621  14.924  0.00  0.00    +0.000 NA
ATOM     21  C   UNL     1       5.795   4.973  14.784  0.00  0.00    +0.000 C 
ATOM     22  H   UNL     1       6.170   2.983  14.157  0.00  0.00    +0.000 HD
BRANCH  18  23
ATOM     23  C   UNL     1       6.494   5.813  17.251  0.00  0.00    +0.000 A 
ATOM     24  C   UNL     1       7.077   5.301  18.436  0.00  0.00    +0.000 A 
ATOM     25  C   UNL     1       7.993   6.026  19.203  0.00  0.00    +0.000 A 
ATOM     26  C   UNL     1       8.336   7.317  18.829  0.00  0.00    +0.000 A 
ATOM     27  C   UNL     1       7.781   7.868  17.680  0.00  0.00    +0.000 A 
ATOM     28  C   UNL     1       6.885   7.124  16.906  0.00  0.00    +0.000 A 
ENDBRANCH  18  23
ENDBRANCH  16  18
ENDBRANCH   4  16
TORSDOF 4
ENDMDL
MODEL 6
REMARK VINA RESULT:      -8.0      0.712      1.208
REMARK  Name = 
REMARK  4 active torsions:
REMARK  status: ('A' for Active; 'I' for Inactive)
REMARK    1  A    between atoms: C_2  and  C_4
REMARK    2  A    between atoms: C_7  and  N_8
REMARK    3  A    between atoms: N_8  and  C_9
REMARK    4  A    between atoms: C_9  and  C_10
REMARK                            x       y       z     vdW  Elec       q    Type
REMARK                         _______ _______ _______ _____ _____    ______ ____
ROOT
ATOM      1  C   UNL     1       2.489   3.674  19.577  0.00  0.00    +0.000 A 
ATOM      2  C   UNL     1       3.127   2.861  18.633  0.00  0.00    +0.000 A 
ATOM      3  C   UNL     1       3.805   3.442  17.569  0.00  0.00    +0.000 A 
ATOM      4  C   UNL     1       3.866   4.831  17.430  0.00  0.00    +0.000 A 
ATOM      5  C   UNL     1       3.193   5.665  18.390  0.00  0.00    +0.000 A 
ATOM      6  C   UNL     1       3.121   7.078  18.356  0.00  0.00    +0.000 A 
ATOM      7  C   UNL     1       2.342   7.827  19.230  0.00  0.00    +0.000 A 
ATOM      8  C   UNL     1       1.659   7.145  20.195  0.00  0.00    +0.000 A 
ATOM      9  N   UNL     1       1.735   5.809  20.337  0.00  0.00    +0.000 NA
ATOM     10  C   UNL     1       2.464   5.069  19.454  0.00  0.00    +0.000 A 
ENDROOT
BRANCH   1  12
ATOM     11  N   UNL     1       2.326   3.256  21.978  0.00  0.00    +0.000 N 
ATOM     12  C   UNL     1       1.859   2.966  20.731  0.00  0.00    +0.000 C 
ATOM     13  O   UNL     1       0.978   2.131  20.566  0.00  0.00    +0.000 OA
ATOM     14  H   UNL     1       1.819   2.881  22.764  0.00  0.00    +0.000 HD
ATOM     15  H   UNL     1       2.862   4.110  22.109  0.00  0.00    +0.000 HD
ENDBRANCH   1  12
BRANCH   4  16
ATOM     16  N   UNL     1       4.648   5.264  16.320  0.00  0.00    +0.000 N 
ATOM     17  H   UNL     1       4.174   6.010  15.813  0.00  0.00    +0.000 HD
BRANCH  16  18
ATOM     18  C   UNL     1       6.077   5.292  16.092  0.00  0.00    +0.000 C 
ATOM     19  C   UNL     1       6.740   6.523  16.807  0.00  0.00    +0.000 C 
ATOM     20  N   UNL     1       7.762   5.627  17.381  0.00  0.00    +0.000 NA
ATOM     21  C   UNL     1       6.833   4.487  17.221  0.00  0.00    +0.000 C 
ATOM     22  H   UNL     1       8.017   5.839  18.344  0.00  0.00    +0.000 HD
BRANCH  18  23
ATOM     23  C   UNL     1       6.441   4.844  14.575  0.00  0.00    +0.000 A 
ATOM     24  C   UNL     1       7.488   5.430  13.821  0.00  0.00    +0.000 A 
ATOM     25  C   UNL     1       7.816   5.010  12.530  0.00  0.00    +0.000 A 
ATOM     26  C   UNL     1       7.080   4.002  11.924  0.00  0.00    +0.000 A 
ATOM     27  C   UNL     1       6.034   3.405  12.618  0.00  0.00    +0.000 A 
ATOM     28  C   UNL     1       5.731   3.815  13.921  0.00  0.00    +0.000 A 
ENDBRANCH  18  23
ENDBRANCH  16  18
ENDBRANCH   4  16
TORSDOF 4
ENDMDL
MODEL 7
REMARK VINA RESULT:      -8.0      1.189      1.189
REMARK  Name = 
REMARK  4 active torsions:
REMARK  status: ('A' for Active; 'I' for Inactive)
REMARK    1  A    between atoms: C_2  and  C_4
REMARK    2  A    between atoms: C_7  and  N_8
REMARK    3  A    between atoms: N_8  and  C_9
REMARK    4  A    between atoms: C_9  and  C_10
REMARK                            x       y       z     vdW  Elec       q    Type
REMARK                         _______ _______ _______ _____ _____    ______ ____
ROOT
ATOM      1  C   UNL     1       1.949   3.435  18.732  0.00  0.00    +0.000 A 
ATOM      2  C   UNL     1       2.585   2.880  17.615  0.00  0.00    +0.000 A 
ATOM      3  C   UNL     1       3.473   3.650  16.874  0.00  0.00    +0.000 A 
ATOM      4  C   UNL     1       3.746   4.974  17.231  0.00  0.00    +0.000 A 
ATOM      5  C   UNL     1       3.075   5.549  18.367  0.00  0.00    +0.000 A 
ATOM      6  C   UNL     1       3.207   6.883  18.820  0.00  0.00    +0.000 A 
ATOM      7  C   UNL     1       2.432   7.427  19.838  0.00  0.00    +0.000 A 
ATOM      8  C   UNL     1       1.538   6.597  20.451  0.00  0.00    +0.000 A 
ATOM      9  N   UNL     1       1.407   5.298  20.126  0.00  0.00    +0.000 NA
ATOM     10  C   UNL     1       2.135   4.774  19.099  0.00  0.00    +0.000 A 
ENDROOT
BRANCH   1  12
ATOM     11  N   UNL     1       1.274   2.454  20.864  0.00  0.00    +0.000 N 
ATOM     12  C   UNL     1       1.079   2.509  19.516  0.00  0.00    +0.000 C 
ATOM     13  O   UNL     1       0.243   1.800  18.971  0.00  0.00    +0.000 OA
ATOM     14  H   UNL     1       0.607   1.933  21.410  0.00  0.00    +0.000 HD
ATOM     15  H   UNL     1       1.781   3.213  21.313  0.00  0.00    +0.000 HD
ENDBRANCH   1  12
BRANCH   4  16
ATOM     16  N   UNL     1       4.720   5.603  16.404  0.00  0.00    +0.000 N 
ATOM     17  H   UNL     1       4.477   6.579  16.237  0.00  0.00    +0.000 HD
BRANCH  16  18
ATOM     18  C   UNL     1       6.138   5.371  16.226  0.00  0.00    +0.000 C 
ATOM     19  C   UNL     1       6.986   6.454  16.982  0.00  0.00    +0.000 C 
ATOM     20  N   UNL     1       7.806   5.381  17.578  0.00  0.00    +0.000 NA
ATOM     21  C   UNL     1       6.691   4.432  17.367  0.00  0.00    +0.000 C 
ATOM     22  H   UNL     1       8.060   5.535  18.552  0.00  0.00    +0.000 HD
BRANCH  18  23
ATOM     23  C   UNL     1       6.469   4.878  14.716  0.00  0.00    +0.000 A 
ATOM     24  C   UNL     1       5.744   3.856  14.054  0.00  0.00    +0.000 A 
ATOM     25  C   UNL     1       6.014   3.467  12.740  0.00  0.00    +0.000 A 
ATOM     26  C   UNL     1       7.054   4.065  12.043  0.00  0.00    +0.000 A 
ATOM     27  C   UNL     1       7.803   5.064  12.653  0.00  0.00    +0.000 A 
ATOM     28  C   UNL     1       7.507   5.465  13.961  0.00  0.00    +0.000 A 
ENDBRANCH  18  23
ENDBRANCH  16  18
ENDBRANCH   4  16
TORSDOF 4
ENDMDL
MODEL 8
REMARK VINA RESULT:      -7.9      1.837      3.221
REMARK  Name = 
REMARK  4 active torsions:
REMARK  status: ('A' for Active; 'I' for Inactive)
REMARK    1  A    between atoms: C_2  and  C_4
REMARK    2  A    between atoms: C_7  and  N_8
REMARK    3  A    between atoms: N_8  and  C_9
REMARK    4  A    between atoms: C_9  and  C_10
REMARK                            x       y       z     vdW  Elec       q    Type
REMARK                         _______ _______ _______ _____ _____    ______ ____
ROOT
ATOM      1  C   UNL     1       2.343   7.441  19.341  0.00  0.00    +0.000 A 
ATOM      2  C   UNL     1       2.953   8.075  18.253  0.00  0.00    +0.000 A 
ATOM      3  C   UNL     1       3.708   7.330  17.355  0.00  0.00    +0.000 A 
ATOM      4  C   UNL     1       3.863   5.951  17.519  0.00  0.00    +0.000 A 
ATOM      5  C   UNL     1       3.252   5.304  18.650  0.00  0.00    +0.000 A 
ATOM      6  C   UNL     1       3.359   3.932  18.979  0.00  0.00    +0.000 A 
ATOM      7  C   UNL     1       2.865   3.385  20.158  0.00  0.00    +0.000 A 
ATOM      8  C   UNL     1       2.201   4.225  21.003  0.00  0.00    +0.000 A 
ATOM      9  N   UNL     1       1.995   5.526  20.726  0.00  0.00    +0.000 NA
ATOM     10  C   UNL     1       2.516   6.073  19.591  0.00  0.00    +0.000 A 
ENDROOT
BRANCH   1  12
ATOM     11  N   UNL     1       1.685   8.248  21.551  0.00  0.00    +0.000 N 
ATOM     12  C   UNL     1       1.483   8.304  20.204  0.00  0.00    +0.000 C 
ATOM     13  O   UNL     1       0.605   9.013  19.728  0.00  0.00    +0.000 OA
ATOM     14  H   UNL     1       1.201   8.920  22.123  0.00  0.00    +0.000 HD
ATOM     15  H   UNL     1       2.560   7.859  21.895  0.00  0.00    +0.000 HD
ENDBRANCH   1  12
BRANCH   4  16
ATOM     16  N   UNL     1       4.615   5.330  16.482  0.00  0.00    +0.000 N 
ATOM     17  H   UNL     1       4.104   5.353  15.601  0.00  0.00    +0.000 HD
BRANCH  16  18
ATOM     18  C   UNL     1       6.040   5.195  16.264  0.00  0.00    +0.000 C 
ATOM     19  C   UNL     1       6.840   6.291  17.054  0.00  0.00    +0.000 C 
ATOM     20  N   UNL     1       7.737   5.243  17.580  0.00  0.00    +0.000 NA
ATOM     21  C   UNL     1       6.676   4.239  17.347  0.00  0.00    +0.000 C 
ATOM     22  H   UNL     1       8.004   5.367  18.556  0.00  0.00    +0.000 HD
BRANCH  18  23
ATOM     23  C   UNL     1       6.366   4.795  14.725  0.00  0.00    +0.000 A 
ATOM     24  C   UNL     1       7.451   5.338  13.993  0.00  0.00    +0.000 A 
ATOM     25  C   UNL     1       7.743   4.957  12.681  0.00  0.00    +0.000 A 
ATOM     26  C   UNL     1       6.933   4.037  12.033  0.00  0.00    +0.000 A 
ATOM     27  C   UNL     1       5.849   3.485  12.704  0.00  0.00    +0.000 A 
ATOM     28  C   UNL     1       5.580   3.854  14.027  0.00  0.00    +0.000 A 
ENDBRANCH  18  23
ENDBRANCH  16  18
ENDBRANCH   4  16
TORSDOF 4
ENDMDL
MODEL 9
REMARK VINA RESULT:      -7.9      4.017      6.691
REMARK  Name = 
REMARK  4 active torsions:
REMARK  status: ('A' for Active; 'I' for Inactive)
REMARK    1  A    between atoms: C_2  and  C_4
REMARK    2  A    between atoms: C_7  and  N_8
REMARK    3  A    between atoms: N_8  and  C_9
REMARK    4  A    between atoms: C_9  and  C_10
REMARK                            x       y       z     vdW  Elec       q    Type
REMARK                         _______ _______ _______ _____ _____    ______ ____
ROOT
ATOM      1  C   UNL     1       0.078   9.907  18.552  0.00  0.00    +0.000 A 
ATOM      2  C   UNL     1       0.918   9.288  17.619  0.00  0.00    +0.000 A 
ATOM      3  C   UNL     1       1.892   8.397  18.053  0.00  0.00    +0.000 A 
ATOM      4  C   UNL     1       2.042   8.103  19.412  0.00  0.00    +0.000 A 
ATOM      5  C   UNL     1       1.191   8.757  20.370  0.00  0.00    +0.000 A 
ATOM      6  C   UNL     1       1.255   8.603  21.776  0.00  0.00    +0.000 A 
ATOM      7  C   UNL     1       0.502   9.363  22.665  0.00  0.00    +0.000 A 
ATOM      8  C   UNL     1      -0.373  10.261  22.129  0.00  0.00    +0.000 A 
ATOM      9  N   UNL     1      -0.544  10.413  20.802  0.00  0.00    +0.000 NA
ATOM     10  C   UNL     1       0.225   9.700  19.930  0.00  0.00    +0.000 A 
ENDROOT
BRANCH   1  12
ATOM     11  N   UNL     1      -0.830  12.131  18.109  0.00  0.00    +0.000 N 
ATOM     12  C   UNL     1      -0.992  10.783  17.989  0.00  0.00    +0.000 C 
ATOM     13  O   UNL     1      -1.995  10.312  17.467  0.00  0.00    +0.000 OA
ATOM     14  H   UNL     1      -1.481  12.723  17.619  0.00  0.00    +0.000 HD
ATOM     15  H   UNL     1       0.099  12.492  18.311  0.00  0.00    +0.000 HD
ENDBRANCH   1  12
BRANCH   4  16
ATOM     16  N   UNL     1       3.045   7.128  19.681  0.00  0.00    +0.000 N 
ATOM     17  H   UNL     1       3.191   7.028  20.685  0.00  0.00    +0.000 HD
BRANCH  16  18
ATOM     18  C   UNL     1       3.464   5.943  18.964  0.00  0.00    +0.000 C 
ATOM     19  C   UNL     1       4.076   6.314  17.567  0.00  0.00    +0.000 C 
ATOM     20  N   UNL     1       5.236   5.448  17.856  0.00  0.00    +0.000 NA
ATOM     21  C   UNL     1       4.965   5.593  19.303  0.00  0.00    +0.000 C 
ATOM     22  H   UNL     1       6.131   5.824  17.548  0.00  0.00    +0.000 HD
BRANCH  18  23
ATOM     23  C   UNL     1       2.415   4.723  19.177  0.00  0.00    +0.000 A 
ATOM     24  C   UNL     1       1.960   3.894  18.122  0.00  0.00    +0.000 A 
ATOM     25  C   UNL     1       1.087   2.823  18.324  0.00  0.00    +0.000 A 
ATOM     26  C   UNL     1       0.601   2.560  19.596  0.00  0.00    +0.000 A 
ATOM     27  C   UNL     1       1.007   3.353  20.663  0.00  0.00    +0.000 A 
ATOM     28  C   UNL     1       1.903   4.407  20.453  0.00  0.00    +0.000 A 
ENDBRANCH  18  23
ENDBRANCH  16  18
ENDBRANCH   4  16
TORSDOF 4
ENDMDL
