MODEL 1
REMARK VINA RESULT:      -6.6      0.000      0.000
REMARK  Name = 
REMARK  7 active torsions:
REMARK  status: ('A' for Active; 'I' for Inactive)
REMARK    1  A    between atoms: C_1  and  O_2
REMARK    2  A    between atoms: O_2  and  C_3
REMARK    3  A    between atoms: C_6  and  O_7
REMARK    4  A    between atoms: O_7  and  C_8
REMARK    5  A    between atoms: C_16  and  S_17
REMARK    6  A    between atoms: S_17  and  C_18
REMARK    7  A    between atoms: N_21  and  C_22
REMARK                            x       y       z     vdW  Elec       q    Type
REMARK                         _______ _______ _______ _____ _____    ______ ____
ROOT
ATOM      1  C   UNL     1       4.597   5.226  16.849  0.00  0.00    +0.000 A 
ATOM      2  C   UNL     1       5.068   3.926  16.987  0.00  0.00    +0.000 A 
ATOM      3  C   UNL     1       4.731   3.174  18.108  0.00  0.00    +0.000 A 
ATOM      4  C   UNL     1       3.914   3.697  19.122  0.00  0.00    +0.000 A 
ATOM      5  C   UNL     1       3.406   5.025  19.020  0.00  0.00    +0.000 A 
ATOM      6  C   UNL     1       3.765   5.777  17.855  0.00  0.00    +0.000 A 
ATOM      7  C   UNL     1       3.263   7.154  17.695  0.00  0.00    +0.000 A 
ATOM      8  C   UNL     1       2.480   7.730  18.612  0.00  0.00    +0.000 A 
ATOM      9  C   UNL     1       1.977   9.102  18.460  0.00  0.00    +0.000 A 
ATOM     10  O   UNL     1       2.253   9.781  17.477  0.00  0.00    +0.000 OA
ATOM     11  N   UNL     1       1.196   9.564  19.473  0.00  0.00    +0.000 NA
ATOM     12  C   UNL     1       0.922   8.828  20.489  0.00  0.00    +0.000 A 
ATOM     13  N   UNL     1       1.349   7.550  20.697  0.00  0.00    +0.000 NA
ATOM     14  C   UNL     1       2.110   6.967  19.814  0.00  0.00    +0.000 A 
ATOM     15  N   UNL     1       2.566   5.657  19.996  0.00  0.00    +0.000 N 
ATOM     16  C   UNL     1       2.191   4.924  21.205  0.00  0.00    +0.000 C 
ENDROOT
BRANCH   1  18
ATOM     17  C   UNL     1       5.760   5.493  14.773  0.00  0.00    +0.000 C 
ATOM     18  O   UNL     1       4.893   6.026  15.772  0.00  0.00    +0.000 OA
ENDBRANCH   1  18
BRANCH   4  19
ATOM     19  O   UNL     1       3.587   2.950  20.225  0.00  0.00    +0.000 OA
ATOM     20  C   UNL     1       4.439   1.879  20.612  0.00  0.00    +0.000 C 
ENDBRANCH   4  19
BRANCH  12  21
ATOM     21  S   UNL     1      -0.096   9.494  21.762  0.00  0.00    +0.000 S 
ATOM     22  C   UNL     1      -0.285  11.199  21.190  0.00  0.00    +0.000 C 
ENDBRANCH  12  21
TORSDOF 3
ENDMDL
MODEL 2
REMARK VINA RESULT:      -6.1      0.998      1.014
REMARK  Name = 
REMARK  7 active torsions:
REMARK  status: ('A' for Active; 'I' for Inactive)
REMARK    1  A    between atoms: C_1  and  O_2
REMARK    2  A    between atoms: O_2  and  C_3
REMARK    3  A    between atoms: C_6  and  O_7
REMARK    4  A    between atoms: O_7  and  C_8
REMARK    5  A    between atoms: C_16  and  S_17
REMARK    6  A    between atoms: S_17  and  C_18
REMARK    7  A    between atoms: N_21  and  C_22
REMARK                            x       y       z     vdW  Elec       q    Type
REMARK                         _______ _______ _______ _____ _____    ______ ____
ROOT
ATOM      1  C   UNL     1       4.442   5.869  16.995  0.00  0.00    +0.000 A 
ATOM      2  C   UNL     1       4.823   4.551  17.214  0.00  0.00    +0.000 A 
ATOM      3  C   UNL     1       4.351   3.861  18.326  0.00  0.00    +0.000 A 
ATOM      4  C   UNL     1       3.486   4.466  19.250  0.00  0.00    +0.000 A 
ATOM      5  C   UNL     1       3.067   5.815  19.064  0.00  0.00    +0.000 A 
ATOM      6  C   UNL     1       3.564   6.502  17.909  0.00  0.00    +0.000 A 
ATOM      7  C   UNL     1       3.158   7.898  17.662  0.00  0.00    +0.000 A 
ATOM      8  C   UNL     1       2.338   8.551  18.492  0.00  0.00    +0.000 A 
ATOM      9  C   UNL     1       1.931   9.943  18.253  0.00  0.00    +0.000 A 
ATOM     10  O   UNL     1       2.326  10.568  17.276  0.00  0.00    +0.000 OA
ATOM     11  N   UNL     1       1.097  10.485  19.181  0.00  0.00    +0.000 NA
ATOM     12  C   UNL     1       0.699   9.804  20.194  0.00  0.00    +0.000 A 
ATOM     13  N   UNL     1       1.031   8.512  20.479  0.00  0.00    +0.000 NA
ATOM     14  C   UNL     1       1.826   7.856  19.682  0.00  0.00    +0.000 A 
ATOM     15  N   UNL     1       2.189   6.530  19.944  0.00  0.00    +0.000 N 
ATOM     16  C   UNL     1       1.673   5.864  21.140  0.00  0.00    +0.000 C 
ENDROOT
BRANCH   1  18
ATOM     17  C   UNL     1       5.624   5.937  14.914  0.00  0.00    +0.000 C 
ATOM     18  O   UNL     1       4.872   6.611  15.921  0.00  0.00    +0.000 OA
ENDBRANCH   1  18
BRANCH   4  19
ATOM     19  O   UNL     1       3.026   3.780  20.345  0.00  0.00    +0.000 OA
ATOM     20  C   UNL     1       3.372   2.409  20.498  0.00  0.00    +0.000 C 
ENDBRANCH   4  19
BRANCH  12  21
ATOM     21  S   UNL     1      -0.380  10.572  21.355  0.00  0.00    +0.000 S 
ATOM     22  C   UNL     1      -0.384   9.343  22.681  0.00  0.00    +0.000 C 
ENDBRANCH  12  21
TORSDOF 3
ENDMDL
MODEL 3
REMARK VINA RESULT:      -6.1      2.093      4.147
REMARK  Name = 
REMARK  7 active torsions:
REMARK  status: ('A' for Active; 'I' for Inactive)
REMARK    1  A    between atoms: C_1  and  O_2
REMARK    2  A    between atoms: O_2  and  C_3
REMARK    3  A    between atoms: C_6  and  O_7
REMARK    4  A    between atoms: O_7  and  C_8
REMARK    5  A    between atoms: C_16  and  S_17
REMARK    6  A    between atoms: S_17  and  C_18
REMARK    7  A    between atoms: N_21  and  C_22
REMARK                            x       y       z     vdW  Elec       q    Type
REMARK                         _______ _______ _______ _____ _____    ______ ____
ROOT
ATOM      1  C   UNL     1       2.551   4.843  20.438  0.00  0.00    +0.000 A 
ATOM      2  C   UNL     1       3.458   4.168  19.630  0.00  0.00    +0.000 A 
ATOM      3  C   UNL     1       3.991   4.788  18.505  0.00  0.00    +0.000 A 
ATOM      4  C   UNL     1       3.636   6.099  18.154  0.00  0.00    +0.000 A 
ATOM      5  C   UNL     1       2.712   6.831  18.955  0.00  0.00    +0.000 A 
ATOM      6  C   UNL     1       2.180   6.170  20.110  0.00  0.00    +0.000 A 
ATOM      7  C   UNL     1       1.224   6.882  20.979  0.00  0.00    +0.000 A 
ATOM      8  C   UNL     1       0.831   8.133  20.718  0.00  0.00    +0.000 A 
ATOM      9  C   UNL     1      -0.123   8.847  21.579  0.00  0.00    +0.000 A 
ATOM     10  O   UNL     1      -0.599   8.325  22.580  0.00  0.00    +0.000 OA
ATOM     11  N   UNL     1      -0.439  10.112  21.192  0.00  0.00    +0.000 NA
ATOM     12  C   UNL     1       0.078  10.633  20.138  0.00  0.00    +0.000 A 
ATOM     13  N   UNL     1       0.968  10.034  19.296  0.00  0.00    +0.000 NA
ATOM     14  C   UNL     1       1.368   8.817  19.533  0.00  0.00    +0.000 A 
ATOM     15  N   UNL     1       2.279   8.172  18.689  0.00  0.00    +0.000 N 
ATOM     16  C   UNL     1       2.791   8.871  17.511  0.00  0.00    +0.000 C 
ENDROOT
BRANCH   1  18
ATOM     17  C   UNL     1       1.771   2.881  21.567  0.00  0.00    +0.000 C 
ATOM     18  O   UNL     1       1.983   4.291  21.560  0.00  0.00    +0.000 OA
ENDBRANCH   1  18
BRANCH   4  19
ATOM     19  O   UNL     1       4.165   6.704  17.042  0.00  0.00    +0.000 OA
ATOM     20  C   UNL     1       5.278   6.104  16.393  0.00  0.00    +0.000 C 
ENDBRANCH   4  19
BRANCH  12  21
ATOM     21  S   UNL     1      -0.379  12.276  19.699  0.00  0.00    +0.000 S 
ATOM     22  C   UNL     1      -1.578  11.955  18.383  0.00  0.00    +0.000 C 
ENDBRANCH  12  21
TORSDOF 3
ENDMDL
MODEL 4
REMARK VINA RESULT:      -6.0      1.922      3.827
REMARK  Name = 
REMARK  7 active torsions:
REMARK  status: ('A' for Active; 'I' for Inactive)
REMARK    1  A    between atoms: C_1  and  O_2
REMARK    2  A    between atoms: O_2  and  C_3
REMARK    3  A    between atoms: C_6  and  O_7
REMARK    4  A    between atoms: O_7  and  C_8
REMARK    5  A    between atoms: C_16  and  S_17
REMARK    6  A    between atoms: S_17  and  C_18
REMARK    7  A    between atoms: N_21  and  C_22
REMARK                            x       y       z     vdW  Elec       q    Type
REMARK                         _______ _______ _______ _____ _____    ______ ____
ROOT
ATOM      1  C   UNL     1       2.764   4.088  20.489  0.00  0.00    +0.000 A 
ATOM      2  C   UNL     1       3.553   3.194  19.775  0.00  0.00    +0.000 A 
ATOM      3  C   UNL     1       4.140   3.581  18.575  0.00  0.00    +0.000 A 
ATOM      4  C   UNL     1       3.959   4.871  18.054  0.00  0.00    +0.000 A 
ATOM      5  C   UNL     1       3.161   5.822  18.754  0.00  0.00    +0.000 A 
ATOM      6  C   UNL     1       2.570   5.399  19.989  0.00  0.00    +0.000 A 
ATOM      7  C   UNL     1       1.740   6.344  20.759  0.00  0.00    +0.000 A 
ATOM      8  C   UNL     1       1.515   7.591  20.336  0.00  0.00    +0.000 A 
ATOM      9  C   UNL     1       0.687   8.537  21.097  0.00  0.00    +0.000 A 
ATOM     10  O   UNL     1       0.166   8.222  22.161  0.00  0.00    +0.000 OA
ATOM     11  N   UNL     1       0.537   9.771  20.546  0.00  0.00    +0.000 NA
ATOM     12  C   UNL     1       1.097  10.073  19.430  0.00  0.00    +0.000 A 
ATOM     13  N   UNL     1       1.877   9.252  18.672  0.00  0.00    +0.000 NA
ATOM     14  C   UNL     1       2.113   8.033  19.067  0.00  0.00    +0.000 A 
ATOM     15  N   UNL     1       2.909   7.163  18.313  0.00  0.00    +0.000 N 
ATOM     16  C   UNL     1       3.485   7.624  17.051  0.00  0.00    +0.000 C 
ENDROOT
BRANCH   1  18
ATOM     17  C   UNL     1       1.366   2.582  21.719  0.00  0.00    +0.000 C 
ATOM     18  O   UNL     1       2.152   3.771  21.678  0.00  0.00    +0.000 OA
ENDBRANCH   1  18
BRANCH   4  19
ATOM     19  O   UNL     1       4.540   5.246  16.870  0.00  0.00    +0.000 OA
ATOM     20  C   UNL     1       5.457   4.360  16.239  0.00  0.00    +0.000 C 
ENDBRANCH   4  19
BRANCH  12  21
ATOM     21  S   UNL     1       0.857  11.691  18.778  0.00  0.00    +0.000 S 
ATOM     22  C   UNL     1      -0.367  12.347  19.935  0.00  0.00    +0.000 C 
ENDBRANCH  12  21
TORSDOF 3
ENDMDL
MODEL 5
REMARK VINA RESULT:      -5.8      3.623      5.924
REMARK  Name = 
REMARK  7 active torsions:
REMARK  status: ('A' for Active; 'I' for Inactive)
REMARK    1  A    between atoms: C_1  and  O_2
REMARK    2  A    between atoms: O_2  and  C_3
REMARK    3  A    between atoms: C_6  and  O_7
REMARK    4  A    between atoms: O_7  and  C_8
REMARK    5  A    between atoms: C_16  and  S_17
REMARK    6  A    between atoms: S_17  and  C_18
REMARK    7  A    between atoms: N_21  and  C_22
REMARK                            x       y       z     vdW  Elec       q    Type
REMARK                         _______ _______ _______ _____ _____    ______ ____
ROOT
ATOM      1  C   UNL     1       2.250   6.220  19.993  0.00  0.00    +0.000 A 
ATOM      2  C   UNL     1       1.453   5.468  20.848  0.00  0.00    +0.000 A 
ATOM      3  C   UNL     1       1.338   4.093  20.670  0.00  0.00    +0.000 A 
ATOM      4  C   UNL     1       2.014   3.429  19.635  0.00  0.00    +0.000 A 
ATOM      5  C   UNL     1       2.844   4.160  18.737  0.00  0.00    +0.000 A 
ATOM      6  C   UNL     1       2.949   5.574  18.944  0.00  0.00    +0.000 A 
ATOM      7  C   UNL     1       3.799   6.379  18.047  0.00  0.00    +0.000 A 
ATOM      8  C   UNL     1       4.477   5.828  17.036  0.00  0.00    +0.000 A 
ATOM      9  C   UNL     1       5.325   6.625  16.138  0.00  0.00    +0.000 A 
ATOM     10  O   UNL     1       5.449   7.836  16.280  0.00  0.00    +0.000 OA
ATOM     11  N   UNL     1       5.953   5.936  15.148  0.00  0.00    +0.000 NA
ATOM     12  C   UNL     1       5.804   4.666  15.025  0.00  0.00    +0.000 A 
ATOM     13  N   UNL     1       5.039   3.863  15.819  0.00  0.00    +0.000 NA
ATOM     14  C   UNL     1       4.372   4.379  16.813  0.00  0.00    +0.000 A 
ATOM     15  N   UNL     1       3.577   3.584  17.647  0.00  0.00    +0.000 N 
ATOM     16  C   UNL     1       3.483   2.146  17.398  0.00  0.00    +0.000 C 
ENDROOT
BRANCH   1  18
ATOM     17  C   UNL     1       1.364   8.311  20.750  0.00  0.00    +0.000 C 
ATOM     18  O   UNL     1       2.406   7.580  20.108  0.00  0.00    +0.000 OA
ENDBRANCH   1  18
BRANCH   4  19
ATOM     19  O   UNL     1       1.895   2.073  19.465  0.00  0.00    +0.000 OA
ATOM     20  C   UNL     1       0.639   1.533  19.074  0.00  0.00    +0.000 C 
ENDBRANCH   4  19
BRANCH  12  21
ATOM     21  S   UNL     1       6.649   3.841  13.718  0.00  0.00    +0.000 S 
ATOM     22  C   UNL     1       5.272   3.460  12.611  0.00  0.00    +0.000 C 
ENDBRANCH  12  21
TORSDOF 3
ENDMDL
MODEL 6
REMARK VINA RESULT:      -5.8      9.378     10.523
REMARK  Name = 
REMARK  7 active torsions:
REMARK  status: ('A' for Active; 'I' for Inactive)
REMARK    1  A    between atoms: C_1  and  O_2
REMARK    2  A    between atoms: O_2  and  C_3
REMARK    3  A    between atoms: C_6  and  O_7
REMARK    4  A    between atoms: O_7  and  C_8
REMARK    5  A    between atoms: C_16  and  S_17
REMARK    6  A    between atoms: S_17  and  C_18
REMARK    7  A    between atoms: N_21  and  C_22
REMARK                            x       y       z     vdW  Elec       q    Type
REMARK                         _______ _______ _______ _____ _____    ______ ____
ROOT
ATOM      1  C   UNL     1       9.799  11.142  18.990  0.00  0.00    +0.000 A 
ATOM      2  C   UNL     1      10.401  11.474  17.782  0.00  0.00    +0.000 A 
ATOM      3  C   UNL     1      10.895  12.759  17.575  0.00  0.00    +0.000 A 
ATOM      4  C   UNL     1      10.802  13.747  18.567  0.00  0.00    +0.000 A 
ATOM      5  C   UNL     1      10.196  13.450  19.822  0.00  0.00    +0.000 A 
ATOM      6  C   UNL     1       9.699  12.119  20.011  0.00  0.00    +0.000 A 
ATOM      7  C   UNL     1       9.067  11.754  21.292  0.00  0.00    +0.000 A 
ATOM      8  C   UNL     1       8.937  12.634  22.290  0.00  0.00    +0.000 A 
ATOM      9  C   UNL     1       8.306  12.277  23.569  0.00  0.00    +0.000 A 
ATOM     10  O   UNL     1       7.872  11.150  23.778  0.00  0.00    +0.000 OA
ATOM     11  N   UNL     1       8.236  13.272  24.493  0.00  0.00    +0.000 NA
ATOM     12  C   UNL     1       8.702  14.443  24.246  0.00  0.00    +0.000 A 
ATOM     13  N   UNL     1       9.299  14.845  23.088  0.00  0.00    +0.000 NA
ATOM     14  C   UNL     1       9.440  14.003  22.104  0.00  0.00    +0.000 A 
ATOM     15  N   UNL     1      10.048  14.382  20.902  0.00  0.00    +0.000 N 
ATOM     16  C   UNL     1      10.532  15.752  20.739  0.00  0.00    +0.000 C 
ENDROOT
BRANCH   1  18
ATOM     17  C   UNL     1       8.462   9.292  18.267  0.00  0.00    +0.000 C 
ATOM     18  O   UNL     1       9.287   9.896  19.260  0.00  0.00    +0.000 OA
ENDBRANCH   1  18
BRANCH   4  19
ATOM     19  O   UNL     1      11.290  15.011  18.355  0.00  0.00    +0.000 OA
ATOM     20  C   UNL     1      12.208  15.229  17.291  0.00  0.00    +0.000 C 
ENDBRANCH   4  19
BRANCH  12  21
ATOM     21  S   UNL     1       8.574  15.681  25.492  0.00  0.00    +0.000 S 
ATOM     22  C   UNL     1       7.237  15.008  26.505  0.00  0.00    +0.000 C 
ENDBRANCH  12  21
TORSDOF 3
ENDMDL
MODEL 7
REMARK VINA RESULT:      -5.7      4.927      7.693
REMARK  Name = 
REMARK  7 active torsions:
REMARK  status: ('A' for Active; 'I' for Inactive)
REMARK    1  A    between atoms: C_1  and  O_2
REMARK    2  A    between atoms: O_2  and  C_3
REMARK    3  A    between atoms: C_6  and  O_7
REMARK    4  A    between atoms: O_7  and  C_8
REMARK    5  A    between atoms: C_16  and  S_17
REMARK    6  A    between atoms: S_17  and  C_18
REMARK    7  A    between atoms: N_21  and  C_22
REMARK                            x       y       z     vdW  Elec       q    Type
REMARK                         _______ _______ _______ _____ _____    ______ ____
ROOT
ATOM      1  C   UNL     1       0.585   9.799  18.826  0.00  0.00    +0.000 A 
ATOM      2  C   UNL     1       1.343   9.954  19.980  0.00  0.00    +0.000 A 
ATOM      3  C   UNL     1       0.857  10.714  21.040  0.00  0.00    +0.000 A 
ATOM      4  C   UNL     1      -0.397  11.339  20.979  0.00  0.00    +0.000 A 
ATOM      5  C   UNL     1      -1.210  11.204  19.816  0.00  0.00    +0.000 A 
ATOM      6  C   UNL     1      -0.688  10.414  18.740  0.00  0.00    +0.000 A 
ATOM      7  C   UNL     1      -1.489  10.236  17.514  0.00  0.00    +0.000 A 
ATOM      8  C   UNL     1      -2.693  10.797  17.371  0.00  0.00    +0.000 A 
ATOM      9  C   UNL     1      -3.495  10.625  16.152  0.00  0.00    +0.000 A 
ATOM     10  O   UNL     1      -3.093   9.953  15.209  0.00  0.00    +0.000 OA
ATOM     11  N   UNL     1      -4.700  11.256  16.140  0.00  0.00    +0.000 NA
ATOM     12  C   UNL     1      -5.096  11.951  17.145  0.00  0.00    +0.000 A 
ATOM     13  N   UNL     1      -4.410  12.153  18.306  0.00  0.00    +0.000 NA
ATOM     14  C   UNL     1      -3.235  11.613  18.468  0.00  0.00    +0.000 A 
ATOM     15  N   UNL     1      -2.503  11.800  19.646  0.00  0.00    +0.000 N 
ATOM     16  C   UNL     1      -3.061  12.624  20.718  0.00  0.00    +0.000 C 
ENDROOT
BRANCH   1  18
ATOM     17  C   UNL     1       2.340   8.569  17.757  0.00  0.00    +0.000 C 
ATOM     18  O   UNL     1       1.004   9.068  17.741  0.00  0.00    +0.000 OA
ENDBRANCH   1  18
BRANCH   4  19
ATOM     19  O   UNL     1      -0.869  12.087  22.027  0.00  0.00    +0.000 OA
ATOM     20  C   UNL     1      -1.238  11.431  23.234  0.00  0.00    +0.000 C 
ENDBRANCH   4  19
BRANCH  12  21
ATOM     21  S   UNL     1      -6.667  12.740  17.057  0.00  0.00    +0.000 S 
ATOM     22  C   UNL     1      -7.380  12.258  18.647  0.00  0.00    +0.000 C 
ENDBRANCH  12  21
TORSDOF 3
ENDMDL
MODEL 8
REMARK VINA RESULT:      -5.5      3.053      7.198
REMARK  Name = 
REMARK  7 active torsions:
REMARK  status: ('A' for Active; 'I' for Inactive)
REMARK    1  A    between atoms: C_1  and  O_2
REMARK    2  A    between atoms: O_2  and  C_3
REMARK    3  A    between atoms: C_6  and  O_7
REMARK    4  A    between atoms: O_7  and  C_8
REMARK    5  A    between atoms: C_16  and  S_17
REMARK    6  A    between atoms: S_17  and  C_18
REMARK    7  A    between atoms: N_21  and  C_22
REMARK                            x       y       z     vdW  Elec       q    Type
REMARK                         _______ _______ _______ _____ _____    ______ ____
ROOT
ATOM      1  C   UNL     1       0.579  12.768  19.375  0.00  0.00    +0.000 A 
ATOM      2  C   UNL     1      -0.055  13.691  20.198  0.00  0.00    +0.000 A 
ATOM      3  C   UNL     1      -0.540  13.303  21.442  0.00  0.00    +0.000 A 
ATOM      4  C   UNL     1      -0.407  11.984  21.902  0.00  0.00    +0.000 A 
ATOM      5  C   UNL     1       0.240  11.005  21.093  0.00  0.00    +0.000 A 
ATOM      6  C   UNL     1       0.734  11.431  19.817  0.00  0.00    +0.000 A 
ATOM      7  C   UNL     1       1.416  10.461  18.941  0.00  0.00    +0.000 A 
ATOM      8  C   UNL     1       1.586   9.184  19.300  0.00  0.00    +0.000 A 
ATOM      9  C   UNL     1       2.264   8.212  18.431  0.00  0.00    +0.000 A 
ATOM     10  O   UNL     1       2.708   8.532  17.334  0.00  0.00    +0.000 OA
ATOM     11  N   UNL     1       2.362   6.946  18.919  0.00  0.00    +0.000 NA
ATOM     12  C   UNL     1       1.888   6.642  20.073  0.00  0.00    +0.000 A 
ATOM     13  N   UNL     1       1.251   7.487  20.933  0.00  0.00    +0.000 NA
ATOM     14  C   UNL     1       1.078   8.737  20.605  0.00  0.00    +0.000 A 
ATOM     15  N   UNL     1       0.429   9.632  21.463  0.00  0.00    +0.000 N 
ATOM     16  C   UNL     1      -0.075   9.159  22.752  0.00  0.00    +0.000 C 
ENDROOT
BRANCH   1  18
ATOM     17  C   UNL     1       2.209  13.947  18.077  0.00  0.00    +0.000 C 
ATOM     18  O   UNL     1       1.079  13.080  18.133  0.00  0.00    +0.000 OA
ENDBRANCH   1  18
BRANCH   4  19
ATOM     19  O   UNL     1      -0.889  11.609  23.130  0.00  0.00    +0.000 OA
ATOM     20  C   UNL     1      -2.223  11.950  23.483  0.00  0.00    +0.000 C 
ENDBRANCH   4  19
BRANCH  12  21
ATOM     21  S   UNL     1       2.052   4.982  20.640  0.00  0.00    +0.000 S 
ATOM     22  C   UNL     1       1.692   4.068  19.122  0.00  0.00    +0.000 C 
ENDBRANCH  12  21
TORSDOF 3
ENDMDL
MODEL 9
REMARK VINA RESULT:      -5.5      1.994      3.761
REMARK  Name = 
REMARK  7 active torsions:
REMARK  status: ('A' for Active; 'I' for Inactive)
REMARK    1  A    between atoms: C_1  and  O_2
REMARK    2  A    between atoms: O_2  and  C_3
REMARK    3  A    between atoms: C_6  and  O_7
REMARK    4  A    between atoms: O_7  and  C_8
REMARK    5  A    between atoms: C_16  and  S_17
REMARK    6  A    between atoms: S_17  and  C_18
REMARK    7  A    between atoms: N_21  and  C_22
REMARK                            x       y       z     vdW  Elec       q    Type
REMARK                         _______ _______ _______ _____ _____    ______ ____
ROOT
ATOM      1  C   UNL     1       2.587   3.676  19.629  0.00  0.00    +0.000 A 
ATOM      2  C   UNL     1       3.298   2.693  18.951  0.00  0.00    +0.000 A 
ATOM      3  C   UNL     1       4.062   3.024  17.836  0.00  0.00    +0.000 A 
ATOM      4  C   UNL     1       4.139   4.344  17.367  0.00  0.00    +0.000 A 
ATOM      5  C   UNL     1       3.429   5.385  18.034  0.00  0.00    +0.000 A 
ATOM      6  C   UNL     1       2.653   5.018  19.181  0.00  0.00    +0.000 A 
ATOM      7  C   UNL     1       1.902   6.056  19.913  0.00  0.00    +0.000 A 
ATOM      8  C   UNL     1       1.920   7.337  19.534  0.00  0.00    +0.000 A 
ATOM      9  C   UNL     1       1.173   8.376  20.258  0.00  0.00    +0.000 A 
ATOM     10  O   UNL     1       0.501   8.110  21.248  0.00  0.00    +0.000 OA
ATOM     11  N   UNL     1       1.276   9.637  19.760  0.00  0.00    +0.000 NA
ATOM     12  C   UNL     1       1.991   9.885  18.722  0.00  0.00    +0.000 A 
ATOM     13  N   UNL     1       2.710   8.977  18.002  0.00  0.00    +0.000 NA
ATOM     14  C   UNL     1       2.710   7.722  18.355  0.00  0.00    +0.000 A 
ATOM     15  N   UNL     1       3.437   6.764  17.640  0.00  0.00    +0.000 N 
ATOM     16  C   UNL     1       4.207   7.171  16.466  0.00  0.00    +0.000 C 
ENDROOT
BRANCH   1  18
ATOM     17  C   UNL     1       2.382   2.628  21.772  0.00  0.00    +0.000 C 
ATOM     18  O   UNL     1       1.810   3.420  20.733  0.00  0.00    +0.000 OA
ENDBRANCH   1  18
BRANCH   4  19
ATOM     19  O   UNL     1       4.893   4.663  16.267  0.00  0.00    +0.000 OA
ATOM     20  C   UNL     1       6.130   3.991  16.058  0.00  0.00    +0.000 C 
ENDBRANCH   4  19
BRANCH  12  21
ATOM     21  S   UNL     1       2.076  11.542  18.133  0.00  0.00    +0.000 S 
ATOM     22  C   UNL     1       0.585  12.245  18.877  0.00  0.00    +0.000 C 
ENDBRANCH  12  21
TORSDOF 3
ENDMDL
