MODEL 1
REMARK VINA RESULT:      -8.1      0.000      0.000
REMARK  Name = 
REMARK  6 active torsions:
REMARK  status: ('A' for Active; 'I' for Inactive)
REMARK    1  A    between atoms: C_1  and  N_2
REMARK    2  A    between atoms: N_2  and  C_21
REMARK    3  A    between atoms: C_3  and  O_5
REMARK    4  A    between atoms: O_5  and  C_6
REMARK    5  A    between atoms: C_9  and  C_10
REMARK    6  A    between atoms: C_10  and  C_12
REMARK                            x       y       z     vdW  Elec       q    Type
REMARK                         _______ _______ _______ _____ _____    ______ ____
ROOT
ATOM      1  C   UNL     1       2.324   7.127  19.599  0.00  0.00    +0.000 A 
ATOM      2  C   UNL     1       2.424   7.747  18.355  0.00  0.00    +0.000 A 
ATOM      3  C   UNL     1       1.804   8.987  18.157  0.00  0.00    +0.000 A 
ATOM      4  C   UNL     1       1.088   9.598  19.199  0.00  0.00    +0.000 A 
ATOM      5  C   UNL     1       0.962   8.942  20.428  0.00  0.00    +0.000 A 
ATOM      6  C   UNL     1       1.575   7.707  20.626  0.00  0.00    +0.000 A 
ENDROOT
BRANCH   4   7
ATOM      7  C   UNL     1       0.422  10.905  18.948  0.00  0.00    +0.000 C 
ATOM      8  O   UNL     1       1.085  11.936  18.989  0.00  0.00    +0.000 OA
BRANCH   7   9
ATOM      9  C   UNL     1      -1.027  10.991  18.615  0.00  0.00    +0.000 A 
ATOM     10  C   UNL     1      -1.545  10.111  17.654  0.00  0.00    +0.000 A 
ATOM     11  C   UNL     1      -2.904  10.143  17.332  0.00  0.00    +0.000 A 
ATOM     12  C   UNL     1      -3.744  11.060  17.963  0.00  0.00    +0.000 A 
ATOM     13 CL   UNL     1      -5.421  11.086  17.585  0.00  0.00    +0.000 Cl
ATOM     14  C   UNL     1      -3.232  11.958  18.899  0.00  0.00    +0.000 A 
ATOM     15  C   UNL     1      -1.871  11.934  19.216  0.00  0.00    +0.000 A 
ENDBRANCH   7   9
ENDBRANCH   4   7
BRANCH   1  16
ATOM     16  O   UNL     1       2.888   5.846  19.744  0.00  0.00    +0.000 OA
BRANCH  16  19
ATOM     17  C   UNL     1       5.556   5.434  19.354  0.00  0.00    +0.000 C 
ATOM     18  N   UNL     1       4.591   5.198  18.285  0.00  0.00    +0.000 N 
ATOM     19  C   UNL     1       3.219   5.173  18.562  0.00  0.00    +0.000 C 
ATOM     20  O   UNL     1       2.364   4.653  17.847  0.00  0.00    +0.000 OA
BRANCH  18  21
ATOM     21  C   UNL     1       5.083   4.990  16.948  0.00  0.00    +0.000 A 
ATOM     22  C   UNL     1       5.517   3.721  16.525  0.00  0.00    +0.000 A 
ATOM     23  C   UNL     1       6.004   3.505  15.232  0.00  0.00    +0.000 A 
ATOM     24  C   UNL     1       6.065   4.556  14.328  0.00  0.00    +0.000 A 
ATOM     25  C   UNL     1       5.611   5.814  14.709  0.00  0.00    +0.000 A 
ATOM     26  C   UNL     1       5.111   6.026  16.002  0.00  0.00    +0.000 A 
ENDBRANCH  18  21
ENDBRANCH  16  19
ENDBRANCH   1  16
TORSDOF 5
ENDMDL
MODEL 2
REMARK VINA RESULT:      -8.0      0.340      1.378
REMARK  Name = 
REMARK  6 active torsions:
REMARK  status: ('A' for Active; 'I' for Inactive)
REMARK    1  A    between atoms: C_1  and  N_2
REMARK    2  A    between atoms: N_2  and  C_21
REMARK    3  A    between atoms: C_3  and  O_5
REMARK    4  A    between atoms: O_5  and  C_6
REMARK    5  A    between atoms: C_9  and  C_10
REMARK    6  A    between atoms: C_10  and  C_12
REMARK                            x       y       z     vdW  Elec       q    Type
REMARK                         _______ _______ _______ _____ _____    ______ ____
ROOT
ATOM      1  C   UNL     1       2.283   7.489  19.542  0.00  0.00    +0.000 A 
ATOM      2  C   UNL     1       2.341   8.079  18.281  0.00  0.00    +0.000 A 
ATOM      3  C   UNL     1       1.623   9.258  18.045  0.00  0.00    +0.000 A 
ATOM      4  C   UNL     1       0.854   9.839  19.066  0.00  0.00    +0.000 A 
ATOM      5  C   UNL     1       0.773   9.210  20.313  0.00  0.00    +0.000 A 
ATOM      6  C   UNL     1       1.484   8.035  20.549  0.00  0.00    +0.000 A 
ENDROOT
BRANCH   4   7
ATOM      7  C   UNL     1       0.086  11.079  18.774  0.00  0.00    +0.000 C 
ATOM      8  O   UNL     1       0.679  12.151  18.701  0.00  0.00    +0.000 OA
BRANCH   7   9
ATOM      9  C   UNL     1      -1.384  11.048  18.536  0.00  0.00    +0.000 A 
ATOM     10  C   UNL     1      -2.187  11.989  19.197  0.00  0.00    +0.000 A 
ATOM     11  C   UNL     1      -3.567  12.009  18.981  0.00  0.00    +0.000 A 
ATOM     12  C   UNL     1      -4.146  11.085  18.112  0.00  0.00    +0.000 A 
ATOM     13 CL   UNL     1      -5.841  11.123  17.827  0.00  0.00    +0.000 Cl
ATOM     14  C   UNL     1      -3.359  10.128  17.473  0.00  0.00    +0.000 A 
ATOM     15  C   UNL     1      -1.979  10.099  17.694  0.00  0.00    +0.000 A 
ENDBRANCH   7   9
ENDBRANCH   4   7
BRANCH   1  16
ATOM     16  O   UNL     1       2.949   6.262  19.727  0.00  0.00    +0.000 OA
BRANCH  16  19
ATOM     17  C   UNL     1       5.560   5.560  19.362  0.00  0.00    +0.000 C 
ATOM     18  N   UNL     1       4.575   5.386  18.299  0.00  0.00    +0.000 N 
ATOM     19  C   UNL     1       3.208   5.513  18.572  0.00  0.00    +0.000 C 
ATOM     20  O   UNL     1       2.303   5.058  17.874  0.00  0.00    +0.000 OA
BRANCH  18  21
ATOM     21  C   UNL     1       5.043   5.076  16.973  0.00  0.00    +0.000 A 
ATOM     22  C   UNL     1       5.169   6.079  15.996  0.00  0.00    +0.000 A 
ATOM     23  C   UNL     1       5.614   5.792  14.702  0.00  0.00    +0.000 A 
ATOM     24  C   UNL     1       5.949   4.490  14.355  0.00  0.00    +0.000 A 
ATOM     25  C   UNL     1       5.866   3.484  15.311  0.00  0.00    +0.000 A 
ATOM     26  C   UNL     1       5.432   3.776  16.613  0.00  0.00    +0.000 A 
ENDBRANCH  18  21
ENDBRANCH  16  19
ENDBRANCH   1  16
TORSDOF 5
ENDMDL
MODEL 3
REMARK VINA RESULT:      -8.0      0.181      1.648
REMARK  Name = 
REMARK  6 active torsions:
REMARK  status: ('A' for Active; 'I' for Inactive)
REMARK    1  A    between atoms: C_1  and  N_2
REMARK    2  A    between atoms: N_2  and  C_21
REMARK    3  A    between atoms: C_3  and  O_5
REMARK    4  A    between atoms: O_5  and  C_6
REMARK    5  A    between atoms: C_9  and  C_10
REMARK    6  A    between atoms: C_10  and  C_12
REMARK                            x       y       z     vdW  Elec       q    Type
REMARK                         _______ _______ _______ _____ _____    ______ ____
ROOT
ATOM      1  C   UNL     1       2.334   7.181  19.466  0.00  0.00    +0.000 A 
ATOM      2  C   UNL     1       1.624   7.730  20.532  0.00  0.00    +0.000 A 
ATOM      3  C   UNL     1       0.954   8.946  20.353  0.00  0.00    +0.000 A 
ATOM      4  C   UNL     1       0.997   9.606  19.114  0.00  0.00    +0.000 A 
ATOM      5  C   UNL     1       1.750   9.063  18.068  0.00  0.00    +0.000 A 
ATOM      6  C   UNL     1       2.420   7.854  18.244  0.00  0.00    +0.000 A 
ENDROOT
BRANCH   4   7
ATOM      7  C   UNL     1       0.293  10.908  18.965  0.00  0.00    +0.000 C 
ATOM      8  O   UNL     1       0.917  11.952  19.135  0.00  0.00    +0.000 OA
BRANCH   7   9
ATOM      9  C   UNL     1      -1.145  10.979  18.584  0.00  0.00    +0.000 A 
ATOM     10  C   UNL     1      -1.982  11.851  19.295  0.00  0.00    +0.000 A 
ATOM     11  C   UNL     1      -3.331  11.965  18.951  0.00  0.00    +0.000 A 
ATOM     12  C   UNL     1      -3.846  11.202  17.904  0.00  0.00    +0.000 A 
ATOM     13 CL   UNL     1      -5.501  11.357  17.464  0.00  0.00    +0.000 Cl
ATOM     14  C   UNL     1      -3.027  10.311  17.210  0.00  0.00    +0.000 A 
ATOM     15  C   UNL     1      -1.679  10.188  17.558  0.00  0.00    +0.000 A 
ENDBRANCH   7   9
ENDBRANCH   4   7
BRANCH   1  16
ATOM     16  O   UNL     1       3.063   6.000  19.698  0.00  0.00    +0.000 OA
BRANCH  16  19
ATOM     17  C   UNL     1       5.734   5.688  19.238  0.00  0.00    +0.000 C 
ATOM     18  N   UNL     1       4.745   5.304  18.235  0.00  0.00    +0.000 N 
ATOM     19  C   UNL     1       3.387   5.236  18.570  0.00  0.00    +0.000 C 
ATOM     20  O   UNL     1       2.536   4.608  17.941  0.00  0.00    +0.000 OA
BRANCH  18  21
ATOM     21  C   UNL     1       5.199   4.996  16.904  0.00  0.00    +0.000 A 
ATOM     22  C   UNL     1       5.199   5.973  15.894  0.00  0.00    +0.000 A 
ATOM     23  C   UNL     1       5.630   5.686  14.594  0.00  0.00    +0.000 A 
ATOM     24  C   UNL     1       6.077   4.412  14.276  0.00  0.00    +0.000 A 
ATOM     25  C   UNL     1       6.120   3.435  15.265  0.00  0.00    +0.000 A 
ATOM     26  C   UNL     1       5.699   3.728  16.571  0.00  0.00    +0.000 A 
ENDBRANCH  18  21
ENDBRANCH  16  19
ENDBRANCH   1  16
TORSDOF 5
ENDMDL
MODEL 4
REMARK VINA RESULT:      -7.9      0.683      1.279
REMARK  Name = 
REMARK  6 active torsions:
REMARK  status: ('A' for Active; 'I' for Inactive)
REMARK    1  A    between atoms: C_1  and  N_2
REMARK    2  A    between atoms: N_2  and  C_21
REMARK    3  A    between atoms: C_3  and  O_5
REMARK    4  A    between atoms: O_5  and  C_6
REMARK    5  A    between atoms: C_9  and  C_10
REMARK    6  A    between atoms: C_10  and  C_12
REMARK                            x       y       z     vdW  Elec       q    Type
REMARK                         _______ _______ _______ _____ _____    ______ ____
ROOT
ATOM      1  C   UNL     1       2.555   6.947  19.269  0.00  0.00    +0.000 A 
ATOM      2  C   UNL     1       1.823   7.478  20.330  0.00  0.00    +0.000 A 
ATOM      3  C   UNL     1       1.188   8.715  20.170  0.00  0.00    +0.000 A 
ATOM      4  C   UNL     1       1.287   9.414  18.956  0.00  0.00    +0.000 A 
ATOM      5  C   UNL     1       2.061   8.887  17.916  0.00  0.00    +0.000 A 
ATOM      6  C   UNL     1       2.697   7.657  18.074  0.00  0.00    +0.000 A 
ENDROOT
BRANCH   4   7
ATOM      7  C   UNL     1       0.619  10.737  18.828  0.00  0.00    +0.000 C 
ATOM      8  O   UNL     1       1.287  11.761  18.938  0.00  0.00    +0.000 OA
BRANCH   7   9
ATOM      9  C   UNL     1      -0.837  10.852  18.537  0.00  0.00    +0.000 A 
ATOM     10  C   UNL     1      -1.392  10.008  17.565  0.00  0.00    +0.000 A 
ATOM     11  C   UNL     1      -2.759  10.067  17.282  0.00  0.00    +0.000 A 
ATOM     12  C   UNL     1      -3.569  10.976  17.962  0.00  0.00    +0.000 A 
ATOM     13 CL   UNL     1      -5.255  11.035  17.631  0.00  0.00    +0.000 Cl
ATOM     14  C   UNL     1      -3.019  11.839  18.910  0.00  0.00    +0.000 A 
ATOM     15  C   UNL     1      -1.651  11.788  19.189  0.00  0.00    +0.000 A 
ENDBRANCH   7   9
ENDBRANCH   4   7
BRANCH   1  16
ATOM     16  O   UNL     1       3.248   5.741  19.485  0.00  0.00    +0.000 OA
BRANCH  16  19
ATOM     17  C   UNL     1       5.940   5.364  19.255  0.00  0.00    +0.000 C 
ATOM     18  N   UNL     1       5.041   5.085  18.140  0.00  0.00    +0.000 N 
ATOM     19  C   UNL     1       3.655   5.043  18.341  0.00  0.00    +0.000 C 
ATOM     20  O   UNL     1       2.850   4.490  17.594  0.00  0.00    +0.000 OA
BRANCH  18  21
ATOM     21  C   UNL     1       5.610   4.850  16.839  0.00  0.00    +0.000 A 
ATOM     22  C   UNL     1       6.930   5.233  16.545  0.00  0.00    +0.000 A 
ATOM     23  C   UNL     1       7.495   5.018  15.284  0.00  0.00    +0.000 A 
ATOM     24  C   UNL     1       6.749   4.409  14.284  0.00  0.00    +0.000 A 
ATOM     25  C   UNL     1       5.451   3.989  14.557  0.00  0.00    +0.000 A 
ATOM     26  C   UNL     1       4.892   4.194  15.827  0.00  0.00    +0.000 A 
ENDBRANCH  18  21
ENDBRANCH  16  19
ENDBRANCH   1  16
TORSDOF 5
ENDMDL
MODEL 5
REMARK VINA RESULT:      -7.7      3.997      8.621
REMARK  Name = 
REMARK  6 active torsions:
REMARK  status: ('A' for Active; 'I' for Inactive)
REMARK    1  A    between atoms: C_1  and  N_2
REMARK    2  A    between atoms: N_2  and  C_21
REMARK    3  A    between atoms: C_3  and  O_5
REMARK    4  A    between atoms: O_5  and  C_6
REMARK    5  A    between atoms: C_9  and  C_10
REMARK    6  A    between atoms: C_10  and  C_12
REMARK                            x       y       z     vdW  Elec       q    Type
REMARK                         _______ _______ _______ _____ _____    ______ ____
ROOT
ATOM      1  C   UNL     1       0.907   9.454  19.739  0.00  0.00    +0.000 A 
ATOM      2  C   UNL     1       1.063   8.589  20.820  0.00  0.00    +0.000 A 
ATOM      3  C   UNL     1       1.825   7.425  20.660  0.00  0.00    +0.000 A 
ATOM      4  C   UNL     1       2.423   7.132  19.424  0.00  0.00    +0.000 A 
ATOM      5  C   UNL     1       2.221   7.989  18.337  0.00  0.00    +0.000 A 
ATOM      6  C   UNL     1       1.461   9.146  18.494  0.00  0.00    +0.000 A 
ENDROOT
BRANCH   4   7
ATOM      7  C   UNL     1       3.206   5.875  19.281  0.00  0.00    +0.000 C 
ATOM      8  O   UNL     1       3.180   5.044  20.185  0.00  0.00    +0.000 OA
BRANCH   7   9
ATOM      9  C   UNL     1       3.998   5.583  18.054  0.00  0.00    +0.000 A 
ATOM     10  C   UNL     1       3.847   4.330  17.444  0.00  0.00    +0.000 A 
ATOM     11  C   UNL     1       4.552   4.028  16.277  0.00  0.00    +0.000 A 
ATOM     12  C   UNL     1       5.417   4.973  15.725  0.00  0.00    +0.000 A 
ATOM     13 CL   UNL     1       6.269   4.611  14.277  0.00  0.00    +0.000 Cl
ATOM     14  C   UNL     1       5.595   6.211  16.342  0.00  0.00    +0.000 A 
ATOM     15  C   UNL     1       4.897   6.513  17.515  0.00  0.00    +0.000 A 
ENDBRANCH   7   9
ENDBRANCH   4   7
BRANCH   1  16
ATOM     16  O   UNL     1       0.071  10.574  19.906  0.00  0.00    +0.000 OA
BRANCH  16  19
ATOM     17  C   UNL     1      -0.788  12.524  18.203  0.00  0.00    +0.000 C 
ATOM     18  N   UNL     1       0.416  12.702  19.009  0.00  0.00    +0.000 N 
ATOM     19  C   UNL     1       0.709  11.812  20.050  0.00  0.00    +0.000 C 
ATOM     20  O   UNL     1       1.469  12.050  20.988  0.00  0.00    +0.000 OA
BRANCH  18  21
ATOM     21  C   UNL     1       1.287  13.809  18.711  0.00  0.00    +0.000 A 
ATOM     22  C   UNL     1       0.888  15.133  18.966  0.00  0.00    +0.000 A 
ATOM     23  C   UNL     1       1.720  16.220  18.675  0.00  0.00    +0.000 A 
ATOM     24  C   UNL     1       2.975  16.005  18.124  0.00  0.00    +0.000 A 
ATOM     25  C   UNL     1       3.408  14.704  17.892  0.00  0.00    +0.000 A 
ATOM     26  C   UNL     1       2.578  13.615  18.197  0.00  0.00    +0.000 A 
ENDBRANCH  18  21
ENDBRANCH  16  19
ENDBRANCH   1  16
TORSDOF 5
ENDMDL
MODEL 6
REMARK VINA RESULT:      -7.6      3.818      9.303
REMARK  Name = 
REMARK  6 active torsions:
REMARK  status: ('A' for Active; 'I' for Inactive)
REMARK    1  A    between atoms: C_1  and  N_2
REMARK    2  A    between atoms: N_2  and  C_21
REMARK    3  A    between atoms: C_3  and  O_5
REMARK    4  A    between atoms: O_5  and  C_6
REMARK    5  A    between atoms: C_9  and  C_10
REMARK    6  A    between atoms: C_10  and  C_12
REMARK                            x       y       z     vdW  Elec       q    Type
REMARK                         _______ _______ _______ _____ _____    ______ ____
ROOT
ATOM      1  C   UNL     1       1.053   9.962  18.981  0.00  0.00    +0.000 A 
ATOM      2  C   UNL     1       1.632   9.382  17.854  0.00  0.00    +0.000 A 
ATOM      3  C   UNL     1       2.223   8.117  17.963  0.00  0.00    +0.000 A 
ATOM      4  C   UNL     1       2.232   7.440  19.193  0.00  0.00    +0.000 A 
ATOM      5  C   UNL     1       1.684   8.055  20.324  0.00  0.00    +0.000 A 
ATOM      6  C   UNL     1       1.099   9.315  20.219  0.00  0.00    +0.000 A 
ENDROOT
BRANCH   4   7
ATOM      7  C   UNL     1       2.888   6.108  19.279  0.00  0.00    +0.000 C 
ATOM      8  O   UNL     1       2.703   5.409  20.271  0.00  0.00    +0.000 OA
BRANCH   7   9
ATOM      9  C   UNL     1       3.741   5.585  18.175  0.00  0.00    +0.000 A 
ATOM     10  C   UNL     1       3.480   4.299  17.683  0.00  0.00    +0.000 A 
ATOM     11  C   UNL     1       4.240   3.782  16.631  0.00  0.00    +0.000 A 
ATOM     12  C   UNL     1       5.268   4.546  16.078  0.00  0.00    +0.000 A 
ATOM     13 CL   UNL     1       6.191   3.921  14.770  0.00  0.00    +0.000 Cl
ATOM     14  C   UNL     1       5.553   5.815  16.582  0.00  0.00    +0.000 A 
ATOM     15  C   UNL     1       4.799   6.331  17.640  0.00  0.00    +0.000 A 
ENDBRANCH   7   9
ENDBRANCH   4   7
BRANCH   1  16
ATOM     16  O   UNL     1       0.539  11.267  18.861  0.00  0.00    +0.000 OA
BRANCH  16  19
ATOM     17  C   UNL     1       0.166  13.552  20.304  0.00  0.00    +0.000 C 
ATOM     18  N   UNL     1      -0.857  12.512  20.257  0.00  0.00    +0.000 N 
ATOM     19  C   UNL     1      -0.765  11.468  19.328  0.00  0.00    +0.000 C 
ATOM     20  O   UNL     1      -1.704  10.762  18.965  0.00  0.00    +0.000 OA
BRANCH  18  21
ATOM     21  C   UNL     1      -1.958  12.589  21.182  0.00  0.00    +0.000 A 
ATOM     22  C   UNL     1      -1.854  12.058  22.479  0.00  0.00    +0.000 A 
ATOM     23  C   UNL     1      -2.918  12.118  23.385  0.00  0.00    +0.000 A 
ATOM     24  C   UNL     1      -4.113  12.718  23.014  0.00  0.00    +0.000 A 
ATOM     25  C   UNL     1      -4.232  13.282  21.749  0.00  0.00    +0.000 A 
ATOM     26  C   UNL     1      -3.160  13.232  20.846  0.00  0.00    +0.000 A 
ENDBRANCH  18  21
ENDBRANCH  16  19
ENDBRANCH   1  16
TORSDOF 5
ENDMDL
MODEL 7
REMARK VINA RESULT:      -7.5      3.831      9.345
REMARK  Name = 
REMARK  6 active torsions:
REMARK  status: ('A' for Active; 'I' for Inactive)
REMARK    1  A    between atoms: C_1  and  N_2
REMARK    2  A    between atoms: N_2  and  C_21
REMARK    3  A    between atoms: C_3  and  O_5
REMARK    4  A    between atoms: O_5  and  C_6
REMARK    5  A    between atoms: C_9  and  C_10
REMARK    6  A    between atoms: C_10  and  C_12
REMARK                            x       y       z     vdW  Elec       q    Type
REMARK                         _______ _______ _______ _____ _____    ______ ____
ROOT
ATOM      1  C   UNL     1       1.059   9.893  18.934  0.00  0.00    +0.000 A 
ATOM      2  C   UNL     1       1.647   9.316  17.810  0.00  0.00    +0.000 A 
ATOM      3  C   UNL     1       2.266   8.066  17.928  0.00  0.00    +0.000 A 
ATOM      4  C   UNL     1       2.295   7.401  19.164  0.00  0.00    +0.000 A 
ATOM      5  C   UNL     1       1.738   8.013  20.292  0.00  0.00    +0.000 A 
ATOM      6  C   UNL     1       1.124   9.259  20.177  0.00  0.00    +0.000 A 
ENDROOT
BRANCH   4   7
ATOM      7  C   UNL     1       2.981   6.084  19.260  0.00  0.00    +0.000 C 
ATOM      8  O   UNL     1       2.864   5.418  20.284  0.00  0.00    +0.000 OA
BRANCH   7   9
ATOM      9  C   UNL     1       3.781   5.537  18.129  0.00  0.00    +0.000 A 
ATOM     10  C   UNL     1       4.843   6.304  17.630  0.00  0.00    +0.000 A 
ATOM     11  C   UNL     1       5.633   5.814  16.587  0.00  0.00    +0.000 A 
ATOM     12  C   UNL     1       5.357   4.563  16.037  0.00  0.00    +0.000 A 
ATOM     13 CL   UNL     1       6.341   3.949  14.768  0.00  0.00    +0.000 Cl
ATOM     14  C   UNL     1       4.284   3.806  16.508  0.00  0.00    +0.000 A 
ATOM     15  C   UNL     1       3.487   4.297  17.545  0.00  0.00    +0.000 A 
ENDBRANCH   7   9
ENDBRANCH   4   7
BRANCH   1  16
ATOM     16  O   UNL     1       0.516  11.185  18.804  0.00  0.00    +0.000 OA
BRANCH  16  19
ATOM     17  C   UNL     1       0.178  13.476  20.247  0.00  0.00    +0.000 C 
ATOM     18  N   UNL     1      -0.835  12.424  20.249  0.00  0.00    +0.000 N 
ATOM     19  C   UNL     1      -0.770  11.375  19.324  0.00  0.00    +0.000 C 
ATOM     20  O   UNL     1      -1.715  10.657  19.004  0.00  0.00    +0.000 OA
BRANCH  18  21
ATOM     21  C   UNL     1      -1.898  12.496  21.218  0.00  0.00    +0.000 A 
ATOM     22  C   UNL     1      -3.134  13.081  20.896  0.00  0.00    +0.000 A 
ATOM     23  C   UNL     1      -4.173  13.164  21.829  0.00  0.00    +0.000 A 
ATOM     24  C   UNL     1      -3.999  12.657  23.109  0.00  0.00    +0.000 A 
ATOM     25  C   UNL     1      -2.798  12.042  23.445  0.00  0.00    +0.000 A 
ATOM     26  C   UNL     1      -1.762  11.948  22.503  0.00  0.00    +0.000 A 
ENDBRANCH  18  21
ENDBRANCH  16  19
ENDBRANCH   1  16
TORSDOF 5
ENDMDL
MODEL 8
REMARK VINA RESULT:      -7.4      3.845      9.389
REMARK  Name = 
REMARK  6 active torsions:
REMARK  status: ('A' for Active; 'I' for Inactive)
REMARK    1  A    between atoms: C_1  and  N_2
REMARK    2  A    between atoms: N_2  and  C_21
REMARK    3  A    between atoms: C_3  and  O_5
REMARK    4  A    between atoms: O_5  and  C_6
REMARK    5  A    between atoms: C_9  and  C_10
REMARK    6  A    between atoms: C_10  and  C_12
REMARK                            x       y       z     vdW  Elec       q    Type
REMARK                         _______ _______ _______ _____ _____    ______ ____
ROOT
ATOM      1  C   UNL     1       1.179   9.760  19.354  0.00  0.00    +0.000 A 
ATOM      2  C   UNL     1       1.785   9.161  18.251  0.00  0.00    +0.000 A 
ATOM      3  C   UNL     1       2.298   7.864  18.374  0.00  0.00    +0.000 A 
ATOM      4  C   UNL     1       2.206   7.175  19.594  0.00  0.00    +0.000 A 
ATOM      5  C   UNL     1       1.633   7.808  20.702  0.00  0.00    +0.000 A 
ATOM      6  C   UNL     1       1.124   9.099  20.584  0.00  0.00    +0.000 A 
ENDROOT
BRANCH   4   7
ATOM      7  C   UNL     1       2.782   5.808  19.696  0.00  0.00    +0.000 C 
ATOM      8  O   UNL     1       2.449   5.083  20.629  0.00  0.00    +0.000 OA
BRANCH   7   9
ATOM      9  C   UNL     1       3.732   5.282  18.676  0.00  0.00    +0.000 A 
ATOM     10  C   UNL     1       3.223   4.505  17.628  0.00  0.00    +0.000 A 
ATOM     11  C   UNL     1       4.078   4.015  16.637  0.00  0.00    +0.000 A 
ATOM     12  C   UNL     1       5.443   4.294  16.700  0.00  0.00    +0.000 A 
ATOM     13 CL   UNL     1       6.493   3.711  15.470  0.00  0.00    +0.000 Cl
ATOM     14  C   UNL     1       5.962   5.043  17.756  0.00  0.00    +0.000 A 
ATOM     15  C   UNL     1       5.110   5.527  18.752  0.00  0.00    +0.000 A 
ENDBRANCH   7   9
ENDBRANCH   4   7
BRANCH   1  16
ATOM     16  O   UNL     1       0.745  11.092  19.224  0.00  0.00    +0.000 OA
BRANCH  16  19
ATOM     17  C   UNL     1       0.349  13.419  20.592  0.00  0.00    +0.000 C 
ATOM     18  N   UNL     1      -0.707  12.418  20.484  0.00  0.00    +0.000 N 
ATOM     19  C   UNL     1      -0.584  11.352  19.584  0.00  0.00    +0.000 C 
ATOM     20  O   UNL     1      -1.518  10.674  19.160  0.00  0.00    +0.000 OA
BRANCH  18  21
ATOM     21  C   UNL     1      -1.873  12.555  21.317  0.00  0.00    +0.000 A 
ATOM     22  C   UNL     1      -3.030  13.197  20.844  0.00  0.00    +0.000 A 
ATOM     23  C   UNL     1      -4.168  13.345  21.644  0.00  0.00    +0.000 A 
ATOM     24  C   UNL     1      -4.175  12.847  22.939  0.00  0.00    +0.000 A 
ATOM     25  C   UNL     1      -3.057  12.177  23.422  0.00  0.00    +0.000 A 
ATOM     26  C   UNL     1      -1.921  12.018  22.613  0.00  0.00    +0.000 A 
ENDBRANCH  18  21
ENDBRANCH  16  19
ENDBRANCH   1  16
TORSDOF 5
ENDMDL
MODEL 9
REMARK VINA RESULT:      -7.4      3.848      9.349
REMARK  Name = 
REMARK  6 active torsions:
REMARK  status: ('A' for Active; 'I' for Inactive)
REMARK    1  A    between atoms: C_1  and  N_2
REMARK    2  A    between atoms: N_2  and  C_21
REMARK    3  A    between atoms: C_3  and  O_5
REMARK    4  A    between atoms: O_5  and  C_6
REMARK    5  A    between atoms: C_9  and  C_10
REMARK    6  A    between atoms: C_10  and  C_12
REMARK                            x       y       z     vdW  Elec       q    Type
REMARK                         _______ _______ _______ _____ _____    ______ ____
ROOT
ATOM      1  C   UNL     1       1.104  10.065  18.905  0.00  0.00    +0.000 A 
ATOM      2  C   UNL     1       0.996   9.443  20.147  0.00  0.00    +0.000 A 
ATOM      3  C   UNL     1       1.540   8.164  20.321  0.00  0.00    +0.000 A 
ATOM      4  C   UNL     1       2.186   7.515  19.256  0.00  0.00    +0.000 A 
ATOM      5  C   UNL     1       2.248   8.137  18.004  0.00  0.00    +0.000 A 
ATOM      6  C   UNL     1       1.705   9.407  17.828  0.00  0.00    +0.000 A 
ENDROOT
BRANCH   4   7
ATOM      7  C   UNL     1       2.732   6.148  19.468  0.00  0.00    +0.000 C 
ATOM      8  O   UNL     1       2.419   5.526  20.479  0.00  0.00    +0.000 OA
BRANCH   7   9
ATOM      9  C   UNL     1       3.626   5.500  18.468  0.00  0.00    +0.000 A 
ATOM     10  C   UNL     1       3.110   4.454  17.691  0.00  0.00    +0.000 A 
ATOM     11  C   UNL     1       3.909   3.838  16.725  0.00  0.00    +0.000 A 
ATOM     12  C   UNL     1       5.226   4.260  16.542  0.00  0.00    +0.000 A 
ATOM     13 CL   UNL     1       6.204   3.518  15.338  0.00  0.00    +0.000 Cl
ATOM     14  C   UNL     1       5.755   5.281  17.331  0.00  0.00    +0.000 A 
ATOM     15  C   UNL     1       4.961   5.893  18.304  0.00  0.00    +0.000 A 
ENDBRANCH   7   9
ENDBRANCH   4   7
BRANCH   1  16
ATOM     16  O   UNL     1       0.479  11.315  18.737  0.00  0.00    +0.000 OA
BRANCH  16  19
ATOM     17  C   UNL     1       0.067  13.636  20.108  0.00  0.00    +0.000 C 
ATOM     18  N   UNL     1      -0.885  12.532  20.189  0.00  0.00    +0.000 N 
ATOM     19  C   UNL     1      -0.796  11.454  19.300  0.00  0.00    +0.000 C 
ATOM     20  O   UNL     1      -1.711  10.673  19.044  0.00  0.00    +0.000 OA
BRANCH  18  21
ATOM     21  C   UNL     1      -1.913  12.582  21.196  0.00  0.00    +0.000 A 
ATOM     22  C   UNL     1      -1.747  11.937  22.433  0.00  0.00    +0.000 A 
ATOM     23  C   UNL     1      -2.739  11.971  23.418  0.00  0.00    +0.000 A 
ATOM     24  C   UNL     1      -3.923  12.657  23.187  0.00  0.00    +0.000 A 
ATOM     25  C   UNL     1      -4.101  13.332  21.985  0.00  0.00    +0.000 A 
ATOM     26  C   UNL     1      -3.098  13.309  21.004  0.00  0.00    +0.000 A 
ENDBRANCH  18  21
ENDBRANCH  16  19
ENDBRANCH   1  16
TORSDOF 5
ENDMDL
