MODEL 1
REMARK VINA RESULT:      -7.2      0.000      0.000
REMARK  Name = 
REMARK  10 active torsions:
REMARK  status: ('A' for Active; 'I' for Inactive)
REMARK    1  A    between atoms: C_1  and  C_2
REMARK    2  A    between atoms: C_5  and  O_6
REMARK    3  A    between atoms: O_6  and  C_7
REMARK    4  A    between atoms: C_7  and  C_8
REMARK    5  A    between atoms: C_8  and  C_9
REMARK    6  A    between atoms: C_9  and  O_10
REMARK    7  A    between atoms: O_10  and  C_11
REMARK    8  A    between atoms: C_14  and  C_15
REMARK    9  A    between atoms: C_17  and  N_18
REMARK   10  A    between atoms: C_21  and  N_22
REMARK                            x       y       z     vdW  Elec       q    Type
REMARK                         _______ _______ _______ _____ _____    ______ ____
ROOT
ATOM      1  C   UNL     1       7.943   8.930  17.747  0.00  0.00    +0.000 C 
ENDROOT
BRANCH   1   2
ATOM      2  C   UNL     1       8.885   9.347  18.872  0.00  0.00    +0.000 C 
BRANCH   2   3
ATOM      3  O   UNL     1       9.443  10.639  18.593  0.00  0.00    +0.000 OA
BRANCH   3   8
ATOM      4  C   UNL     1       9.450  14.841  22.358  0.00  0.00    +0.000 C 
ATOM      5  C   UNL     1       9.421  13.690  21.397  0.00  0.00    +0.000 A 
ATOM      6  C   UNL     1       9.540  12.382  21.847  0.00  0.00    +0.000 A 
ATOM      7  C   UNL     1       9.531  11.337  20.922  0.00  0.00    +0.000 A 
ATOM      8  C   UNL     1       9.386  11.602  19.560  0.00  0.00    +0.000 A 
ATOM      9  C   UNL     1       9.281  12.953  19.190  0.00  0.00    +0.000 A 
ATOM     10  N   UNL     1       9.292  13.990  20.088  0.00  0.00    +0.000 NA
BRANCH   9  11
ATOM     11  N   UNL     1       9.139  13.229  17.751  0.00  0.00    +0.000 N 
ATOM     12  O   UNL     1      10.169  13.501  17.114  0.00  0.00    +0.000 OA
ATOM     13  O   UNL     1       8.000  13.123  17.266  0.00  0.00    +0.000 OA
ENDBRANCH   9  11
ENDBRANCH   3   8
ENDBRANCH   2   3
ENDBRANCH   1   2
BRANCH   1  14
ATOM     14  C   UNL     1       7.640   7.436  17.750  0.00  0.00    +0.000 C 
BRANCH  14  15
ATOM     15  O   UNL     1       6.764   7.109  16.666  0.00  0.00    +0.000 OA
BRANCH  15  16
ATOM     16  C   UNL     1       5.709   6.283  16.948  0.00  0.00    +0.000 A 
ATOM     17  C   UNL     1       4.525   6.723  17.543  0.00  0.00    +0.000 A 
ATOM     18  C   UNL     1       3.460   5.843  17.732  0.00  0.00    +0.000 A 
ATOM     19  C   UNL     1       3.587   4.523  17.320  0.00  0.00    +0.000 A 
ATOM     20  C   UNL     1       2.455   3.555  17.493  0.00  0.00    +0.000 C 
ATOM     21  N   UNL     1       4.715   4.056  16.744  0.00  0.00    +0.000 NA
ATOM     22  C   UNL     1       5.756   4.934  16.563  0.00  0.00    +0.000 A 
BRANCH  22  23
ATOM     23  N   UNL     1       7.012   4.469  15.955  0.00  0.00    +0.000 N 
ATOM     24  O   UNL     1       7.935   4.143  16.720  0.00  0.00    +0.000 OA
ATOM     25  O   UNL     1       7.048   4.398  14.716  0.00  0.00    +0.000 OA
ENDBRANCH  22  23
ENDBRANCH  15  16
ENDBRANCH  14  15
ENDBRANCH   1  14
TORSDOF 8
ENDMDL
MODEL 2
REMARK VINA RESULT:      -7.2      0.130      9.137
REMARK  Name = 
REMARK  10 active torsions:
REMARK  status: ('A' for Active; 'I' for Inactive)
REMARK    1  A    between atoms: C_1  and  C_2
REMARK    2  A    between atoms: C_5  and  O_6
REMARK    3  A    between atoms: O_6  and  C_7
REMARK    4  A    between atoms: C_7  and  C_8
REMARK    5  A    between atoms: C_8  and  C_9
REMARK    6  A    between atoms: C_9  and  O_10
REMARK    7  A    between atoms: O_10  and  C_11
REMARK    8  A    between atoms: C_14  and  C_15
REMARK    9  A    between atoms: C_17  and  N_18
REMARK   10  A    between atoms: C_21  and  N_22
REMARK                            x       y       z     vdW  Elec       q    Type
REMARK                         _______ _______ _______ _____ _____    ______ ____
ROOT
ATOM      1  C   UNL     1       7.933   8.989  17.841  0.00  0.00    +0.000 C 
ENDROOT
BRANCH   1   2
ATOM      2  C   UNL     1       7.681   7.485  17.823  0.00  0.00    +0.000 C 
BRANCH   2   3
ATOM      3  O   UNL     1       6.789   7.149  16.751  0.00  0.00    +0.000 OA
BRANCH   3   8
ATOM      4  C   UNL     1       2.535   3.505  17.430  0.00  0.00    +0.000 C 
ATOM      5  C   UNL     1       3.649   4.500  17.300  0.00  0.00    +0.000 A 
ATOM      6  C   UNL     1       3.498   5.804  17.750  0.00  0.00    +0.000 A 
ATOM      7  C   UNL     1       4.549   6.710  17.592  0.00  0.00    +0.000 A 
ATOM      8  C   UNL     1       5.747   6.303  17.005  0.00  0.00    +0.000 A 
ATOM      9  C   UNL     1       5.813   4.969  16.571  0.00  0.00    +0.000 A 
ATOM     10  N   UNL     1       4.787   4.070  16.715  0.00  0.00    +0.000 NA
BRANCH   9  11
ATOM     11  N   UNL     1       7.076   4.547  15.942  0.00  0.00    +0.000 N 
ATOM     12  O   UNL     1       7.989   4.161  16.690  0.00  0.00    +0.000 OA
ATOM     13  O   UNL     1       7.121   4.561  14.701  0.00  0.00    +0.000 OA
ENDBRANCH   9  11
ENDBRANCH   3   8
ENDBRANCH   2   3
ENDBRANCH   1   2
BRANCH   1  14
ATOM     14  C   UNL     1       8.978   9.404  18.871  0.00  0.00    +0.000 C 
BRANCH  14  15
ATOM     15  O   UNL     1       9.453  10.723  18.586  0.00  0.00    +0.000 OA
BRANCH  15  16
ATOM     16  C   UNL     1       9.380  11.642  19.600  0.00  0.00    +0.000 A 
ATOM     17  C   UNL     1       9.477  11.304  20.952  0.00  0.00    +0.000 A 
ATOM     18  C   UNL     1       9.472  12.298  21.930  0.00  0.00    +0.000 A 
ATOM     19  C   UNL     1       9.372  13.628  21.547  0.00  0.00    +0.000 A 
ATOM     20  C   UNL     1       9.381  14.723  22.572  0.00  0.00    +0.000 C 
ATOM     21  N   UNL     1       9.274  13.997  20.252  0.00  0.00    +0.000 NA
ATOM     22  C   UNL     1       9.282  13.008  19.298  0.00  0.00    +0.000 A 
BRANCH  22  23
ATOM     23  N   UNL     1       9.160  13.359  17.876  0.00  0.00    +0.000 N 
ATOM     24  O   UNL     1      10.204  13.631  17.259  0.00  0.00    +0.000 OA
ATOM     25  O   UNL     1       8.023  13.319  17.379  0.00  0.00    +0.000 OA
ENDBRANCH  22  23
ENDBRANCH  15  16
ENDBRANCH  14  15
ENDBRANCH   1  14
TORSDOF 8
ENDMDL
MODEL 3
REMARK VINA RESULT:      -7.1      1.513      2.294
REMARK  Name = 
REMARK  10 active torsions:
REMARK  status: ('A' for Active; 'I' for Inactive)
REMARK    1  A    between atoms: C_1  and  C_2
REMARK    2  A    between atoms: C_5  and  O_6
REMARK    3  A    between atoms: O_6  and  C_7
REMARK    4  A    between atoms: C_7  and  C_8
REMARK    5  A    between atoms: C_8  and  C_9
REMARK    6  A    between atoms: C_9  and  O_10
REMARK    7  A    between atoms: O_10  and  C_11
REMARK    8  A    between atoms: C_14  and  C_15
REMARK    9  A    between atoms: C_17  and  N_18
REMARK   10  A    between atoms: C_21  and  N_22
REMARK                            x       y       z     vdW  Elec       q    Type
REMARK                         _______ _______ _______ _____ _____    ______ ____
ROOT
ATOM      1  C   UNL     1       8.164   9.163  17.485  0.00  0.00    +0.000 C 
ENDROOT
BRANCH   1   2
ATOM      2  C   UNL     1       8.819   9.834  18.688  0.00  0.00    +0.000 C 
BRANCH   2   3
ATOM      3  O   UNL     1       9.633  10.933  18.255  0.00  0.00    +0.000 OA
BRANCH   3   8
ATOM      4  C   UNL     1       7.474  16.108  18.882  0.00  0.00    +0.000 C 
ATOM      5  C   UNL     1       8.040  14.738  18.657  0.00  0.00    +0.000 A 
ATOM      6  C   UNL     1       7.572  13.932  17.628  0.00  0.00    +0.000 A 
ATOM      7  C   UNL     1       8.106  12.653  17.462  0.00  0.00    +0.000 A 
ATOM      8  C   UNL     1       9.115  12.196  18.310  0.00  0.00    +0.000 A 
ATOM      9  C   UNL     1       9.526  13.071  19.329  0.00  0.00    +0.000 A 
ATOM     10  N   UNL     1       9.006  14.328  19.506  0.00  0.00    +0.000 NA
BRANCH   9  11
ATOM     11  N   UNL     1      10.583  12.581  20.228  0.00  0.00    +0.000 N 
ATOM     12  O   UNL     1      10.231  11.960  21.244  0.00  0.00    +0.000 OA
ATOM     13  O   UNL     1      11.758  12.782  19.879  0.00  0.00    +0.000 OA
ENDBRANCH   9  11
ENDBRANCH   3   8
ENDBRANCH   2   3
ENDBRANCH   1   2
BRANCH   1  14
ATOM     14  C   UNL     1       7.611   7.779  17.805  0.00  0.00    +0.000 C 
BRANCH  14  15
ATOM     15  O   UNL     1       6.824   7.298  16.711  0.00  0.00    +0.000 OA
BRANCH  15  16
ATOM     16  C   UNL     1       5.803   6.436  17.012  0.00  0.00    +0.000 A 
ATOM     17  C   UNL     1       4.550   6.856  17.463  0.00  0.00    +0.000 A 
ATOM     18  C   UNL     1       3.529   5.930  17.677  0.00  0.00    +0.000 A 
ATOM     19  C   UNL     1       3.770   4.585  17.436  0.00  0.00    +0.000 A 
ATOM     20  C   UNL     1       2.691   3.564  17.640  0.00  0.00    +0.000 C 
ATOM     21  N   UNL     1       4.968   4.136  17.003  0.00  0.00    +0.000 NA
ATOM     22  C   UNL     1       5.964   5.059  16.794  0.00  0.00    +0.000 A 
BRANCH  22  23
ATOM     23  N   UNL     1       7.291   4.618  16.339  0.00  0.00    +0.000 N 
ATOM     24  O   UNL     1       7.555   4.742  15.131  0.00  0.00    +0.000 OA
ATOM     25  O   UNL     1       8.071   4.188  17.203  0.00  0.00    +0.000 OA
ENDBRANCH  22  23
ENDBRANCH  15  16
ENDBRANCH  14  15
ENDBRANCH   1  14
TORSDOF 8
ENDMDL
MODEL 4
REMARK VINA RESULT:      -7.1      5.304      7.142
REMARK  Name = 
REMARK  10 active torsions:
REMARK  status: ('A' for Active; 'I' for Inactive)
REMARK    1  A    between atoms: C_1  and  C_2
REMARK    2  A    between atoms: C_5  and  O_6
REMARK    3  A    between atoms: O_6  and  C_7
REMARK    4  A    between atoms: C_7  and  C_8
REMARK    5  A    between atoms: C_8  and  C_9
REMARK    6  A    between atoms: C_9  and  O_10
REMARK    7  A    between atoms: O_10  and  C_11
REMARK    8  A    between atoms: C_14  and  C_15
REMARK    9  A    between atoms: C_17  and  N_18
REMARK   10  A    between atoms: C_21  and  N_22
REMARK                            x       y       z     vdW  Elec       q    Type
REMARK                         _______ _______ _______ _____ _____    ______ ____
ROOT
ATOM      1  C   UNL     1       3.056   6.874  18.391  0.00  0.00    +0.000 C 
ENDROOT
BRANCH   1   2
ATOM      2  C   UNL     1       2.215   7.284  19.595  0.00  0.00    +0.000 C 
BRANCH   2   3
ATOM      3  O   UNL     1       1.777   8.642  19.450  0.00  0.00    +0.000 OA
BRANCH   3   8
ATOM      4  C   UNL     1      -1.513  11.202  23.253  0.00  0.00    +0.000 C 
ATOM      5  C   UNL     1      -0.647  10.471  22.271  0.00  0.00    +0.000 A 
ATOM      6  C   UNL     1       0.142   9.401  22.673  0.00  0.00    +0.000 A 
ATOM      7  C   UNL     1       0.953   8.758  21.736  0.00  0.00    +0.000 A 
ATOM      8  C   UNL     1       0.956   9.174  20.405  0.00  0.00    +0.000 A 
ATOM      9  C   UNL     1       0.136  10.268  20.085  0.00  0.00    +0.000 A 
ATOM     10  N   UNL     1      -0.662  10.912  20.996  0.00  0.00    +0.000 NA
BRANCH   9  11
ATOM     11  N   UNL     1       0.152  10.710  18.680  0.00  0.00    +0.000 N 
ATOM     12  O   UNL     1       0.945  11.614  18.372  0.00  0.00    +0.000 OA
ATOM     13  O   UNL     1      -0.599  10.112  17.892  0.00  0.00    +0.000 OA
ENDBRANCH   9  11
ENDBRANCH   3   8
ENDBRANCH   2   3
ENDBRANCH   1   2
BRANCH   1  14
ATOM     14  C   UNL     1       3.759   5.535  18.587  0.00  0.00    +0.000 C 
BRANCH  14  15
ATOM     15  O   UNL     1       5.168   5.686  18.390  0.00  0.00    +0.000 OA
BRANCH  15  16
ATOM     16  C   UNL     1       5.665   5.334  17.163  0.00  0.00    +0.000 A 
ATOM     17  C   UNL     1       5.049   4.405  16.322  0.00  0.00    +0.000 A 
ATOM     18  C   UNL     1       5.567   4.150  15.052  0.00  0.00    +0.000 A 
ATOM     19  C   UNL     1       6.700   4.831  14.630  0.00  0.00    +0.000 A 
ATOM     20  C   UNL     1       7.273   4.593  13.265  0.00  0.00    +0.000 C 
ATOM     21  N   UNL     1       7.328   5.734  15.413  0.00  0.00    +0.000 NA
ATOM     22  C   UNL     1       6.807   5.977  16.661  0.00  0.00    +0.000 A 
BRANCH  22  23
ATOM     23  N   UNL     1       7.464   6.940  17.557  0.00  0.00    +0.000 N 
ATOM     24  O   UNL     1       7.401   8.144  17.254  0.00  0.00    +0.000 OA
ATOM     25  O   UNL     1       8.004   6.485  18.577  0.00  0.00    +0.000 OA
ENDBRANCH  22  23
ENDBRANCH  15  16
ENDBRANCH  14  15
ENDBRANCH   1  14
TORSDOF 8
ENDMDL
MODEL 5
REMARK VINA RESULT:      -7.0      1.477      8.988
REMARK  Name = 
REMARK  10 active torsions:
REMARK  status: ('A' for Active; 'I' for Inactive)
REMARK    1  A    between atoms: C_1  and  C_2
REMARK    2  A    between atoms: C_5  and  O_6
REMARK    3  A    between atoms: O_6  and  C_7
REMARK    4  A    between atoms: C_7  and  C_8
REMARK    5  A    between atoms: C_8  and  C_9
REMARK    6  A    between atoms: C_9  and  O_10
REMARK    7  A    between atoms: O_10  and  C_11
REMARK    8  A    between atoms: C_14  and  C_15
REMARK    9  A    between atoms: C_17  and  N_18
REMARK   10  A    between atoms: C_21  and  N_22
REMARK                            x       y       z     vdW  Elec       q    Type
REMARK                         _______ _______ _______ _____ _____    ______ ____
ROOT
ATOM      1  C   UNL     1       8.287   8.537  18.213  0.00  0.00    +0.000 C 
ENDROOT
BRANCH   1   2
ATOM      2  C   UNL     1       7.174   8.255  17.209  0.00  0.00    +0.000 C 
BRANCH   2   3
ATOM      3  O   UNL     1       7.094   6.847  16.947  0.00  0.00    +0.000 OA
BRANCH   3   8
ATOM      4  C   UNL     1       3.186   3.529  19.304  0.00  0.00    +0.000 C 
ATOM      5  C   UNL     1       4.187   4.456  18.683  0.00  0.00    +0.000 A 
ATOM      6  C   UNL     1       3.779   5.513  17.880  0.00  0.00    +0.000 A 
ATOM      7  C   UNL     1       4.740   6.343  17.299  0.00  0.00    +0.000 A 
ATOM      8  C   UNL     1       6.097   6.124  17.538  0.00  0.00    +0.000 A 
ATOM      9  C   UNL     1       6.423   5.028  18.355  0.00  0.00    +0.000 A 
ATOM     10  N   UNL     1       5.490   4.202  18.927  0.00  0.00    +0.000 NA
BRANCH   9  11
ATOM     11  N   UNL     1       7.857   4.794  18.595  0.00  0.00    +0.000 N 
ATOM     12  O   UNL     1       8.351   5.272  19.629  0.00  0.00    +0.000 OA
ATOM     13  O   UNL     1       8.460   4.091  17.767  0.00  0.00    +0.000 OA
ENDBRANCH   9  11
ENDBRANCH   3   8
ENDBRANCH   2   3
ENDBRANCH   1   2
BRANCH   1  14
ATOM     14  C   UNL     1       8.610  10.022  18.337  0.00  0.00    +0.000 C 
BRANCH  14  15
ATOM     15  O   UNL     1       9.702  10.214  19.242  0.00  0.00    +0.000 OA
BRANCH  15  16
ATOM     16  C   UNL     1       9.705  11.370  19.976  0.00  0.00    +0.000 A 
ATOM     17  C   UNL     1       9.145  11.473  21.251  0.00  0.00    +0.000 A 
ATOM     18  C   UNL     1       9.251  12.661  21.975  0.00  0.00    +0.000 A 
ATOM     19  C   UNL     1       9.922  13.740  21.417  0.00  0.00    +0.000 A 
ATOM     20  C   UNL     1      10.068  15.026  22.174  0.00  0.00    +0.000 C 
ATOM     21  N   UNL     1      10.475  13.683  20.186  0.00  0.00    +0.000 NA
ATOM     22  C   UNL     1      10.364  12.507  19.484  0.00  0.00    +0.000 A 
BRANCH  22  23
ATOM     23  N   UNL     1      10.936  12.401  18.134  0.00  0.00    +0.000 N 
ATOM     24  O   UNL     1      10.274  12.868  17.190  0.00  0.00    +0.000 OA
ATOM     25  O   UNL     1      12.061  11.887  18.035  0.00  0.00    +0.000 OA
ENDBRANCH  22  23
ENDBRANCH  15  16
ENDBRANCH  14  15
ENDBRANCH   1  14
TORSDOF 8
ENDMDL
MODEL 6
REMARK VINA RESULT:      -7.0      5.542      8.510
REMARK  Name = 
REMARK  10 active torsions:
REMARK  status: ('A' for Active; 'I' for Inactive)
REMARK    1  A    between atoms: C_1  and  C_2
REMARK    2  A    between atoms: C_5  and  O_6
REMARK    3  A    between atoms: O_6  and  C_7
REMARK    4  A    between atoms: C_7  and  C_8
REMARK    5  A    between atoms: C_8  and  C_9
REMARK    6  A    between atoms: C_9  and  O_10
REMARK    7  A    between atoms: O_10  and  C_11
REMARK    8  A    between atoms: C_14  and  C_15
REMARK    9  A    between atoms: C_17  and  N_18
REMARK   10  A    between atoms: C_21  and  N_22
REMARK                            x       y       z     vdW  Elec       q    Type
REMARK                         _______ _______ _______ _____ _____    ______ ____
ROOT
ATOM      1  C   UNL     1       2.561   5.279  18.561  0.00  0.00    +0.000 C 
ENDROOT
BRANCH   1   2
ATOM      2  C   UNL     1       3.669   4.280  18.244  0.00  0.00    +0.000 C 
BRANCH   2   3
ATOM      3  O   UNL     1       4.911   4.969  18.045  0.00  0.00    +0.000 OA
BRANCH   3   8
ATOM      4  C   UNL     1       7.649   4.893  13.113  0.00  0.00    +0.000 C 
ATOM      5  C   UNL     1       6.891   4.866  14.406  0.00  0.00    +0.000 A 
ATOM      6  C   UNL     1       5.570   4.442  14.450  0.00  0.00    +0.000 A 
ATOM      7  C   UNL     1       4.888   4.451  15.668  0.00  0.00    +0.000 A 
ATOM      8  C   UNL     1       5.534   4.863  16.834  0.00  0.00    +0.000 A 
ATOM      9  C   UNL     1       6.867   5.283  16.699  0.00  0.00    +0.000 A 
ATOM     10  N   UNL     1       7.548   5.284  15.508  0.00  0.00    +0.000 NA
BRANCH   9  11
ATOM     11  N   UNL     1       7.542   5.728  17.930  0.00  0.00    +0.000 N 
ATOM     12  O   UNL     1       7.986   4.852  18.690  0.00  0.00    +0.000 OA
ATOM     13  O   UNL     1       7.661   6.953  18.097  0.00  0.00    +0.000 OA
ENDBRANCH   9  11
ENDBRANCH   3   8
ENDBRANCH   2   3
ENDBRANCH   1   2
BRANCH   1  14
ATOM     14  C   UNL     1       3.004   6.368  19.533  0.00  0.00    +0.000 C 
BRANCH  14  15
ATOM     15  O   UNL     1       1.868   7.098  20.005  0.00  0.00    +0.000 OA
BRANCH  15  16
ATOM     16  C   UNL     1       1.739   8.392  19.575  0.00  0.00    +0.000 A 
ATOM     17  C   UNL     1       2.157   8.829  18.316  0.00  0.00    +0.000 A 
ATOM     18  C   UNL     1       1.926  10.143  17.912  0.00  0.00    +0.000 A 
ATOM     19  C   UNL     1       1.273  11.015  18.772  0.00  0.00    +0.000 A 
ATOM     20  C   UNL     1       0.994  12.430  18.363  0.00  0.00    +0.000 C 
ATOM     21  N   UNL     1       0.855  10.634  19.999  0.00  0.00    +0.000 NA
ATOM     22  C   UNL     1       1.088   9.336  20.384  0.00  0.00    +0.000 A 
BRANCH  22  23
ATOM     23  N   UNL     1       0.666   8.878  21.716  0.00  0.00    +0.000 N 
ATOM     24  O   UNL     1       1.419   9.123  22.674  0.00  0.00    +0.000 OA
ATOM     25  O   UNL     1      -0.435   8.310  21.796  0.00  0.00    +0.000 OA
ENDBRANCH  22  23
ENDBRANCH  15  16
ENDBRANCH  14  15
ENDBRANCH   1  14
TORSDOF 8
ENDMDL
MODEL 7
REMARK VINA RESULT:      -7.0      5.608      8.539
REMARK  Name = 
REMARK  10 active torsions:
REMARK  status: ('A' for Active; 'I' for Inactive)
REMARK    1  A    between atoms: C_1  and  C_2
REMARK    2  A    between atoms: C_5  and  O_6
REMARK    3  A    between atoms: O_6  and  C_7
REMARK    4  A    between atoms: C_7  and  C_8
REMARK    5  A    between atoms: C_8  and  C_9
REMARK    6  A    between atoms: C_9  and  O_10
REMARK    7  A    between atoms: O_10  and  C_11
REMARK    8  A    between atoms: C_14  and  C_15
REMARK    9  A    between atoms: C_17  and  N_18
REMARK   10  A    between atoms: C_21  and  N_22
REMARK                            x       y       z     vdW  Elec       q    Type
REMARK                         _______ _______ _______ _____ _____    ______ ____
ROOT
ATOM      1  C   UNL     1       3.395   6.163  19.149  0.00  0.00    +0.000 C 
ENDROOT
BRANCH   1   2
ATOM      2  C   UNL     1       3.974   4.800  19.514  0.00  0.00    +0.000 C 
BRANCH   2   3
ATOM      3  O   UNL     1       5.379   4.770  19.226  0.00  0.00    +0.000 OA
BRANCH   3   8
ATOM      4  C   UNL     1       7.162   4.717  13.873  0.00  0.00    +0.000 C 
ATOM      5  C   UNL     1       6.662   4.678  15.287  0.00  0.00    +0.000 A 
ATOM      6  C   UNL     1       5.449   4.082  15.599  0.00  0.00    +0.000 A 
ATOM      7  C   UNL     1       5.004   4.084  16.923  0.00  0.00    +0.000 A 
ATOM      8  C   UNL     1       5.782   4.664  17.925  0.00  0.00    +0.000 A 
ATOM      9  C   UNL     1       6.992   5.253  17.522  0.00  0.00    +0.000 A 
ATOM     10  N   UNL     1       7.438   5.262  16.225  0.00  0.00    +0.000 NA
BRANCH   9  11
ATOM     11  N   UNL     1       7.804   5.873  18.582  0.00  0.00    +0.000 N 
ATOM     12  O   UNL     1       7.961   7.104  18.538  0.00  0.00    +0.000 OA
ATOM     13  O   UNL     1       8.235   5.124  19.474  0.00  0.00    +0.000 OA
ENDBRANCH   9  11
ENDBRANCH   3   8
ENDBRANCH   2   3
ENDBRANCH   1   2
BRANCH   1  14
ATOM     14  C   UNL     1       2.041   6.426  19.799  0.00  0.00    +0.000 C 
BRANCH  14  15
ATOM     15  O   UNL     1       2.049   7.699  20.453  0.00  0.00    +0.000 OA
BRANCH  15  16
ATOM     16  C   UNL     1       1.328   8.704  19.863  0.00  0.00    +0.000 A 
ATOM     17  C   UNL     1       1.466   9.063  18.521  0.00  0.00    +0.000 A 
ATOM     18  C   UNL     1       0.645  10.045  17.965  0.00  0.00    +0.000 A 
ATOM     19  C   UNL     1      -0.313  10.660  18.759  0.00  0.00    +0.000 A 
ATOM     20  C   UNL     1      -1.223  11.706  18.189  0.00  0.00    +0.000 C 
ATOM     21  N   UNL     1      -0.477  10.344  20.061  0.00  0.00    +0.000 NA
ATOM     22  C   UNL     1       0.337   9.375  20.596  0.00  0.00    +0.000 A 
BRANCH  22  23
ATOM     23  N   UNL     1       0.208   9.007  22.014  0.00  0.00    +0.000 N 
ATOM     24  O   UNL     1       0.999   9.529  22.818  0.00  0.00    +0.000 OA
ATOM     25  O   UNL     1      -0.711   8.229  22.315  0.00  0.00    +0.000 OA
ENDBRANCH  22  23
ENDBRANCH  15  16
ENDBRANCH  14  15
ENDBRANCH   1  14
TORSDOF 8
ENDMDL
MODEL 8
REMARK VINA RESULT:      -6.9      5.475      8.377
REMARK  Name = 
REMARK  10 active torsions:
REMARK  status: ('A' for Active; 'I' for Inactive)
REMARK    1  A    between atoms: C_1  and  C_2
REMARK    2  A    between atoms: C_5  and  O_6
REMARK    3  A    between atoms: O_6  and  C_7
REMARK    4  A    between atoms: C_7  and  C_8
REMARK    5  A    between atoms: C_8  and  C_9
REMARK    6  A    between atoms: C_9  and  O_10
REMARK    7  A    between atoms: O_10  and  C_11
REMARK    8  A    between atoms: C_14  and  C_15
REMARK    9  A    between atoms: C_17  and  N_18
REMARK   10  A    between atoms: C_21  and  N_22
REMARK                            x       y       z     vdW  Elec       q    Type
REMARK                         _______ _______ _______ _____ _____    ______ ____
ROOT
ATOM      1  C   UNL     1       2.859   5.405  19.783  0.00  0.00    +0.000 C 
ENDROOT
BRANCH   1   2
ATOM      2  C   UNL     1       3.776   6.155  18.822  0.00  0.00    +0.000 C 
BRANCH   2   3
ATOM      3  O   UNL     1       5.040   5.483  18.724  0.00  0.00    +0.000 OA
BRANCH   3   8
ATOM      4  C   UNL     1       7.388   4.861  13.632  0.00  0.00    +0.000 C 
ATOM      5  C   UNL     1       6.731   4.979  14.974  0.00  0.00    +0.000 A 
ATOM      6  C   UNL     1       5.400   4.626  15.150  0.00  0.00    +0.000 A 
ATOM      7  C   UNL     1       4.814   4.770  16.409  0.00  0.00    +0.000 A 
ATOM      8  C   UNL     1       5.563   5.247  17.484  0.00  0.00    +0.000 A 
ATOM      9  C   UNL     1       6.899   5.589  17.218  0.00  0.00    +0.000 A 
ATOM     10  N   UNL     1       7.486   5.457  15.985  0.00  0.00    +0.000 NA
BRANCH   9  11
ATOM     11  N   UNL     1       7.684   6.102  18.354  0.00  0.00    +0.000 N 
ATOM     12  O   UNL     1       8.009   5.294  19.238  0.00  0.00    +0.000 OA
ATOM     13  O   UNL     1       8.006   7.301  18.320  0.00  0.00    +0.000 OA
ENDBRANCH   9  11
ENDBRANCH   3   8
ENDBRANCH   2   3
ENDBRANCH   1   2
BRANCH   1  14
ATOM     14  C   UNL     1       1.885   6.323  20.513  0.00  0.00    +0.000 C 
BRANCH  14  15
ATOM     15  O   UNL     1       1.922   7.634  19.940  0.00  0.00    +0.000 OA
BRANCH  15  16
ATOM     16  C   UNL     1       1.218   8.615  20.587  0.00  0.00    +0.000 A 
ATOM     17  C   UNL     1       0.948   8.591  21.957  0.00  0.00    +0.000 A 
ATOM     18  C   UNL     1       0.292   9.660  22.567  0.00  0.00    +0.000 A 
ATOM     19  C   UNL     1      -0.090  10.751  21.798  0.00  0.00    +0.000 A 
ATOM     20  C   UNL     1      -0.782  11.924  22.424  0.00  0.00    +0.000 C 
ATOM     21  N   UNL     1       0.149  10.812  20.470  0.00  0.00    +0.000 NA
ATOM     22  C   UNL     1       0.797   9.753  19.883  0.00  0.00    +0.000 A 
BRANCH  22  23
ATOM     23  N   UNL     1       1.065   9.766  18.437  0.00  0.00    +0.000 N 
ATOM     24  O   UNL     1       2.223  10.025  18.069  0.00  0.00    +0.000 OA
ATOM     25  O   UNL     1       0.121   9.476  17.685  0.00  0.00    +0.000 OA
ENDBRANCH  22  23
ENDBRANCH  15  16
ENDBRANCH  14  15
ENDBRANCH   1  14
TORSDOF 8
ENDMDL
MODEL 9
REMARK VINA RESULT:      -6.9      5.652      6.789
REMARK  Name = 
REMARK  10 active torsions:
REMARK  status: ('A' for Active; 'I' for Inactive)
REMARK    1  A    between atoms: C_1  and  C_2
REMARK    2  A    between atoms: C_5  and  O_6
REMARK    3  A    between atoms: O_6  and  C_7
REMARK    4  A    between atoms: C_7  and  C_8
REMARK    5  A    between atoms: C_8  and  C_9
REMARK    6  A    between atoms: C_9  and  O_10
REMARK    7  A    between atoms: O_10  and  C_11
REMARK    8  A    between atoms: C_14  and  C_15
REMARK    9  A    between atoms: C_17  and  N_18
REMARK   10  A    between atoms: C_21  and  N_22
REMARK                            x       y       z     vdW  Elec       q    Type
REMARK                         _______ _______ _______ _____ _____    ______ ____
ROOT
ATOM      1  C   UNL     1       2.844   5.330  18.147  0.00  0.00    +0.000 C 
ENDROOT
BRANCH   1   2
ATOM      2  C   UNL     1       2.866   6.174  19.417  0.00  0.00    +0.000 C 
BRANCH   2   3
ATOM      3  O   UNL     1       2.601   7.547  19.099  0.00  0.00    +0.000 OA
BRANCH   3   8
ATOM      4  C   UNL     1      -0.711  10.801  22.306  0.00  0.00    +0.000 C 
ATOM      5  C   UNL     1       0.144   9.889  21.478  0.00  0.00    +0.000 A 
ATOM      6  C   UNL     1       0.579   8.669  21.979  0.00  0.00    +0.000 A 
ATOM      7  C   UNL     1       1.393   7.855  21.188  0.00  0.00    +0.000 A 
ATOM      8  C   UNL     1       1.750   8.255  19.901  0.00  0.00    +0.000 A 
ATOM      9  C   UNL     1       1.275   9.506  19.476  0.00  0.00    +0.000 A 
ATOM     10  N   UNL     1       0.479  10.318  20.244  0.00  0.00    +0.000 NA
BRANCH   9  11
ATOM     11  N   UNL     1       1.664   9.929  18.120  0.00  0.00    +0.000 N 
ATOM     12  O   UNL     1       1.286   9.226  17.169  0.00  0.00    +0.000 OA
ATOM     13  O   UNL     1       2.303  10.989  18.022  0.00  0.00    +0.000 OA
ENDBRANCH   9  11
ENDBRANCH   3   8
ENDBRANCH   2   3
ENDBRANCH   1   2
BRANCH   1  14
ATOM     14  C   UNL     1       3.744   4.102  18.234  0.00  0.00    +0.000 C 
BRANCH  14  15
ATOM     15  O   UNL     1       5.119   4.496  18.182  0.00  0.00    +0.000 OA
BRANCH  15  16
ATOM     16  C   UNL     1       5.700   4.559  16.943  0.00  0.00    +0.000 A 
ATOM     17  C   UNL     1       5.084   4.091  15.780  0.00  0.00    +0.000 A 
ATOM     18  C   UNL     1       5.699   4.256  14.539  0.00  0.00    +0.000 A 
ATOM     19  C   UNL     1       6.930   4.893  14.470  0.00  0.00    +0.000 A 
ATOM     20  C   UNL     1       7.611   5.102  13.150  0.00  0.00    +0.000 C 
ATOM     21  N   UNL     1       7.561   5.358  15.570  0.00  0.00    +0.000 NA
ATOM     22  C   UNL     1       6.943   5.190  16.785  0.00  0.00    +0.000 A 
BRANCH  22  23
ATOM     23  N   UNL     1       7.598   5.664  18.014  0.00  0.00    +0.000 N 
ATOM     24  O   UNL     1       7.984   4.807  18.827  0.00  0.00    +0.000 OA
ATOM     25  O   UNL     1       7.755   6.889  18.134  0.00  0.00    +0.000 OA
ENDBRANCH  22  23
ENDBRANCH  15  16
ENDBRANCH  14  15
ENDBRANCH   1  14
TORSDOF 8
ENDMDL
