MODEL 1
REMARK VINA RESULT:      -7.0      0.000      0.000
REMARK  Name = 
REMARK  4 active torsions:
REMARK  status: ('A' for Active; 'I' for Inactive)
REMARK    1  A    between atoms: C_1  and  O_2
REMARK    2  A    between atoms: O_2  and  C_3
REMARK    3  A    between atoms: C_8  and  N_9
REMARK    4  A    between atoms: C_16  and  C_17
REMARK                            x       y       z     vdW  Elec       q    Type
REMARK                         _______ _______ _______ _____ _____    ______ ____
ROOT
ATOM      1  N   UNL     1       4.482   4.095  18.298  0.00  0.00    +0.000 N 
ATOM      2  C   UNL     1       4.223   4.116  16.950  0.00  0.00    +0.000 C 
ATOM      3  O   UNL     1       3.120   3.951  16.436  0.00  0.00    +0.000 OA
ATOM      4  N   UNL     1       5.337   4.325  16.157  0.00  0.00    +0.000 N 
ATOM      5  C   UNL     1       5.214   4.304  14.711  0.00  0.00    +0.000 C 
ATOM      6  C   UNL     1       6.627   4.056  14.227  0.00  0.00    +0.000 C 
ATOM      7  C   UNL     1       7.498   4.769  15.257  0.00  0.00    +0.000 C 
ATOM      8  C   UNL     1       6.669   4.794  16.560  0.00  0.00    +0.000 C 
ATOM      9  H   UNL     1       5.386   3.717  18.550  0.00  0.00    +0.000 HD
ENDROOT
BRANCH   1  15
ATOM     10  C   UNL     1       3.495   2.866  20.128  0.00  0.00    +0.000 A 
ATOM     11  C   UNL     1       2.591   2.742  21.200  0.00  0.00    +0.000 A 
ATOM     12  C   UNL     1       1.761   3.799  21.561  0.00  0.00    +0.000 A 
ATOM     13  C   UNL     1       1.858   4.982  20.852  0.00  0.00    +0.000 A 
ATOM     14  C   UNL     1       2.744   5.128  19.767  0.00  0.00    +0.000 A 
ATOM     15  C   UNL     1       3.553   4.067  19.369  0.00  0.00    +0.000 A 
ATOM     16  C   UNL     1       2.620   6.524  19.227  0.00  0.00    +0.000 C 
ATOM     17  C   UNL     1       1.936   7.264  20.383  0.00  0.00    +0.000 C 
ATOM     18  C   UNL     1       1.061   6.227  21.084  0.00  0.00    +0.000 C 
BRANCH  10  20
ATOM     19  C   UNL     1       5.178   1.290  20.744  0.00  0.00    +0.000 C 
ATOM     20  O   UNL     1       4.357   1.864  19.730  0.00  0.00    +0.000 OA
ENDBRANCH  10  20
ENDBRANCH   1  15
BRANCH   8  21
ATOM     21  C   UNL     1       6.668   6.185  17.249  0.00  0.00    +0.000 C 
ATOM     22  C   UNL     1       7.521   7.250  16.561  0.00  0.00    +0.000 C 
ATOM     23  C   UNL     1       7.967   8.118  17.707  0.00  0.00    +0.000 C 
ATOM     24  C   UNL     1       8.149   7.102  18.809  0.00  0.00    +0.000 C 
ATOM     25  O   UNL     1       7.144   6.096  18.610  0.00  0.00    +0.000 OA
ENDBRANCH   8  21
TORSDOF 3
ENDMDL
MODEL 2
REMARK VINA RESULT:      -6.7      2.026      4.082
REMARK  Name = 
REMARK  4 active torsions:
REMARK  status: ('A' for Active; 'I' for Inactive)
REMARK    1  A    between atoms: C_1  and  O_2
REMARK    2  A    between atoms: O_2  and  C_3
REMARK    3  A    between atoms: C_8  and  N_9
REMARK    4  A    between atoms: C_16  and  C_17
REMARK                            x       y       z     vdW  Elec       q    Type
REMARK                         _______ _______ _______ _____ _____    ______ ____
ROOT
ATOM      1  N   UNL     1       4.163   5.651  18.826  0.00  0.00    +0.000 N 
ATOM      2  C   UNL     1       5.465   5.510  19.235  0.00  0.00    +0.000 C 
ATOM      3  O   UNL     1       5.839   4.846  20.198  0.00  0.00    +0.000 OA
ATOM      4  N   UNL     1       6.383   6.208  18.472  0.00  0.00    +0.000 N 
ATOM      5  C   UNL     1       7.788   6.198  18.836  0.00  0.00    +0.000 C 
ATOM      6  C   UNL     1       8.357   7.414  18.136  0.00  0.00    +0.000 C 
ATOM      7  C   UNL     1       7.544   7.510  16.849  0.00  0.00    +0.000 C 
ATOM      8  C   UNL     1       6.191   6.834  17.157  0.00  0.00    +0.000 C 
ATOM      9  H   UNL     1       3.939   6.556  18.430  0.00  0.00    +0.000 HD
ENDROOT
BRANCH   1  15
ATOM     10  C   UNL     1       2.082   5.695  20.050  0.00  0.00    +0.000 A 
ATOM     11  C   UNL     1       0.923   5.076  20.559  0.00  0.00    +0.000 A 
ATOM     12  C   UNL     1       0.654   3.736  20.296  0.00  0.00    +0.000 A 
ATOM     13  C   UNL     1       1.543   3.031  19.507  0.00  0.00    +0.000 A 
ATOM     14  C   UNL     1       2.715   3.622  18.997  0.00  0.00    +0.000 A 
ATOM     15  C   UNL     1       3.018   4.950  19.283  0.00  0.00    +0.000 A 
ATOM     16  C   UNL     1       3.450   2.603  18.173  0.00  0.00    +0.000 C 
ATOM     17  C   UNL     1       2.364   1.555  17.899  0.00  0.00    +0.000 C 
ATOM     18  C   UNL     1       1.433   1.592  19.110  0.00  0.00    +0.000 C 
BRANCH  10  20
ATOM     19  C   UNL     1       1.417   7.815  20.920  0.00  0.00    +0.000 C 
ATOM     20  O   UNL     1       2.398   7.022  20.258  0.00  0.00    +0.000 OA
ENDBRANCH  10  20
ENDBRANCH   1  15
BRANCH   8  21
ATOM     21  C   UNL     1       5.741   5.846  16.047  0.00  0.00    +0.000 C 
ATOM     22  C   UNL     1       6.041   4.375  16.327  0.00  0.00    +0.000 C 
ATOM     23  C   UNL     1       6.253   3.804  14.951  0.00  0.00    +0.000 C 
ATOM     24  C   UNL     1       6.933   4.953  14.244  0.00  0.00    +0.000 C 
ATOM     25  O   UNL     1       6.369   6.158  14.783  0.00  0.00    +0.000 OA
ENDBRANCH   8  21
TORSDOF 3
ENDMDL
MODEL 3
REMARK VINA RESULT:      -6.5      1.733      6.278
REMARK  Name = 
REMARK  4 active torsions:
REMARK  status: ('A' for Active; 'I' for Inactive)
REMARK    1  A    between atoms: C_1  and  O_2
REMARK    2  A    between atoms: O_2  and  C_3
REMARK    3  A    between atoms: C_8  and  N_9
REMARK    4  A    between atoms: C_16  and  C_17
REMARK                            x       y       z     vdW  Elec       q    Type
REMARK                         _______ _______ _______ _____ _____    ______ ____
ROOT
ATOM      1  N   UNL     1       4.080   4.283  16.766  0.00  0.00    +0.000 N 
ATOM      2  C   UNL     1       3.830   3.113  17.440  0.00  0.00    +0.000 C 
ATOM      3  O   UNL     1       4.568   2.132  17.461  0.00  0.00    +0.000 OA
ATOM      4  N   UNL     1       2.624   3.092  18.119  0.00  0.00    +0.000 N 
ATOM      5  C   UNL     1       2.206   1.892  18.819  0.00  0.00    +0.000 C 
ATOM      6  C   UNL     1       0.709   2.062  18.975  0.00  0.00    +0.000 C 
ATOM      7  C   UNL     1       0.527   3.566  19.145  0.00  0.00    +0.000 C 
ATOM      8  C   UNL     1       1.735   4.217  18.437  0.00  0.00    +0.000 C 
ATOM      9  H   UNL     1       3.259   4.742  16.394  0.00  0.00    +0.000 HD
ENDROOT
BRANCH   1  15
ATOM     10  C   UNL     1       6.229   5.373  16.916  0.00  0.00    +0.000 A 
ATOM     11  C   UNL     1       7.440   5.823  16.354  0.00  0.00    +0.000 A 
ATOM     12  C   UNL     1       7.743   5.574  15.018  0.00  0.00    +0.000 A 
ATOM     13  C   UNL     1       6.835   4.857  14.262  0.00  0.00    +0.000 A 
ATOM     14  C   UNL     1       5.612   4.408  14.796  0.00  0.00    +0.000 A 
ATOM     15  C   UNL     1       5.277   4.683  16.119  0.00  0.00    +0.000 A 
ATOM     16  C   UNL     1       4.868   3.655  13.730  0.00  0.00    +0.000 C 
ATOM     17  C   UNL     1       5.974   3.337  12.717  0.00  0.00    +0.000 C 
ATOM     18  C   UNL     1       6.976   4.486  12.818  0.00  0.00    +0.000 C 
BRANCH  10  20
ATOM     19  C   UNL     1       6.932   5.532  19.191  0.00  0.00    +0.000 C 
ATOM     20  O   UNL     1       5.875   5.571  18.235  0.00  0.00    +0.000 OA
ENDBRANCH  10  20
ENDBRANCH   1  15
BRANCH   8  21
ATOM     21  C   UNL     1       2.405   5.332  19.284  0.00  0.00    +0.000 C 
ATOM     22  C   UNL     1       1.583   5.823  20.475  0.00  0.00    +0.000 C 
ATOM     23  C   UNL     1       2.003   7.263  20.604  0.00  0.00    +0.000 C 
ATOM     24  C   UNL     1       2.196   7.658  19.160  0.00  0.00    +0.000 C 
ATOM     25  O   UNL     1       2.697   6.497  18.480  0.00  0.00    +0.000 OA
ENDBRANCH   8  21
TORSDOF 3
ENDMDL
MODEL 4
REMARK VINA RESULT:      -6.4      2.348      4.480
REMARK  Name = 
REMARK  4 active torsions:
REMARK  status: ('A' for Active; 'I' for Inactive)
REMARK    1  A    between atoms: C_1  and  O_2
REMARK    2  A    between atoms: O_2  and  C_3
REMARK    3  A    between atoms: C_8  and  N_9
REMARK    4  A    between atoms: C_16  and  C_17
REMARK                            x       y       z     vdW  Elec       q    Type
REMARK                         _______ _______ _______ _____ _____    ______ ____
ROOT
ATOM      1  N   UNL     1       2.785   6.652  18.179  0.00  0.00    +0.000 N 
ATOM      2  C   UNL     1       4.110   6.697  17.820  0.00  0.00    +0.000 C 
ATOM      3  O   UNL     1       4.895   7.595  18.111  0.00  0.00    +0.000 OA
ATOM      4  N   UNL     1       4.531   5.624  17.056  0.00  0.00    +0.000 N 
ATOM      5  C   UNL     1       5.892   5.580  16.553  0.00  0.00    +0.000 C 
ATOM      6  C   UNL     1       5.826   4.598  15.403  0.00  0.00    +0.000 C 
ATOM      7  C   UNL     1       4.773   3.587  15.843  0.00  0.00    +0.000 C 
ATOM      8  C   UNL     1       3.848   4.346  16.820  0.00  0.00    +0.000 C 
ATOM      9  H   UNL     1       2.176   6.221  17.496  0.00  0.00    +0.000 HD
ENDROOT
BRANCH   1  15
ATOM     10  C   UNL     1       1.783   6.948  20.356  0.00  0.00    +0.000 A 
ATOM     11  C   UNL     1       1.082   7.710  21.311  0.00  0.00    +0.000 A 
ATOM     12  C   UNL     1       0.706   9.022  21.042  0.00  0.00    +0.000 A 
ATOM     13  C   UNL     1       1.054   9.567  19.820  0.00  0.00    +0.000 A 
ATOM     14  C   UNL     1       1.743   8.824  18.843  0.00  0.00    +0.000 A 
ATOM     15  C   UNL     1       2.092   7.497  19.082  0.00  0.00    +0.000 A 
ATOM     16  C   UNL     1       1.981   9.701  17.647  0.00  0.00    +0.000 C 
ATOM     17  C   UNL     1       1.775  11.107  18.224  0.00  0.00    +0.000 C 
ATOM     18  C   UNL     1       0.746  10.953  19.343  0.00  0.00    +0.000 C 
BRANCH  10  20
ATOM     19  C   UNL     1       1.185   4.649  20.582  0.00  0.00    +0.000 C 
ATOM     20  O   UNL     1       2.200   5.649  20.565  0.00  0.00    +0.000 OA
ENDBRANCH  10  20
ENDBRANCH   1  15
BRANCH   8  21
ATOM     21  C   UNL     1       3.546   3.543  18.113  0.00  0.00    +0.000 C 
ATOM     22  C   UNL     1       4.730   3.371  19.063  0.00  0.00    +0.000 C 
ATOM     23  C   UNL     1       4.450   2.045  19.717  0.00  0.00    +0.000 C 
ATOM     24  C   UNL     1       3.826   1.269  18.583  0.00  0.00    +0.000 C 
ATOM     25  O   UNL     1       3.072   2.212  17.806  0.00  0.00    +0.000 OA
ENDBRANCH   8  21
TORSDOF 3
ENDMDL
MODEL 5
REMARK VINA RESULT:      -6.4      2.532      5.303
REMARK  Name = 
REMARK  4 active torsions:
REMARK  status: ('A' for Active; 'I' for Inactive)
REMARK    1  A    between atoms: C_1  and  O_2
REMARK    2  A    between atoms: O_2  and  C_3
REMARK    3  A    between atoms: C_8  and  N_9
REMARK    4  A    between atoms: C_16  and  C_17
REMARK                            x       y       z     vdW  Elec       q    Type
REMARK                         _______ _______ _______ _____ _____    ______ ____
ROOT
ATOM      1  N   UNL     1       2.498   6.626  20.031  0.00  0.00    +0.000 N 
ATOM      2  C   UNL     1       1.853   5.437  20.262  0.00  0.00    +0.000 C 
ATOM      3  O   UNL     1       0.647   5.308  20.454  0.00  0.00    +0.000 OA
ATOM      4  N   UNL     1       2.684   4.331  20.284  0.00  0.00    +0.000 N 
ATOM      5  C   UNL     1       2.140   3.019  20.584  0.00  0.00    +0.000 C 
ATOM      6  C   UNL     1       3.346   2.212  21.012  0.00  0.00    +0.000 C 
ATOM      7  C   UNL     1       4.484   2.775  20.167  0.00  0.00    +0.000 C 
ATOM      8  C   UNL     1       4.076   4.226  19.831  0.00  0.00    +0.000 C 
ATOM      9  H   UNL     1       3.435   6.680  20.409  0.00  0.00    +0.000 HD
ENDROOT
BRANCH   1  15
ATOM     10  C   UNL     1       1.983   8.377  18.450  0.00  0.00    +0.000 A 
ATOM     11  C   UNL     1       1.455   9.640  18.119  0.00  0.00    +0.000 A 
ATOM     12  C   UNL     1       0.840  10.433  19.083  0.00  0.00    +0.000 A 
ATOM     13  C   UNL     1       0.743   9.942  20.371  0.00  0.00    +0.000 A 
ATOM     14  C   UNL     1       1.274   8.690  20.732  0.00  0.00    +0.000 A 
ATOM     15  C   UNL     1       1.927   7.901  19.788  0.00  0.00    +0.000 A 
ATOM     16  C   UNL     1       0.992   8.446  22.187  0.00  0.00    +0.000 C 
ATOM     17  C   UNL     1      -0.128   9.453  22.479  0.00  0.00    +0.000 C 
ATOM     18  C   UNL     1       0.121  10.635  21.544  0.00  0.00    +0.000 C 
BRANCH  10  20
ATOM     19  C   UNL     1       3.912   7.879  17.136  0.00  0.00    +0.000 C 
ATOM     20  O   UNL     1       2.589   7.535  17.540  0.00  0.00    +0.000 OA
ENDBRANCH  10  20
ENDBRANCH   1  15
BRANCH   8  21
ATOM     21  C   UNL     1       4.282   4.581  18.334  0.00  0.00    +0.000 C 
ATOM     22  C   UNL     1       4.151   3.407  17.365  0.00  0.00    +0.000 C 
ATOM     23  C   UNL     1       5.089   3.782  16.250  0.00  0.00    +0.000 C 
ATOM     24  C   UNL     1       6.202   4.470  17.003  0.00  0.00    +0.000 C 
ATOM     25  O   UNL     1       5.589   5.155  18.106  0.00  0.00    +0.000 OA
ENDBRANCH   8  21
TORSDOF 3
ENDMDL
MODEL 6
REMARK VINA RESULT:      -6.3      2.235      4.574
REMARK  Name = 
REMARK  4 active torsions:
REMARK  status: ('A' for Active; 'I' for Inactive)
REMARK    1  A    between atoms: C_1  and  O_2
REMARK    2  A    between atoms: O_2  and  C_3
REMARK    3  A    between atoms: C_8  and  N_9
REMARK    4  A    between atoms: C_16  and  C_17
REMARK                            x       y       z     vdW  Elec       q    Type
REMARK                         _______ _______ _______ _____ _____    ______ ____
ROOT
ATOM      1  N   UNL     1       2.726   6.254  19.266  0.00  0.00    +0.000 N 
ATOM      2  C   UNL     1       2.253   5.108  18.677  0.00  0.00    +0.000 C 
ATOM      3  O   UNL     1       1.194   5.008  18.063  0.00  0.00    +0.000 OA
ATOM      4  N   UNL     1       3.072   4.004  18.835  0.00  0.00    +0.000 N 
ATOM      5  C   UNL     1       2.660   2.713  18.318  0.00  0.00    +0.000 C 
ATOM      6  C   UNL     1       3.501   1.722  19.095  0.00  0.00    +0.000 C 
ATOM      7  C   UNL     1       4.817   2.457  19.322  0.00  0.00    +0.000 C 
ATOM      8  C   UNL     1       4.467   3.961  19.292  0.00  0.00    +0.000 C 
ATOM      9  H   UNL     1       3.251   6.107  20.118  0.00  0.00    +0.000 HD
ENDROOT
BRANCH   1  15
ATOM     10  C   UNL     1       2.482   8.252  17.932  0.00  0.00    +0.000 A 
ATOM     11  C   UNL     1       2.030   9.571  17.736  0.00  0.00    +0.000 A 
ATOM     12  C   UNL     1       1.288  10.225  18.715  0.00  0.00    +0.000 A 
ATOM     13  C   UNL     1       0.990   9.541  19.879  0.00  0.00    +0.000 A 
ATOM     14  C   UNL     1       1.442   8.227  20.105  0.00  0.00    +0.000 A 
ATOM     15  C   UNL     1       2.217   7.573  19.151  0.00  0.00    +0.000 A 
ATOM     16  C   UNL     1       0.939   7.767  21.444  0.00  0.00    +0.000 C 
ATOM     17  C   UNL     1      -0.196   8.759  21.727  0.00  0.00    +0.000 C 
ATOM     18  C   UNL     1       0.208  10.064  21.044  0.00  0.00    +0.000 C 
BRANCH  10  20
ATOM     19  C   UNL     1       4.611   7.778  16.963  0.00  0.00    +0.000 C 
ATOM     20  O   UNL     1       3.206   7.542  16.995  0.00  0.00    +0.000 OA
ENDBRANCH  10  20
ENDBRANCH   1  15
BRANCH   8  21
ATOM     21  C   UNL     1       5.445   4.792  18.419  0.00  0.00    +0.000 C 
ATOM     22  C   UNL     1       5.666   4.257  17.005  0.00  0.00    +0.000 C 
ATOM     23  C   UNL     1       7.079   4.678  16.701  0.00  0.00    +0.000 C 
ATOM     24  C   UNL     1       7.740   4.532  18.051  0.00  0.00    +0.000 C 
ATOM     25  O   UNL     1       6.751   4.879  19.032  0.00  0.00    +0.000 OA
ENDBRANCH   8  21
TORSDOF 3
ENDMDL
MODEL 7
REMARK VINA RESULT:      -6.3      1.483      6.211
REMARK  Name = 
REMARK  4 active torsions:
REMARK  status: ('A' for Active; 'I' for Inactive)
REMARK    1  A    between atoms: C_1  and  O_2
REMARK    2  A    between atoms: O_2  and  C_3
REMARK    3  A    between atoms: C_8  and  N_9
REMARK    4  A    between atoms: C_16  and  C_17
REMARK                            x       y       z     vdW  Elec       q    Type
REMARK                         _______ _______ _______ _____ _____    ______ ____
ROOT
ATOM      1  N   UNL     1       4.280   4.586  17.801  0.00  0.00    +0.000 N 
ATOM      2  C   UNL     1       4.246   3.686  18.836  0.00  0.00    +0.000 C 
ATOM      3  O   UNL     1       5.155   2.917  19.140  0.00  0.00    +0.000 OA
ATOM      4  N   UNL     1       3.061   3.678  19.549  0.00  0.00    +0.000 N 
ATOM      5  C   UNL     1       2.868   2.728  20.629  0.00  0.00    +0.000 C 
ATOM      6  C   UNL     1       1.365   2.671  20.803  0.00  0.00    +0.000 C 
ATOM      7  C   UNL     1       0.904   4.087  20.475  0.00  0.00    +0.000 C 
ATOM      8  C   UNL     1       1.975   4.667  19.526  0.00  0.00    +0.000 C 
ATOM      9  H   UNL     1       3.390   4.739  17.343  0.00  0.00    +0.000 HD
ENDROOT
BRANCH   1  15
ATOM     10  C   UNL     1       6.436   5.660  17.637  0.00  0.00    +0.000 A 
ATOM     11  C   UNL     1       7.567   6.078  16.909  0.00  0.00    +0.000 A 
ATOM     12  C   UNL     1       7.695   5.782  15.555  0.00  0.00    +0.000 A 
ATOM     13  C   UNL     1       6.694   5.050  14.946  0.00  0.00    +0.000 A 
ATOM     14  C   UNL     1       5.547   4.631  15.647  0.00  0.00    +0.000 A 
ATOM     15  C   UNL     1       5.386   4.953  16.992  0.00  0.00    +0.000 A 
ATOM     16  C   UNL     1       4.668   3.850  14.713  0.00  0.00    +0.000 C 
ATOM     17  C   UNL     1       5.633   3.487  13.578  0.00  0.00    +0.000 C 
ATOM     18  C   UNL     1       6.646   4.630  13.510  0.00  0.00    +0.000 C 
BRANCH  10  20
ATOM     19  C   UNL     1       7.371   5.648  19.833  0.00  0.00    +0.000 C 
ATOM     20  O   UNL     1       6.256   5.905  18.983  0.00  0.00    +0.000 OA
ENDBRANCH  10  20
ENDBRANCH   1  15
BRANCH   8  21
ATOM     21  C   UNL     1       2.418   6.102  19.918  0.00  0.00    +0.000 C 
ATOM     22  C   UNL     1       1.407   6.887  20.752  0.00  0.00    +0.000 C 
ATOM     23  C   UNL     1       1.663   8.312  20.340  0.00  0.00    +0.000 C 
ATOM     24  C   UNL     1       1.997   8.153  18.876  0.00  0.00    +0.000 C 
ATOM     25  O   UNL     1       2.693   6.904  18.748  0.00  0.00    +0.000 OA
ENDBRANCH   8  21
TORSDOF 3
ENDMDL
MODEL 8
REMARK VINA RESULT:      -6.1      3.153      6.382
REMARK  Name = 
REMARK  4 active torsions:
REMARK  status: ('A' for Active; 'I' for Inactive)
REMARK    1  A    between atoms: C_1  and  O_2
REMARK    2  A    between atoms: O_2  and  C_3
REMARK    3  A    between atoms: C_8  and  N_9
REMARK    4  A    between atoms: C_16  and  C_17
REMARK                            x       y       z     vdW  Elec       q    Type
REMARK                         _______ _______ _______ _____ _____    ______ ____
ROOT
ATOM      1  N   UNL     1       2.867   7.132  19.322  0.00  0.00    +0.000 N 
ATOM      2  C   UNL     1       1.989   7.756  18.471  0.00  0.00    +0.000 C 
ATOM      3  O   UNL     1       1.569   7.290  17.415  0.00  0.00    +0.000 OA
ATOM      4  N   UNL     1       1.594   9.016  18.882  0.00  0.00    +0.000 N 
ATOM      5  C   UNL     1       0.719   9.813  18.042  0.00  0.00    +0.000 C 
ATOM      6  C   UNL     1       0.927  11.229  18.536  0.00  0.00    +0.000 C 
ATOM      7  C   UNL     1       1.181  11.063  20.031  0.00  0.00    +0.000 C 
ATOM      8  C   UNL     1       1.761   9.641  20.200  0.00  0.00    +0.000 C 
ATOM      9  H   UNL     1       3.505   7.752  19.803  0.00  0.00    +0.000 HD
ENDROOT
BRANCH   1  15
ATOM     10  C   UNL     1       4.530   5.558  18.556  0.00  0.00    +0.000 A 
ATOM     11  C   UNL     1       5.055   4.255  18.446  0.00  0.00    +0.000 A 
ATOM     12  C   UNL     1       4.429   3.178  19.065  0.00  0.00    +0.000 A 
ATOM     13  C   UNL     1       3.289   3.420  19.808  0.00  0.00    +0.000 A 
ATOM     14  C   UNL     1       2.736   4.709  19.923  0.00  0.00    +0.000 A 
ATOM     15  C   UNL     1       3.329   5.791  19.278  0.00  0.00    +0.000 A 
ATOM     16  C   UNL     1       1.520   4.637  20.803  0.00  0.00    +0.000 C 
ATOM     17  C   UNL     1       1.716   3.298  21.525  0.00  0.00    +0.000 C 
ATOM     18  C   UNL     1       2.475   2.403  20.547  0.00  0.00    +0.000 C 
BRANCH  10  20
ATOM     19  C   UNL     1       5.239   6.662  16.563  0.00  0.00    +0.000 C 
ATOM     20  O   UNL     1       5.111   6.670  17.982  0.00  0.00    +0.000 OA
ENDBRANCH  10  20
ENDBRANCH   1  15
BRANCH   8  21
ATOM     21  C   UNL     1       1.100   8.853  21.362  0.00  0.00    +0.000 C 
ATOM     22  C   UNL     1      -0.427   8.814  21.333  0.00  0.00    +0.000 C 
ATOM     23  C   UNL     1      -0.791   8.737  22.792  0.00  0.00    +0.000 C 
ATOM     24  C   UNL     1       0.278   9.598  23.421  0.00  0.00    +0.000 C 
ATOM     25  O   UNL     1       1.471   9.403  22.646  0.00  0.00    +0.000 OA
ENDBRANCH   8  21
TORSDOF 3
ENDMDL
MODEL 9
REMARK VINA RESULT:      -6.1      9.333     11.812
REMARK  Name = 
REMARK  4 active torsions:
REMARK  status: ('A' for Active; 'I' for Inactive)
REMARK    1  A    between atoms: C_1  and  O_2
REMARK    2  A    between atoms: O_2  and  C_3
REMARK    3  A    between atoms: C_8  and  N_9
REMARK    4  A    between atoms: C_16  and  C_17
REMARK                            x       y       z     vdW  Elec       q    Type
REMARK                         _______ _______ _______ _____ _____    ______ ____
ROOT
ATOM      1  N   UNL     1      -4.917  11.634  19.365  0.00  0.00    +0.000 N 
ATOM      2  C   UNL     1      -4.905  11.744  17.997  0.00  0.00    +0.000 C 
ATOM      3  O   UNL     1      -5.736  12.348  17.325  0.00  0.00    +0.000 OA
ATOM      4  N   UNL     1      -3.856  11.084  17.381  0.00  0.00    +0.000 N 
ATOM      5  C   UNL     1      -3.762  11.064  15.933  0.00  0.00    +0.000 C 
ATOM      6  C   UNL     1      -2.856   9.886  15.642  0.00  0.00    +0.000 C 
ATOM      7  C   UNL     1      -1.885   9.870  16.818  0.00  0.00    +0.000 C 
ATOM      8  C   UNL     1      -2.638  10.537  17.990  0.00  0.00    +0.000 C 
ATOM      9  H   UNL     1      -4.565  10.756  19.724  0.00  0.00    +0.000 HD
ENDROOT
BRANCH   1  15
ATOM     10  C   UNL     1      -7.020  11.740  20.548  0.00  0.00    +0.000 A 
ATOM     11  C   UNL     1      -7.916  12.356  21.442  0.00  0.00    +0.000 A 
ATOM     12  C   UNL     1      -7.564  13.521  22.118  0.00  0.00    +0.000 A 
ATOM     13  C   UNL     1      -6.305  14.048  21.903  0.00  0.00    +0.000 A 
ATOM     14  C   UNL     1      -5.395  13.459  21.005  0.00  0.00    +0.000 A 
ATOM     15  C   UNL     1      -5.747  12.316  20.292  0.00  0.00    +0.000 A 
ATOM     16  C   UNL     1      -4.122  14.258  21.013  0.00  0.00    +0.000 C 
ATOM     17  C   UNL     1      -4.243  15.056  22.317  0.00  0.00    +0.000 C 
ATOM     18  C   UNL     1      -5.738  15.284  22.531  0.00  0.00    +0.000 C 
BRANCH  10  20
ATOM     19  C   UNL     1      -7.583   9.422  20.649  0.00  0.00    +0.000 C 
ATOM     20  O   UNL     1      -7.300  10.576  19.861  0.00  0.00    +0.000 OA
ENDBRANCH  10  20
ENDBRANCH   1  15
BRANCH   8  21
ATOM     21  C   UNL     1      -1.778  11.590  18.740  0.00  0.00    +0.000 C 
ATOM     22  C   UNL     1      -0.267  11.388  18.634  0.00  0.00    +0.000 C 
ATOM     23  C   UNL     1       0.240  11.941  19.938  0.00  0.00    +0.000 C 
ATOM     24  C   UNL     1      -0.861  11.541  20.891  0.00  0.00    +0.000 C 
ATOM     25  O   UNL     1      -2.090  11.613  20.151  0.00  0.00    +0.000 OA
ENDBRANCH   8  21
TORSDOF 3
ENDMDL
