MODEL 1
REMARK VINA RESULT:      -6.2      0.000      0.000
REMARK  Name = 
REMARK  7 active torsions:
REMARK  status: ('A' for Active; 'I' for Inactive)
REMARK    1  A    between atoms: C_1  and  C_2
REMARK    2  A    between atoms: C_2  and  C_3
REMARK    3  A    between atoms: C_2  and  N_11
REMARK    4  A    between atoms: C_3  and  O_4
REMARK    5  A    between atoms: O_4  and  C_5
REMARK    6  A    between atoms: N_11  and  S_12
REMARK    7  A    between atoms: S_12  and  C_13
REMARK                            x       y       z     vdW  Elec       q    Type
REMARK                         _______ _______ _______ _____ _____    ______ ____
ROOT
ATOM      1  C   UNL     1       3.367   6.269  17.892  0.00  0.00    +0.000 C 
ATOM      2  C   UNL     1       4.506   5.282  17.639  0.00  0.00    +0.000 C 
ENDROOT
BRANCH   2   3
ATOM      3  N   UNL     1       5.510   5.857  16.686  0.00  0.00    +0.000 NA
ATOM      4  H   UNL     1       5.234   6.807  16.420  0.00  0.00    +0.000 HD
BRANCH   3   5
ATOM      5  S   UNL     1       7.135   5.768  17.140  0.00  0.00    +0.000 S 
ATOM      6  C   UNL     1       6.994   5.658  18.910  0.00  0.00    +0.000 C 
ATOM      7  O   UNL     1       7.644   4.507  16.656  0.00  0.00    +0.000 OA
ATOM      8  O   UNL     1       7.758   7.028  16.795  0.00  0.00    +0.000 OA
ENDBRANCH   3   5
ENDBRANCH   2   3
BRANCH   2   9
ATOM      9  C   UNL     1       3.962   3.974  17.023  0.00  0.00    +0.000 C 
BRANCH   9  10
ATOM     10  O   UNL     1       4.064   2.918  17.991  0.00  0.00    +0.000 OA
BRANCH  10  11
ATOM     11  C   UNL     1       3.083   2.891  18.944  0.00  0.00    +0.000 A 
ATOM     12  C   UNL     1       3.531   2.791  20.264  0.00  0.00    +0.000 A 
ATOM     13  C   UNL     1       2.619   2.768  21.320  0.00  0.00    +0.000 A 
ATOM     14  C   UNL     1       1.252   2.862  21.063  0.00  0.00    +0.000 A 
ATOM     15  C   UNL     1       0.803   2.985  19.750  0.00  0.00    +0.000 A 
ATOM     16  C   UNL     1       1.715   3.003  18.691  0.00  0.00    +0.000 A 
ENDBRANCH  10  11
ENDBRANCH   9  10
ENDBRANCH   2   9
TORSDOF 5
ENDMDL
MODEL 2
REMARK VINA RESULT:      -6.1      1.753      2.339
REMARK  Name = 
REMARK  7 active torsions:
REMARK  status: ('A' for Active; 'I' for Inactive)
REMARK    1  A    between atoms: C_1  and  C_2
REMARK    2  A    between atoms: C_2  and  C_3
REMARK    3  A    between atoms: C_2  and  N_11
REMARK    4  A    between atoms: C_3  and  O_4
REMARK    5  A    between atoms: O_4  and  C_5
REMARK    6  A    between atoms: N_11  and  S_12
REMARK    7  A    between atoms: S_12  and  C_13
REMARK                            x       y       z     vdW  Elec       q    Type
REMARK                         _______ _______ _______ _____ _____    ______ ____
ROOT
ATOM      1  C   UNL     1       5.756   4.029  15.426  0.00  0.00    +0.000 C 
ATOM      2  C   UNL     1       5.104   4.555  16.703  0.00  0.00    +0.000 C 
ENDROOT
BRANCH   2   3
ATOM      3  N   UNL     1       5.838   4.070  17.917  0.00  0.00    +0.000 NA
ATOM      4  H   UNL     1       5.996   3.060  17.848  0.00  0.00    +0.000 HD
BRANCH   3   5
ATOM      5  S   UNL     1       7.240   4.907  18.350  0.00  0.00    +0.000 S 
ATOM      6  C   UNL     1       7.025   6.428  17.455  0.00  0.00    +0.000 C 
ATOM      7  O   UNL     1       7.140   5.204  19.759  0.00  0.00    +0.000 OA
ATOM      8  O   UNL     1       8.369   4.191  17.796  0.00  0.00    +0.000 OA
ENDBRANCH   3   5
ENDBRANCH   2   3
BRANCH   2   9
ATOM      9  C   UNL     1       3.642   4.066  16.806  0.00  0.00    +0.000 C 
BRANCH   9  10
ATOM     10  O   UNL     1       2.893   4.984  17.618  0.00  0.00    +0.000 OA
BRANCH  10  11
ATOM     11  C   UNL     1       2.343   4.457  18.753  0.00  0.00    +0.000 A 
ATOM     12  C   UNL     1       1.451   3.399  18.553  0.00  0.00    +0.000 A 
ATOM     13  C   UNL     1       0.839   2.775  19.640  0.00  0.00    +0.000 A 
ATOM     14  C   UNL     1       1.127   3.195  20.938  0.00  0.00    +0.000 A 
ATOM     15  C   UNL     1       2.034   4.233  21.143  0.00  0.00    +0.000 A 
ATOM     16  C   UNL     1       2.644   4.862  20.054  0.00  0.00    +0.000 A 
ENDBRANCH  10  11
ENDBRANCH   9  10
ENDBRANCH   2   9
TORSDOF 5
ENDMDL
MODEL 3
REMARK VINA RESULT:      -6.1      1.785      2.307
REMARK  Name = 
REMARK  7 active torsions:
REMARK  status: ('A' for Active; 'I' for Inactive)
REMARK    1  A    between atoms: C_1  and  C_2
REMARK    2  A    between atoms: C_2  and  C_3
REMARK    3  A    between atoms: C_2  and  N_11
REMARK    4  A    between atoms: C_3  and  O_4
REMARK    5  A    between atoms: O_4  and  C_5
REMARK    6  A    between atoms: N_11  and  S_12
REMARK    7  A    between atoms: S_12  and  C_13
REMARK                            x       y       z     vdW  Elec       q    Type
REMARK                         _______ _______ _______ _____ _____    ______ ____
ROOT
ATOM      1  C   UNL     1       5.096   6.493  15.612  0.00  0.00    +0.000 C 
ATOM      2  C   UNL     1       5.207   6.400  17.133  0.00  0.00    +0.000 C 
ENDROOT
BRANCH   2   3
ATOM      3  N   UNL     1       5.921   5.147  17.542  0.00  0.00    +0.000 NA
ATOM      4  H   UNL     1       6.108   4.567  16.717  0.00  0.00    +0.000 HD
BRANCH   3   5
ATOM      5  S   UNL     1       7.288   5.327  18.517  0.00  0.00    +0.000 S 
ATOM      6  C   UNL     1       7.813   6.968  18.075  0.00  0.00    +0.000 C 
ATOM      7  O   UNL     1       6.833   5.362  19.887  0.00  0.00    +0.000 OA
ATOM      8  O   UNL     1       8.281   4.378  18.064  0.00  0.00    +0.000 OA
ENDBRANCH   3   5
ENDBRANCH   2   3
BRANCH   2   9
ATOM      9  C   UNL     1       3.803   6.378  17.778  0.00  0.00    +0.000 C 
BRANCH   9  10
ATOM     10  O   UNL     1       3.164   5.128  17.474  0.00  0.00    +0.000 OA
BRANCH  10  11
ATOM     11  C   UNL     1       2.426   4.579  18.486  0.00  0.00    +0.000 A 
ATOM     12  C   UNL     1       1.685   3.445  18.142  0.00  0.00    +0.000 A 
ATOM     13  C   UNL     1       0.905   2.793  19.097  0.00  0.00    +0.000 A 
ATOM     14  C   UNL     1       0.874   3.262  20.410  0.00  0.00    +0.000 A 
ATOM     15  C   UNL     1       1.630   4.378  20.763  0.00  0.00    +0.000 A 
ATOM     16  C   UNL     1       2.408   5.035  19.805  0.00  0.00    +0.000 A 
ENDBRANCH  10  11
ENDBRANCH   9  10
ENDBRANCH   2   9
TORSDOF 5
ENDMDL
MODEL 4
REMARK VINA RESULT:      -5.9      1.010      1.349
REMARK  Name = 
REMARK  7 active torsions:
REMARK  status: ('A' for Active; 'I' for Inactive)
REMARK    1  A    between atoms: C_1  and  C_2
REMARK    2  A    between atoms: C_2  and  C_3
REMARK    3  A    between atoms: C_2  and  N_11
REMARK    4  A    between atoms: C_3  and  O_4
REMARK    5  A    between atoms: O_4  and  C_5
REMARK    6  A    between atoms: N_11  and  S_12
REMARK    7  A    between atoms: S_12  and  C_13
REMARK                            x       y       z     vdW  Elec       q    Type
REMARK                         _______ _______ _______ _____ _____    ______ ____
ROOT
ATOM      1  C   UNL     1       3.153   6.476  18.027  0.00  0.00    +0.000 C 
ATOM      2  C   UNL     1       4.260   5.477  17.694  0.00  0.00    +0.000 C 
ENDROOT
BRANCH   2   3
ATOM      3  N   UNL     1       5.219   6.054  16.697  0.00  0.00    +0.000 NA
ATOM      4  H   UNL     1       5.143   7.076  16.692  0.00  0.00    +0.000 HD
BRANCH   3   5
ATOM      5  S   UNL     1       6.824   5.534  16.787  0.00  0.00    +0.000 S 
ATOM      6  C   UNL     1       6.928   4.486  15.353  0.00  0.00    +0.000 C 
ATOM      7  O   UNL     1       7.659   6.688  16.555  0.00  0.00    +0.000 OA
ATOM      8  O   UNL     1       6.956   4.718  17.975  0.00  0.00    +0.000 OA
ENDBRANCH   3   5
ENDBRANCH   2   3
BRANCH   2   9
ATOM      9  C   UNL     1       3.661   4.189  17.086  0.00  0.00    +0.000 C 
BRANCH   9  10
ATOM     10  O   UNL     1       3.870   3.096  17.994  0.00  0.00    +0.000 OA
BRANCH  10  11
ATOM     11  C   UNL     1       2.971   2.998  19.019  0.00  0.00    +0.000 A 
ATOM     12  C   UNL     1       3.522   2.735  20.277  0.00  0.00    +0.000 A 
ATOM     13  C   UNL     1       2.700   2.627  21.400  0.00  0.00    +0.000 A 
ATOM     14  C   UNL     1       1.322   2.797  21.274  0.00  0.00    +0.000 A 
ATOM     15  C   UNL     1       0.772   3.084  20.026  0.00  0.00    +0.000 A 
ATOM     16  C   UNL     1       1.594   3.187  18.900  0.00  0.00    +0.000 A 
ENDBRANCH  10  11
ENDBRANCH   9  10
ENDBRANCH   2   9
TORSDOF 5
ENDMDL
MODEL 5
REMARK VINA RESULT:      -5.9      1.570      2.426
REMARK  Name = 
REMARK  7 active torsions:
REMARK  status: ('A' for Active; 'I' for Inactive)
REMARK    1  A    between atoms: C_1  and  C_2
REMARK    2  A    between atoms: C_2  and  C_3
REMARK    3  A    between atoms: C_2  and  N_11
REMARK    4  A    between atoms: C_3  and  O_4
REMARK    5  A    between atoms: O_4  and  C_5
REMARK    6  A    between atoms: N_11  and  S_12
REMARK    7  A    between atoms: S_12  and  C_13
REMARK                            x       y       z     vdW  Elec       q    Type
REMARK                         _______ _______ _______ _____ _____    ______ ____
ROOT
ATOM      1  C   UNL     1       7.732   5.846  19.125  0.00  0.00    +0.000 C 
ATOM      2  C   UNL     1       6.495   5.233  18.470  0.00  0.00    +0.000 C 
ENDROOT
BRANCH   2   3
ATOM      3  N   UNL     1       5.903   6.173  17.463  0.00  0.00    +0.000 NA
ATOM      4  H   UNL     1       6.222   7.129  17.648  0.00  0.00    +0.000 HD
BRANCH   3   5
ATOM      5  S   UNL     1       6.065   5.751  15.835  0.00  0.00    +0.000 S 
ATOM      6  C   UNL     1       5.239   4.175  15.803  0.00  0.00    +0.000 C 
ATOM      7  O   UNL     1       5.269   6.684  15.072  0.00  0.00    +0.000 OA
ATOM      8  O   UNL     1       7.472   5.549  15.569  0.00  0.00    +0.000 OA
ENDBRANCH   3   5
ENDBRANCH   2   3
BRANCH   2   9
ATOM      9  C   UNL     1       5.413   4.933  19.531  0.00  0.00    +0.000 C 
BRANCH   9  10
ATOM     10  O   UNL     1       5.057   3.543  19.462  0.00  0.00    +0.000 OA
BRANCH  10  11
ATOM     11  C   UNL     1       3.719   3.279  19.368  0.00  0.00    +0.000 A 
ATOM     12  C   UNL     1       2.904   3.980  20.262  0.00  0.00    +0.000 A 
ATOM     13  C   UNL     1       1.520   3.800  20.248  0.00  0.00    +0.000 A 
ATOM     14  C   UNL     1       0.940   2.929  19.326  0.00  0.00    +0.000 A 
ATOM     15  C   UNL     1       1.747   2.247  18.417  0.00  0.00    +0.000 A 
ATOM     16  C   UNL     1       3.133   2.423  18.435  0.00  0.00    +0.000 A 
ENDBRANCH  10  11
ENDBRANCH   9  10
ENDBRANCH   2   9
TORSDOF 5
ENDMDL
MODEL 6
REMARK VINA RESULT:      -5.9      1.925      2.504
REMARK  Name = 
REMARK  7 active torsions:
REMARK  status: ('A' for Active; 'I' for Inactive)
REMARK    1  A    between atoms: C_1  and  C_2
REMARK    2  A    between atoms: C_2  and  C_3
REMARK    3  A    between atoms: C_2  and  N_11
REMARK    4  A    between atoms: C_3  and  O_4
REMARK    5  A    between atoms: O_4  and  C_5
REMARK    6  A    between atoms: N_11  and  S_12
REMARK    7  A    between atoms: S_12  and  C_13
REMARK                            x       y       z     vdW  Elec       q    Type
REMARK                         _______ _______ _______ _____ _____    ______ ____
ROOT
ATOM      1  C   UNL     1       4.898   6.402  16.238  0.00  0.00    +0.000 C 
ATOM      2  C   UNL     1       4.908   6.715  17.733  0.00  0.00    +0.000 C 
ENDROOT
BRANCH   2   3
ATOM      3  N   UNL     1       5.567   5.613  18.506  0.00  0.00    +0.000 NA
ATOM      4  H   UNL     1       5.302   4.704  18.112  0.00  0.00    +0.000 HD
BRANCH   3   5
ATOM      5  S   UNL     1       7.233   5.739  18.753  0.00  0.00    +0.000 S 
ATOM      6  C   UNL     1       7.839   4.453  17.684  0.00  0.00    +0.000 C 
ATOM      7  O   UNL     1       7.650   7.007  18.203  0.00  0.00    +0.000 OA
ATOM      8  O   UNL     1       7.504   5.375  20.127  0.00  0.00    +0.000 OA
ENDBRANCH   3   5
ENDBRANCH   2   3
BRANCH   2   9
ATOM      9  C   UNL     1       3.465   6.870  18.264  0.00  0.00    +0.000 C 
BRANCH   9  10
ATOM     10  O   UNL     1       2.636   5.851  17.682  0.00  0.00    +0.000 OA
BRANCH  10  11
ATOM     11  C   UNL     1       2.088   4.960  18.562  0.00  0.00    +0.000 A 
ATOM     12  C   UNL     1       1.640   3.761  18.000  0.00  0.00    +0.000 A 
ATOM     13  C   UNL     1       1.074   2.771  18.805  0.00  0.00    +0.000 A 
ATOM     14  C   UNL     1       0.968   2.968  20.182  0.00  0.00    +0.000 A 
ATOM     15  C   UNL     1       1.436   4.152  20.748  0.00  0.00    +0.000 A 
ATOM     16  C   UNL     1       1.998   5.146  19.942  0.00  0.00    +0.000 A 
ENDBRANCH  10  11
ENDBRANCH   9  10
ENDBRANCH   2   9
TORSDOF 5
ENDMDL
MODEL 7
REMARK VINA RESULT:      -5.9      1.799      2.020
REMARK  Name = 
REMARK  7 active torsions:
REMARK  status: ('A' for Active; 'I' for Inactive)
REMARK    1  A    between atoms: C_1  and  C_2
REMARK    2  A    between atoms: C_2  and  C_3
REMARK    3  A    between atoms: C_2  and  N_11
REMARK    4  A    between atoms: C_3  and  O_4
REMARK    5  A    between atoms: O_4  and  C_5
REMARK    6  A    between atoms: N_11  and  S_12
REMARK    7  A    between atoms: S_12  and  C_13
REMARK                            x       y       z     vdW  Elec       q    Type
REMARK                         _______ _______ _______ _____ _____    ______ ____
ROOT
ATOM      1  C   UNL     1       5.838   3.996  15.380  0.00  0.00    +0.000 C 
ATOM      2  C   UNL     1       5.254   4.280  16.763  0.00  0.00    +0.000 C 
ENDROOT
BRANCH   2   3
ATOM      3  N   UNL     1       6.313   4.181  17.820  0.00  0.00    +0.000 NA
ATOM      4  H   UNL     1       7.206   3.914  17.396  0.00  0.00    +0.000 HD
BRANCH   3   5
ATOM      5  S   UNL     1       6.474   5.496  18.869  0.00  0.00    +0.000 S 
ATOM      6  C   UNL     1       7.330   6.661  17.833  0.00  0.00    +0.000 C 
ATOM      7  O   UNL     1       5.147   6.011  19.113  0.00  0.00    +0.000 OA
ATOM      8  O   UNL     1       7.350   5.095  19.948  0.00  0.00    +0.000 OA
ENDBRANCH   3   5
ENDBRANCH   2   3
BRANCH   2   9
ATOM      9  C   UNL     1       4.147   3.259  17.103  0.00  0.00    +0.000 C 
BRANCH   9  10
ATOM     10  O   UNL     1       4.320   2.808  18.456  0.00  0.00    +0.000 OA
BRANCH  10  11
ATOM     11  C   UNL     1       3.237   2.967  19.276  0.00  0.00    +0.000 A 
ATOM     12  C   UNL     1       3.418   2.546  20.597  0.00  0.00    +0.000 A 
ATOM     13  C   UNL     1       2.386   2.672  21.527  0.00  0.00    +0.000 A 
ATOM     14  C   UNL     1       1.169   3.237  21.146  0.00  0.00    +0.000 A 
ATOM     15  C   UNL     1       0.993   3.680  19.837  0.00  0.00    +0.000 A 
ATOM     16  C   UNL     1       2.026   3.549  18.903  0.00  0.00    +0.000 A 
ENDBRANCH  10  11
ENDBRANCH   9  10
ENDBRANCH   2   9
TORSDOF 5
ENDMDL
MODEL 8
REMARK VINA RESULT:      -5.8      2.107      2.526
REMARK  Name = 
REMARK  7 active torsions:
REMARK  status: ('A' for Active; 'I' for Inactive)
REMARK    1  A    between atoms: C_1  and  C_2
REMARK    2  A    between atoms: C_2  and  C_3
REMARK    3  A    between atoms: C_2  and  N_11
REMARK    4  A    between atoms: C_3  and  O_4
REMARK    5  A    between atoms: O_4  and  C_5
REMARK    6  A    between atoms: N_11  and  S_12
REMARK    7  A    between atoms: S_12  and  C_13
REMARK                            x       y       z     vdW  Elec       q    Type
REMARK                         _______ _______ _______ _____ _____    ______ ____
ROOT
ATOM      1  C   UNL     1       7.094   4.686  14.970  0.00  0.00    +0.000 C 
ATOM      2  C   UNL     1       6.392   4.696  16.327  0.00  0.00    +0.000 C 
ENDROOT
BRANCH   2   3
ATOM      3  N   UNL     1       7.370   4.453  17.437  0.00  0.00    +0.000 NA
ATOM      4  H   UNL     1       8.321   4.400  17.059  0.00  0.00    +0.000 HD
BRANCH   3   5
ATOM      5  S   UNL     1       7.274   5.475  18.780  0.00  0.00    +0.000 S 
ATOM      6  C   UNL     1       7.627   7.053  18.038  0.00  0.00    +0.000 C 
ATOM      7  O   UNL     1       5.896   5.485  19.209  0.00  0.00    +0.000 OA
ATOM      8  O   UNL     1       8.354   5.125  19.677  0.00  0.00    +0.000 OA
ENDBRANCH   3   5
ENDBRANCH   2   3
BRANCH   2   9
ATOM      9  C   UNL     1       5.319   3.587  16.389  0.00  0.00    +0.000 C 
BRANCH   9  10
ATOM     10  O   UNL     1       4.016   4.191  16.426  0.00  0.00    +0.000 OA
BRANCH  10  11
ATOM     11  C   UNL     1       3.153   3.679  17.355  0.00  0.00    +0.000 A 
ATOM     12  C   UNL     1       3.480   2.412  17.845  0.00  0.00    +0.000 A 
ATOM     13  C   UNL     1       2.677   1.796  18.807  0.00  0.00    +0.000 A 
ATOM     14  C   UNL     1       1.550   2.454  19.298  0.00  0.00    +0.000 A 
ATOM     15  C   UNL     1       1.234   3.728  18.830  0.00  0.00    +0.000 A 
ATOM     16  C   UNL     1       2.034   4.342  17.862  0.00  0.00    +0.000 A 
ENDBRANCH  10  11
ENDBRANCH   9  10
ENDBRANCH   2   9
TORSDOF 5
ENDMDL
MODEL 9
REMARK VINA RESULT:      -5.7      1.767      2.765
REMARK  Name = 
REMARK  7 active torsions:
REMARK  status: ('A' for Active; 'I' for Inactive)
REMARK    1  A    between atoms: C_1  and  C_2
REMARK    2  A    between atoms: C_2  and  C_3
REMARK    3  A    between atoms: C_2  and  N_11
REMARK    4  A    between atoms: C_3  and  O_4
REMARK    5  A    between atoms: O_4  and  C_5
REMARK    6  A    between atoms: N_11  and  S_12
REMARK    7  A    between atoms: S_12  and  C_13
REMARK                            x       y       z     vdW  Elec       q    Type
REMARK                         _______ _______ _______ _____ _____    ______ ____
ROOT
ATOM      1  C   UNL     1       7.746   5.005  18.701  0.00  0.00    +0.000 C 
ATOM      2  C   UNL     1       6.298   5.003  18.213  0.00  0.00    +0.000 C 
ENDROOT
BRANCH   2   3
ATOM      3  N   UNL     1       6.053   6.134  17.260  0.00  0.00    +0.000 NA
ATOM      4  H   UNL     1       6.689   6.910  17.469  0.00  0.00    +0.000 HD
BRANCH   3   5
ATOM      5  S   UNL     1       6.027   5.757  15.613  0.00  0.00    +0.000 S 
ATOM      6  C   UNL     1       5.153   4.208  15.628  0.00  0.00    +0.000 C 
ATOM      7  O   UNL     1       5.185   6.735  14.966  0.00  0.00    +0.000 OA
ATOM      8  O   UNL     1       7.391   5.523  15.193  0.00  0.00    +0.000 OA
ENDBRANCH   3   5
ENDBRANCH   2   3
BRANCH   2   9
ATOM      9  C   UNL     1       5.326   5.165  19.402  0.00  0.00    +0.000 C 
BRANCH   9  10
ATOM     10  O   UNL     1       4.057   5.630  18.914  0.00  0.00    +0.000 OA
BRANCH  10  11
ATOM     11  C   UNL     1       2.975   4.867  19.257  0.00  0.00    +0.000 A 
ATOM     12  C   UNL     1       2.383   4.160  18.206  0.00  0.00    +0.000 A 
ATOM     13  C   UNL     1       1.280   3.338  18.440  0.00  0.00    +0.000 A 
ATOM     14  C   UNL     1       0.772   3.204  19.732  0.00  0.00    +0.000 A 
ATOM     15  C   UNL     1       1.375   3.888  20.786  0.00  0.00    +0.000 A 
ATOM     16  C   UNL     1       2.476   4.716  20.551  0.00  0.00    +0.000 A 
ENDBRANCH  10  11
ENDBRANCH   9  10
ENDBRANCH   2   9
TORSDOF 5
ENDMDL
