MODEL 1
REMARK VINA RESULT:      -8.6      0.000      0.000
REMARK  Name = 
REMARK  8 active torsions:
REMARK  status: ('A' for Active; 'I' for Inactive)
REMARK    1  A    between atoms: C_1  and  O_2
REMARK    2  A    between atoms: O_2  and  C_3
REMARK    3  A    between atoms: C_7  and  O_8
REMARK    4  A    between atoms: O_8  and  C_9
REMARK    5  A    between atoms: C_9  and  C_10
REMARK    6  A    between atoms: C_10  and  N_11
REMARK    7  A    between atoms: C_13  and  C_14
REMARK    8  A    between atoms: C_14  and  C_16
REMARK                            x       y       z     vdW  Elec       q    Type
REMARK                         _______ _______ _______ _____ _____    ______ ____
ROOT
ATOM      1  N   UNL     1       3.204   6.349  18.215  0.00  0.00    +0.000 N 
ATOM      2  C   UNL     1       4.056   6.231  19.360  0.00  0.00    +0.000 A 
ATOM      3  C   UNL     1       4.773   5.141  18.900  0.00  0.00    +0.000 A 
ATOM      4  C   UNL     1       3.772   4.204  18.854  0.00  0.00    +0.000 A 
ATOM      5  C   UNL     1       3.881   2.828  19.183  0.00  0.00    +0.000 A 
ATOM      6  C   UNL     1       2.865   1.931  18.885  0.00  0.00    +0.000 A 
ATOM      7  C   UNL     1       1.846   2.479  18.096  0.00  0.00    +0.000 A 
ATOM      8  C   UNL     1       1.773   3.915  17.665  0.00  0.00    +0.000 A 
ATOM      9  C   UNL     1       2.750   4.898  18.133  0.00  0.00    +0.000 A 
ENDROOT
BRANCH   3  10
ATOM     10  C   UNL     1       6.052   4.891  18.307  0.00  0.00    +0.000 C 
ATOM     11  O   UNL     1       7.090   4.655  18.969  0.00  0.00    +0.000 OA
BRANCH  10  12
ATOM     12  C   UNL     1       6.011   4.846  16.898  0.00  0.00    +0.000 A 
ATOM     13  C   UNL     1       5.734   5.872  15.981  0.00  0.00    +0.000 A 
ATOM     14  C   UNL     1       5.752   5.236  14.757  0.00  0.00    +0.000 A 
ATOM     15  C   UNL     1       5.982   3.886  14.930  0.00  0.00    +0.000 A 
ATOM     16  O   UNL     1       6.137   3.667  16.280  0.00  0.00    +0.000 OA
ENDBRANCH  10  12
ENDBRANCH   3  10
BRANCH   1  17
ATOM     17  C   UNL     1       3.046   7.859  17.837  0.00  0.00    +0.000 C 
BRANCH  17  18
ATOM     18  C   UNL     1       1.514   8.740  18.044  0.00  0.00    +0.000 C 
BRANCH  18  19
ATOM     19  O   UNL     1       1.438   9.943  18.974  0.00  0.00    +0.000 OA
BRANCH  19  24
ATOM     20  C   UNL     1      -0.293  10.912  22.264  0.00  0.00    +0.000 A 
ATOM     21  C   UNL     1      -0.530   9.658  22.829  0.00  0.00    +0.000 A 
ATOM     22  C   UNL     1      -0.096   8.535  22.144  0.00  0.00    +0.000 A 
ATOM     23  C   UNL     1       0.555   8.672  20.878  0.00  0.00    +0.000 A 
ATOM     24  C   UNL     1       0.784   9.929  20.244  0.00  0.00    +0.000 A 
ATOM     25  C   UNL     1       0.342  11.044  20.980  0.00  0.00    +0.000 A 
BRANCH  20  27
ATOM     26  C   UNL     1      -2.104  12.175  23.162  0.00  0.00    +0.000 C 
ATOM     27  O   UNL     1      -0.712  11.931  23.086  0.00  0.00    +0.000 OA
ENDBRANCH  20  27
ENDBRANCH  19  24
ENDBRANCH  18  19
ENDBRANCH  17  18
ENDBRANCH   1  17
TORSDOF 7
ENDMDL
MODEL 2
REMARK VINA RESULT:      -8.5      1.091      1.547
REMARK  Name = 
REMARK  8 active torsions:
REMARK  status: ('A' for Active; 'I' for Inactive)
REMARK    1  A    between atoms: C_1  and  O_2
REMARK    2  A    between atoms: O_2  and  C_3
REMARK    3  A    between atoms: C_7  and  O_8
REMARK    4  A    between atoms: O_8  and  C_9
REMARK    5  A    between atoms: C_9  and  C_10
REMARK    6  A    between atoms: C_10  and  N_11
REMARK    7  A    between atoms: C_13  and  C_14
REMARK    8  A    between atoms: C_14  and  C_16
REMARK                            x       y       z     vdW  Elec       q    Type
REMARK                         _______ _______ _______ _____ _____    ______ ____
ROOT
ATOM      1  N   UNL     1       3.787   6.031  17.859  0.00  0.00    +0.000 N 
ATOM      2  C   UNL     1       4.697   5.922  18.959  0.00  0.00    +0.000 A 
ATOM      3  C   UNL     1       5.400   4.838  18.463  0.00  0.00    +0.000 A 
ATOM      4  C   UNL     1       4.407   3.892  18.468  0.00  0.00    +0.000 A 
ATOM      5  C   UNL     1       4.545   2.517  18.791  0.00  0.00    +0.000 A 
ATOM      6  C   UNL     1       3.524   1.611  18.545  0.00  0.00    +0.000 A 
ATOM      7  C   UNL     1       2.461   2.149  17.808  0.00  0.00    +0.000 A 
ATOM      8  C   UNL     1       2.352   3.583  17.382  0.00  0.00    +0.000 A 
ATOM      9  C   UNL     1       3.343   4.576  17.799  0.00  0.00    +0.000 A 
ENDROOT
BRANCH   3  10
ATOM     10  C   UNL     1       6.650   4.600  17.806  0.00  0.00    +0.000 C 
ATOM     11  O   UNL     1       7.720   4.363  18.414  0.00  0.00    +0.000 OA
BRANCH  10  12
ATOM     12  C   UNL     1       6.540   4.567  16.401  0.00  0.00    +0.000 A 
ATOM     13  C   UNL     1       5.861   3.651  15.581  0.00  0.00    +0.000 A 
ATOM     14  C   UNL     1       6.168   4.062  14.301  0.00  0.00    +0.000 A 
ATOM     15  C   UNL     1       7.027   5.142  14.345  0.00  0.00    +0.000 A 
ATOM     16  O   UNL     1       7.247   5.435  15.671  0.00  0.00    +0.000 OA
ENDBRANCH  10  12
ENDBRANCH   3  10
BRANCH   1  17
ATOM     17  C   UNL     1       3.596   7.540  17.489  0.00  0.00    +0.000 C 
BRANCH  17  18
ATOM     18  C   UNL     1       2.124   8.446  17.909  0.00  0.00    +0.000 C 
BRANCH  18  19
ATOM     19  O   UNL     1       1.750   8.674  19.367  0.00  0.00    +0.000 OA
BRANCH  19  24
ATOM     20  C   UNL     1      -0.613  10.873  21.451  0.00  0.00    +0.000 A 
ATOM     21  C   UNL     1      -1.213  11.649  20.458  0.00  0.00    +0.000 A 
ATOM     22  C   UNL     1      -0.859  11.417  19.138  0.00  0.00    +0.000 A 
ATOM     23  C   UNL     1       0.118  10.422  18.820  0.00  0.00    +0.000 A 
ATOM     24  C   UNL     1       0.785   9.633  19.803  0.00  0.00    +0.000 A 
ATOM     25  C   UNL     1       0.385   9.888  21.128  0.00  0.00    +0.000 A 
BRANCH  20  27
ATOM     26  C   UNL     1      -1.338  12.525  23.007  0.00  0.00    +0.000 C 
ATOM     27  O   UNL     1      -1.114  11.162  22.698  0.00  0.00    +0.000 OA
ENDBRANCH  20  27
ENDBRANCH  19  24
ENDBRANCH  18  19
ENDBRANCH  17  18
ENDBRANCH   1  17
TORSDOF 7
ENDMDL
MODEL 3
REMARK VINA RESULT:      -8.5      2.693      3.523
REMARK  Name = 
REMARK  8 active torsions:
REMARK  status: ('A' for Active; 'I' for Inactive)
REMARK    1  A    between atoms: C_1  and  O_2
REMARK    2  A    between atoms: O_2  and  C_3
REMARK    3  A    between atoms: C_7  and  O_8
REMARK    4  A    between atoms: O_8  and  C_9
REMARK    5  A    between atoms: C_9  and  C_10
REMARK    6  A    between atoms: C_10  and  N_11
REMARK    7  A    between atoms: C_13  and  C_14
REMARK    8  A    between atoms: C_14  and  C_16
REMARK                            x       y       z     vdW  Elec       q    Type
REMARK                         _______ _______ _______ _____ _____    ______ ____
ROOT
ATOM      1  N   UNL     1       2.503   6.396  18.973  0.00  0.00    +0.000 N 
ATOM      2  C   UNL     1       3.909   6.147  18.867  0.00  0.00    +0.000 A 
ATOM      3  C   UNL     1       3.796   4.835  18.442  0.00  0.00    +0.000 A 
ATOM      4  C   UNL     1       3.215   4.277  19.552  0.00  0.00    +0.000 A 
ATOM      5  C   UNL     1       3.477   2.991  20.092  0.00  0.00    +0.000 A 
ATOM      6  C   UNL     1       2.672   2.445  21.081  0.00  0.00    +0.000 A 
ATOM      7  C   UNL     1       1.519   3.195  21.343  0.00  0.00    +0.000 A 
ATOM      8  C   UNL     1       1.189   4.513  20.706  0.00  0.00    +0.000 A 
ATOM      9  C   UNL     1       2.128   5.173  19.799  0.00  0.00    +0.000 A 
ENDROOT
BRANCH   3  10
ATOM     10  C   UNL     1       3.889   4.112  17.209  0.00  0.00    +0.000 C 
ATOM     11  O   UNL     1       2.951   3.431  16.731  0.00  0.00    +0.000 OA
BRANCH  10  12
ATOM     12  C   UNL     1       5.111   4.317  16.536  0.00  0.00    +0.000 A 
ATOM     13  C   UNL     1       5.374   4.353  15.157  0.00  0.00    +0.000 A 
ATOM     14  C   UNL     1       6.744   4.500  15.086  0.00  0.00    +0.000 A 
ATOM     15  C   UNL     1       7.285   4.506  16.356  0.00  0.00    +0.000 A 
ATOM     16  O   UNL     1       6.242   4.386  17.245  0.00  0.00    +0.000 OA
ENDBRANCH  10  12
ENDBRANCH   3  10
BRANCH   1  17
ATOM     17  C   UNL     1       2.182   7.817  18.403  0.00  0.00    +0.000 C 
BRANCH  17  18
ATOM     18  C   UNL     1       1.325   9.054  19.353  0.00  0.00    +0.000 C 
BRANCH  18  19
ATOM     19  O   UNL     1       0.842  10.336  18.688  0.00  0.00    +0.000 OA
BRANCH  19  24
ATOM     20  C   UNL     1      -2.715  10.557  17.252  0.00  0.00    +0.000 A 
ATOM     21  C   UNL     1      -3.330  11.408  18.172  0.00  0.00    +0.000 A 
ATOM     22  C   UNL     1      -2.568  11.912  19.214  0.00  0.00    +0.000 A 
ATOM     23  C   UNL     1      -1.193  11.539  19.345  0.00  0.00    +0.000 A 
ATOM     24  C   UNL     1      -0.534  10.643  18.453  0.00  0.00    +0.000 A 
ATOM     25  C   UNL     1      -1.338  10.167  17.400  0.00  0.00    +0.000 A 
BRANCH  20  27
ATOM     26  C   UNL     1      -3.052  10.201  14.920  0.00  0.00    +0.000 C 
ATOM     27  O   UNL     1      -3.570  10.197  16.238  0.00  0.00    +0.000 OA
ENDBRANCH  20  27
ENDBRANCH  19  24
ENDBRANCH  18  19
ENDBRANCH  17  18
ENDBRANCH   1  17
TORSDOF 7
ENDMDL
MODEL 4
REMARK VINA RESULT:      -8.3      1.995      2.442
REMARK  Name = 
REMARK  8 active torsions:
REMARK  status: ('A' for Active; 'I' for Inactive)
REMARK    1  A    between atoms: C_1  and  O_2
REMARK    2  A    between atoms: O_2  and  C_3
REMARK    3  A    between atoms: C_7  and  O_8
REMARK    4  A    between atoms: O_8  and  C_9
REMARK    5  A    between atoms: C_9  and  C_10
REMARK    6  A    between atoms: C_10  and  N_11
REMARK    7  A    between atoms: C_13  and  C_14
REMARK    8  A    between atoms: C_14  and  C_16
REMARK                            x       y       z     vdW  Elec       q    Type
REMARK                         _______ _______ _______ _____ _____    ______ ____
ROOT
ATOM      1  N   UNL     1       3.654   6.078  17.958  0.00  0.00    +0.000 N 
ATOM      2  C   UNL     1       4.549   5.972  19.070  0.00  0.00    +0.000 A 
ATOM      3  C   UNL     1       5.260   4.887  18.586  0.00  0.00    +0.000 A 
ATOM      4  C   UNL     1       4.268   3.940  18.579  0.00  0.00    +0.000 A 
ATOM      5  C   UNL     1       4.402   2.566  18.908  0.00  0.00    +0.000 A 
ATOM      6  C   UNL     1       3.385   1.659  18.650  0.00  0.00    +0.000 A 
ATOM      7  C   UNL     1       2.332   2.195  17.898  0.00  0.00    +0.000 A 
ATOM      8  C   UNL     1       2.228   3.628  17.467  0.00  0.00    +0.000 A 
ATOM      9  C   UNL     1       3.212   4.622  17.895  0.00  0.00    +0.000 A 
ENDROOT
BRANCH   3  10
ATOM     10  C   UNL     1       6.519   4.649  17.947  0.00  0.00    +0.000 C 
ATOM     11  O   UNL     1       7.581   4.413  18.570  0.00  0.00    +0.000 OA
BRANCH  10  12
ATOM     12  C   UNL     1       6.428   4.614  16.540  0.00  0.00    +0.000 A 
ATOM     13  C   UNL     1       5.777   3.685  15.711  0.00  0.00    +0.000 A 
ATOM     14  C   UNL     1       6.093   4.102  14.435  0.00  0.00    +0.000 A 
ATOM     15  C   UNL     1       6.931   5.198  14.490  0.00  0.00    +0.000 A 
ATOM     16  O   UNL     1       7.129   5.495  15.819  0.00  0.00    +0.000 OA
ENDBRANCH  10  12
ENDBRANCH   3  10
BRANCH   1  17
ATOM     17  C   UNL     1       3.467   7.585  17.581  0.00  0.00    +0.000 C 
BRANCH  17  18
ATOM     18  C   UNL     1       2.254   8.622  18.369  0.00  0.00    +0.000 C 
BRANCH  18  19
ATOM     19  O   UNL     1       0.984   9.018  17.631  0.00  0.00    +0.000 OA
BRANCH  19  24
ATOM     20  C   UNL     1      -2.173  11.127  18.219  0.00  0.00    +0.000 A 
ATOM     21  C   UNL     1      -1.860  11.761  19.421  0.00  0.00    +0.000 A 
ATOM     22  C   UNL     1      -0.622  11.513  19.993  0.00  0.00    +0.000 A 
ATOM     23  C   UNL     1       0.290  10.606  19.367  0.00  0.00    +0.000 A 
ATOM     24  C   UNL     1      -0.003   9.906  18.160  0.00  0.00    +0.000 A 
ATOM     25  C   UNL     1      -1.262  10.199  17.604  0.00  0.00    +0.000 A 
BRANCH  20  27
ATOM     26  C   UNL     1      -4.420  11.772  18.682  0.00  0.00    +0.000 C 
ATOM     27  O   UNL     1      -3.398  11.524  17.735  0.00  0.00    +0.000 OA
ENDBRANCH  20  27
ENDBRANCH  19  24
ENDBRANCH  18  19
ENDBRANCH  17  18
ENDBRANCH   1  17
TORSDOF 7
ENDMDL
MODEL 5
REMARK VINA RESULT:      -8.3      2.401      4.479
REMARK  Name = 
REMARK  8 active torsions:
REMARK  status: ('A' for Active; 'I' for Inactive)
REMARK    1  A    between atoms: C_1  and  O_2
REMARK    2  A    between atoms: O_2  and  C_3
REMARK    3  A    between atoms: C_7  and  O_8
REMARK    4  A    between atoms: O_8  and  C_9
REMARK    5  A    between atoms: C_9  and  C_10
REMARK    6  A    between atoms: C_10  and  N_11
REMARK    7  A    between atoms: C_13  and  C_14
REMARK    8  A    between atoms: C_14  and  C_16
REMARK                            x       y       z     vdW  Elec       q    Type
REMARK                         _______ _______ _______ _____ _____    ______ ____
ROOT
ATOM      1  N   UNL     1       3.143   6.036  18.953  0.00  0.00    +0.000 N 
ATOM      2  C   UNL     1       2.336   5.671  17.829  0.00  0.00    +0.000 A 
ATOM      3  C   UNL     1       2.824   4.382  17.707  0.00  0.00    +0.000 A 
ATOM      4  C   UNL     1       4.130   4.654  17.388  0.00  0.00    +0.000 A 
ATOM      5  C   UNL     1       4.947   3.943  16.471  0.00  0.00    +0.000 A 
ATOM      6  C   UNL     1       6.314   4.168  16.396  0.00  0.00    +0.000 A 
ATOM      7  C   UNL     1       6.801   5.006  17.407  0.00  0.00    +0.000 A 
ATOM      8  C   UNL     1       5.953   5.689  18.438  0.00  0.00    +0.000 A 
ATOM      9  C   UNL     1       4.493   5.595  18.404  0.00  0.00    +0.000 A 
ENDROOT
BRANCH   3  10
ATOM     10  C   UNL     1       2.404   3.056  18.048  0.00  0.00    +0.000 C 
ATOM     11  O   UNL     1       2.334   2.116  17.222  0.00  0.00    +0.000 OA
BRANCH  10  12
ATOM     12  C   UNL     1       2.162   2.888  19.426  0.00  0.00    +0.000 A 
ATOM     13  C   UNL     1       0.955   2.979  20.138  0.00  0.00    +0.000 A 
ATOM     14  C   UNL     1       1.331   2.807  21.453  0.00  0.00    +0.000 A 
ATOM     15  C   UNL     1       2.702   2.665  21.537  0.00  0.00    +0.000 A 
ATOM     16  O   UNL     1       3.198   2.723  20.255  0.00  0.00    +0.000 OA
ENDBRANCH  10  12
ENDBRANCH   3  10
BRANCH   1  17
ATOM     17  C   UNL     1       2.276   6.842  19.977  0.00  0.00    +0.000 C 
BRANCH  17  18
ATOM     18  C   UNL     1       1.774   8.524  19.687  0.00  0.00    +0.000 C 
BRANCH  18  19
ATOM     19  O   UNL     1       0.744   9.186  20.591  0.00  0.00    +0.000 OA
BRANCH  19  24
ATOM     20  C   UNL     1      -1.589  11.402  18.492  0.00  0.00    +0.000 A 
ATOM     21  C   UNL     1      -2.121  12.243  19.469  0.00  0.00    +0.000 A 
ATOM     22  C   UNL     1      -1.688  12.091  20.777  0.00  0.00    +0.000 A 
ATOM     23  C   UNL     1      -0.736  11.074  21.104  0.00  0.00    +0.000 A 
ATOM     24  C   UNL     1      -0.194  10.167  20.146  0.00  0.00    +0.000 A 
ATOM     25  C   UNL     1      -0.649  10.367  18.829  0.00  0.00    +0.000 A 
BRANCH  20  27
ATOM     26  C   UNL     1      -2.627  10.671  16.475  0.00  0.00    +0.000 C 
ATOM     27  O   UNL     1      -2.054  11.717  17.237  0.00  0.00    +0.000 OA
ENDBRANCH  20  27
ENDBRANCH  19  24
ENDBRANCH  18  19
ENDBRANCH  17  18
ENDBRANCH   1  17
TORSDOF 7
ENDMDL
MODEL 6
REMARK VINA RESULT:      -8.3      5.067      7.335
REMARK  Name = 
REMARK  8 active torsions:
REMARK  status: ('A' for Active; 'I' for Inactive)
REMARK    1  A    between atoms: C_1  and  O_2
REMARK    2  A    between atoms: O_2  and  C_3
REMARK    3  A    between atoms: C_7  and  O_8
REMARK    4  A    between atoms: O_8  and  C_9
REMARK    5  A    between atoms: C_9  and  C_10
REMARK    6  A    between atoms: C_10  and  N_11
REMARK    7  A    between atoms: C_13  and  C_14
REMARK    8  A    between atoms: C_14  and  C_16
REMARK                            x       y       z     vdW  Elec       q    Type
REMARK                         _______ _______ _______ _____ _____    ______ ____
ROOT
ATOM      1  N   UNL     1       7.051   6.513  17.225  0.00  0.00    +0.000 N 
ATOM      2  C   UNL     1       5.658   6.733  17.469  0.00  0.00    +0.000 A 
ATOM      3  C   UNL     1       5.284   5.401  17.407  0.00  0.00    +0.000 A 
ATOM      4  C   UNL     1       5.583   5.135  16.095  0.00  0.00    +0.000 A 
ATOM      5  C   UNL     1       4.844   4.311  15.206  0.00  0.00    +0.000 A 
ATOM      6  C   UNL     1       5.358   3.935  13.974  0.00  0.00    +0.000 A 
ATOM      7  C   UNL     1       6.701   4.292  13.794  0.00  0.00    +0.000 A 
ATOM      8  C   UNL     1       7.517   5.084  14.772  0.00  0.00    +0.000 A 
ATOM      9  C   UNL     1       6.919   5.635  15.988  0.00  0.00    +0.000 A 
ENDROOT
BRANCH   3  10
ATOM     10  C   UNL     1       4.964   4.350  18.325  0.00  0.00    +0.000 C 
ATOM     11  O   UNL     1       5.744   3.946  19.218  0.00  0.00    +0.000 OA
BRANCH  10  12
ATOM     12  C   UNL     1       3.644   3.874  18.183  0.00  0.00    +0.000 A 
ATOM     13  C   UNL     1       2.430   4.576  18.257  0.00  0.00    +0.000 A 
ATOM     14  C   UNL     1       1.471   3.594  18.128  0.00  0.00    +0.000 A 
ATOM     15  C   UNL     1       2.074   2.355  18.028  0.00  0.00    +0.000 A 
ATOM     16  O   UNL     1       3.434   2.558  18.070  0.00  0.00    +0.000 OA
ENDBRANCH  10  12
ENDBRANCH   3  10
BRANCH   1  17
ATOM     17  C   UNL     1       7.897   7.423  18.177  0.00  0.00    +0.000 C 
BRANCH  17  18
ATOM     18  C   UNL     1       8.114   9.165  17.888  0.00  0.00    +0.000 C 
BRANCH  18  19
ATOM     19  O   UNL     1       9.247   9.922  18.566  0.00  0.00    +0.000 OA
BRANCH  19  24
ATOM     20  C   UNL     1       9.285  13.709  17.919  0.00  0.00    +0.000 A 
ATOM     21  C   UNL     1      10.605  13.905  17.514  0.00  0.00    +0.000 A 
ATOM     22  C   UNL     1      11.440  12.801  17.431  0.00  0.00    +0.000 A 
ATOM     23  C   UNL     1      10.950  11.503  17.781  0.00  0.00    +0.000 A 
ATOM     24  C   UNL     1       9.621  11.261  18.237  0.00  0.00    +0.000 A 
ATOM     25  C   UNL     1       8.803  12.405  18.291  0.00  0.00    +0.000 A 
BRANCH  20  27
ATOM     26  C   UNL     1       8.732  15.781  18.959  0.00  0.00    +0.000 C 
ATOM     27  O   UNL     1       8.560  14.877  17.884  0.00  0.00    +0.000 OA
ENDBRANCH  20  27
ENDBRANCH  19  24
ENDBRANCH  18  19
ENDBRANCH  17  18
ENDBRANCH   1  17
TORSDOF 7
ENDMDL
MODEL 7
REMARK VINA RESULT:      -8.3      2.618      8.482
REMARK  Name = 
REMARK  8 active torsions:
REMARK  status: ('A' for Active; 'I' for Inactive)
REMARK    1  A    between atoms: C_1  and  O_2
REMARK    2  A    between atoms: O_2  and  C_3
REMARK    3  A    between atoms: C_7  and  O_8
REMARK    4  A    between atoms: O_8  and  C_9
REMARK    5  A    between atoms: C_9  and  C_10
REMARK    6  A    between atoms: C_10  and  N_11
REMARK    7  A    between atoms: C_13  and  C_14
REMARK    8  A    between atoms: C_14  and  C_16
REMARK                            x       y       z     vdW  Elec       q    Type
REMARK                         _______ _______ _______ _____ _____    ______ ____
ROOT
ATOM      1  N   UNL     1       3.850   6.328  17.908  0.00  0.00    +0.000 N 
ATOM      2  C   UNL     1       4.185   6.010  19.263  0.00  0.00    +0.000 A 
ATOM      3  C   UNL     1       2.882   5.898  19.716  0.00  0.00    +0.000 A 
ATOM      4  C   UNL     1       2.459   7.190  19.537  0.00  0.00    +0.000 A 
ATOM      5  C   UNL     1       1.596   7.928  20.389  0.00  0.00    +0.000 A 
ATOM      6  C   UNL     1       1.058   9.144  19.994  0.00  0.00    +0.000 A 
ATOM      7  C   UNL     1       1.305   9.458  18.652  0.00  0.00    +0.000 A 
ATOM      8  C   UNL     1       2.141   8.634  17.718  0.00  0.00    +0.000 A 
ATOM      9  C   UNL     1       2.856   7.447  18.186  0.00  0.00    +0.000 A 
ENDROOT
BRANCH   3  10
ATOM     10  C   UNL     1       1.957   4.849  20.025  0.00  0.00    +0.000 C 
ATOM     11  O   UNL     1       0.986   4.987  20.805  0.00  0.00    +0.000 OA
BRANCH  10  12
ATOM     12  C   UNL     1       2.193   3.668  19.291  0.00  0.00    +0.000 A 
ATOM     13  C   UNL     1       1.622   3.243  18.080  0.00  0.00    +0.000 A 
ATOM     14  C   UNL     1       2.160   1.988  17.884  0.00  0.00    +0.000 A 
ATOM     15  C   UNL     1       2.977   1.653  18.946  0.00  0.00    +0.000 A 
ATOM     16  O   UNL     1       2.977   2.721  19.814  0.00  0.00    +0.000 OA
ENDBRANCH  10  12
ENDBRANCH   3  10
BRANCH   1  17
ATOM     17  C   UNL     1       4.798   5.545  16.939  0.00  0.00    +0.000 C 
BRANCH  17  18
ATOM     18  C   UNL     1       6.448   6.095  16.568  0.00  0.00    +0.000 C 
BRANCH  18  19
ATOM     19  O   UNL     1       7.397   5.206  15.778  0.00  0.00    +0.000 OA
BRANCH  19  24
ATOM     20  C   UNL     1       6.193   3.579  12.512  0.00  0.00    +0.000 A 
ATOM     21  C   UNL     1       6.955   4.266  11.566  0.00  0.00    +0.000 A 
ATOM     22  C   UNL     1       7.860   5.215  12.013  0.00  0.00    +0.000 A 
ATOM     23  C   UNL     1       7.980   5.491  13.411  0.00  0.00    +0.000 A 
ATOM     24  C   UNL     1       7.196   4.842  14.410  0.00  0.00    +0.000 A 
ATOM     25  C   UNL     1       6.301   3.874  13.915  0.00  0.00    +0.000 A 
BRANCH  20  27
ATOM     26  C   UNL     1       4.205   3.060  11.305  0.00  0.00    +0.000 C 
ATOM     27  O   UNL     1       5.397   2.621  11.929  0.00  0.00    +0.000 OA
ENDBRANCH  20  27
ENDBRANCH  19  24
ENDBRANCH  18  19
ENDBRANCH  17  18
ENDBRANCH   1  17
TORSDOF 7
ENDMDL
MODEL 8
REMARK VINA RESULT:      -8.3      4.869      6.452
REMARK  Name = 
REMARK  8 active torsions:
REMARK  status: ('A' for Active; 'I' for Inactive)
REMARK    1  A    between atoms: C_1  and  O_2
REMARK    2  A    between atoms: O_2  and  C_3
REMARK    3  A    between atoms: C_7  and  O_8
REMARK    4  A    between atoms: O_8  and  C_9
REMARK    5  A    between atoms: C_9  and  C_10
REMARK    6  A    between atoms: C_10  and  N_11
REMARK    7  A    between atoms: C_13  and  C_14
REMARK    8  A    between atoms: C_14  and  C_16
REMARK                            x       y       z     vdW  Elec       q    Type
REMARK                         _______ _______ _______ _____ _____    ______ ____
ROOT
ATOM      1  N   UNL     1       6.825   5.869  18.268  0.00  0.00    +0.000 N 
ATOM      2  C   UNL     1       7.263   4.930  17.280  0.00  0.00    +0.000 A 
ATOM      3  C   UNL     1       6.123   4.993  16.499  0.00  0.00    +0.000 A 
ATOM      4  C   UNL     1       5.205   4.482  17.381  0.00  0.00    +0.000 A 
ATOM      5  C   UNL     1       4.116   3.625  17.074  0.00  0.00    +0.000 A 
ATOM      6  C   UNL     1       3.125   3.354  18.006  0.00  0.00    +0.000 A 
ATOM      7  C   UNL     1       3.219   4.131  19.167  0.00  0.00    +0.000 A 
ATOM      8  C   UNL     1       4.318   5.110  19.458  0.00  0.00    +0.000 A 
ATOM      9  C   UNL     1       5.459   5.260  18.555  0.00  0.00    +0.000 A 
ENDROOT
BRANCH   3  10
ATOM     10  C   UNL     1       5.711   5.617  15.277  0.00  0.00    +0.000 C 
ATOM     11  O   UNL     1       5.121   6.721  15.226  0.00  0.00    +0.000 OA
BRANCH  10  12
ATOM     12  C   UNL     1       6.118   4.909  14.128  0.00  0.00    +0.000 A 
ATOM     13  C   UNL     1       5.546   3.773  13.531  0.00  0.00    +0.000 A 
ATOM     14  C   UNL     1       6.407   3.474  12.496  0.00  0.00    +0.000 A 
ATOM     15  C   UNL     1       7.470   4.355  12.496  0.00  0.00    +0.000 A 
ATOM     16  O   UNL     1       7.267   5.241  13.530  0.00  0.00    +0.000 OA
ENDBRANCH  10  12
ENDBRANCH   3  10
BRANCH   1  17
ATOM     17  C   UNL     1       8.009   6.819  18.645  0.00  0.00    +0.000 C 
BRANCH  17  18
ATOM     18  C   UNL     1       8.066   8.522  18.133  0.00  0.00    +0.000 C 
BRANCH  18  19
ATOM     19  O   UNL     1       9.302   9.368  18.409  0.00  0.00    +0.000 OA
BRANCH  19  24
ATOM     20  C   UNL     1       9.070  13.193  18.684  0.00  0.00    +0.000 A 
ATOM     21  C   UNL     1       9.199  13.377  20.061  0.00  0.00    +0.000 A 
ATOM     22  C   UNL     1       9.388  12.261  20.860  0.00  0.00    +0.000 A 
ATOM     23  C   UNL     1       9.423  10.956  20.275  0.00  0.00    +0.000 A 
ATOM     24  C   UNL     1       9.257  10.716  18.879  0.00  0.00    +0.000 A 
ATOM     25  C   UNL     1       9.084  11.877  18.102  0.00  0.00    +0.000 A 
BRANCH  20  27
ATOM     26  C   UNL     1       8.507  15.508  18.754  0.00  0.00    +0.000 C 
ATOM     27  O   UNL     1       8.963  14.389  18.015  0.00  0.00    +0.000 OA
ENDBRANCH  20  27
ENDBRANCH  19  24
ENDBRANCH  18  19
ENDBRANCH  17  18
ENDBRANCH   1  17
TORSDOF 7
ENDMDL
MODEL 9
REMARK VINA RESULT:      -8.2      2.352      2.658
REMARK  Name = 
REMARK  8 active torsions:
REMARK  status: ('A' for Active; 'I' for Inactive)
REMARK    1  A    between atoms: C_1  and  O_2
REMARK    2  A    between atoms: O_2  and  C_3
REMARK    3  A    between atoms: C_7  and  O_8
REMARK    4  A    between atoms: O_8  and  C_9
REMARK    5  A    between atoms: C_9  and  C_10
REMARK    6  A    between atoms: C_10  and  N_11
REMARK    7  A    between atoms: C_13  and  C_14
REMARK    8  A    between atoms: C_14  and  C_16
REMARK                            x       y       z     vdW  Elec       q    Type
REMARK                         _______ _______ _______ _____ _____    ______ ____
ROOT
ATOM      1  N   UNL     1       2.500   6.444  18.474  0.00  0.00    +0.000 N 
ATOM      2  C   UNL     1       3.317   6.392  19.648  0.00  0.00    +0.000 A 
ATOM      3  C   UNL     1       4.104   5.332  19.235  0.00  0.00    +0.000 A 
ATOM      4  C   UNL     1       3.155   4.344  19.175  0.00  0.00    +0.000 A 
ATOM      5  C   UNL     1       3.323   2.981  19.536  0.00  0.00    +0.000 A 
ATOM      6  C   UNL     1       2.365   2.028  19.223  0.00  0.00    +0.000 A 
ATOM      7  C   UNL     1       1.348   2.508  18.389  0.00  0.00    +0.000 A 
ATOM      8  C   UNL     1       1.215   3.929  17.927  0.00  0.00    +0.000 A 
ATOM      9  C   UNL     1       2.124   4.970  18.406  0.00  0.00    +0.000 A 
ENDROOT
BRANCH   3  10
ATOM     10  C   UNL     1       5.415   5.138  18.691  0.00  0.00    +0.000 C 
ATOM     11  O   UNL     1       6.440   4.965  19.391  0.00  0.00    +0.000 OA
BRANCH  10  12
ATOM     12  C   UNL     1       5.425   5.068  17.283  0.00  0.00    +0.000 A 
ATOM     13  C   UNL     1       5.641   3.960  16.446  0.00  0.00    +0.000 A 
ATOM     14  C   UNL     1       5.620   4.495  15.176  0.00  0.00    +0.000 A 
ATOM     15  C   UNL     1       5.448   5.864  15.243  0.00  0.00    +0.000 A 
ATOM     16  O   UNL     1       5.332   6.197  16.573  0.00  0.00    +0.000 OA
ENDBRANCH  10  12
ENDBRANCH   3  10
BRANCH   1  17
ATOM     17  C   UNL     1       2.278   7.937  18.059  0.00  0.00    +0.000 C 
BRANCH  17  18
ATOM     18  C   UNL     1       1.339   9.074  19.054  0.00  0.00    +0.000 C 
BRANCH  18  19
ATOM     19  O   UNL     1       0.734  10.324  18.430  0.00  0.00    +0.000 OA
BRANCH  19  24
ATOM     20  C   UNL     1      -2.865  11.606  18.834  0.00  0.00    +0.000 A 
ATOM     21  C   UNL     1      -3.536  10.846  17.875  0.00  0.00    +0.000 A 
ATOM     22  C   UNL     1      -2.812   9.917  17.146  0.00  0.00    +0.000 A 
ATOM     23  C   UNL     1      -1.405   9.771  17.364  0.00  0.00    +0.000 A 
ATOM     24  C   UNL     1      -0.671  10.552  18.304  0.00  0.00    +0.000 A 
ATOM     25  C   UNL     1      -1.447  11.471  19.035  0.00  0.00    +0.000 A 
BRANCH  20  27
ATOM     26  C   UNL     1      -5.094  12.372  19.184  0.00  0.00    +0.000 C 
ATOM     27  O   UNL     1      -3.722  12.428  19.526  0.00  0.00    +0.000 OA
ENDBRANCH  20  27
ENDBRANCH  19  24
ENDBRANCH  18  19
ENDBRANCH  17  18
ENDBRANCH   1  17
TORSDOF 7
ENDMDL
