MODEL 1
REMARK VINA RESULT:      -8.9      0.000      0.000
REMARK  Name = 
REMARK  8 active torsions:
REMARK  status: ('A' for Active; 'I' for Inactive)
REMARK    1  A    between atoms: C_1  and  O_2
REMARK    2  A    between atoms: O_2  and  C_3
REMARK    3  A    between atoms: C_6  and  C_7
REMARK    4  A    between atoms: C_7  and  N_8
REMARK    5  A    between atoms: C_9  and  C_11
REMARK    6  A    between atoms: N_15  and  S_16
REMARK    7  A    between atoms: S_16  and  C_19
REMARK    8  A    between atoms: C_22  and  N_23
REMARK                            x       y       z     vdW  Elec       q    Type
REMARK                         _______ _______ _______ _____ _____    ______ ____
ROOT
ATOM      1  C   UNL     1       7.212   5.735  18.398  0.00  0.00    +0.000 C 
ATOM      2  C   UNL     1       7.702   4.599  17.495  0.00  0.00    +0.000 C 
ATOM      3  C   UNL     1       6.660   4.229  16.442  0.00  0.00    +0.000 C 
ATOM      4  C   UNL     1       5.300   3.916  17.063  0.00  0.00    +0.000 C 
ATOM      5  N   UNL     1       4.844   5.021  17.962  0.00  0.00    +0.000 NA
ATOM      6  C   UNL     1       5.865   5.348  19.010  0.00  0.00    +0.000 C 
ENDROOT
BRANCH   1   8
ATOM      7  N   UNL     1       8.039   8.023  18.158  0.00  0.00    +0.000 N 
ATOM      8  C   UNL     1       7.148   7.086  17.679  0.00  0.00    +0.000 C 
ATOM      9  O   UNL     1       6.390   7.318  16.747  0.00  0.00    +0.000 OA
ATOM     10  H   UNL     1       8.856   7.721  18.673  0.00  0.00    +0.000 HD
BRANCH   7  11
ATOM     11  C   UNL     1       8.041   9.380  17.657  0.00  0.00    +0.000 C 
BRANCH  11  15
ATOM     12  C   UNL     1      10.794  12.026  19.709  0.00  0.00    +0.000 A 
ATOM     13  C   UNL     1      10.693  12.032  18.318  0.00  0.00    +0.000 A 
ATOM     14  C   UNL     1       9.801  11.175  17.665  0.00  0.00    +0.000 A 
ATOM     15  C   UNL     1       9.015  10.271  18.392  0.00  0.00    +0.000 A 
ATOM     16  C   UNL     1       9.113  10.281  19.792  0.00  0.00    +0.000 A 
ATOM     17  C   UNL     1      10.005  11.141  20.443  0.00  0.00    +0.000 A 
BRANCH  12  19
ATOM     18  C   UNL     1      11.309  14.255  20.304  0.00  0.00    +0.000 C 
ATOM     19  O   UNL     1      11.714  12.892  20.234  0.00  0.00    +0.000 OA
ENDBRANCH  12  19
ENDBRANCH  11  15
ENDBRANCH   7  11
ENDBRANCH   1   8
BRANCH   5  20
ATOM     20  S   UNL     1       3.295   4.756  18.677  0.00  0.00    +0.000 S 
ATOM     21  O   UNL     1       2.476   4.106  17.677  0.00  0.00    +0.000 OA
ATOM     22  O   UNL     1       3.498   4.151  19.979  0.00  0.00    +0.000 OA
BRANCH  20  23
ATOM     23  C   UNL     1       2.647   6.381  18.962  0.00  0.00    +0.000 A 
ATOM     24  C   UNL     1       2.657   7.318  17.925  0.00  0.00    +0.000 A 
ATOM     25  C   UNL     1       2.138   8.597  18.139  0.00  0.00    +0.000 A 
ATOM     26  C   UNL     1       1.607   8.937  19.393  0.00  0.00    +0.000 A 
ATOM     27  C   UNL     1       1.572   7.977  20.419  0.00  0.00    +0.000 A 
ATOM     28  C   UNL     1       2.094   6.697  20.204  0.00  0.00    +0.000 A 
BRANCH  26  29
ATOM     29  N   UNL     1       1.130  10.249  19.639  0.00  0.00    +0.000 N 
ATOM     30  C   UNL     1       0.720  10.821  20.818  0.00  0.00    +0.000 A 
ATOM     31  N   UNL     1       0.288  12.039  20.585  0.00  0.00    +0.000 NA
ATOM     32  N   UNL     1       0.446  12.235  19.242  0.00  0.00    +0.000 NA
ATOM     33  N   UNL     1       0.964  11.164  18.657  0.00  0.00    +0.000 NA
ENDBRANCH  26  29
ENDBRANCH  20  23
ENDBRANCH   5  20
TORSDOF 7
ENDMDL
MODEL 2
REMARK VINA RESULT:      -8.6      0.672      1.129
REMARK  Name = 
REMARK  8 active torsions:
REMARK  status: ('A' for Active; 'I' for Inactive)
REMARK    1  A    between atoms: C_1  and  O_2
REMARK    2  A    between atoms: O_2  and  C_3
REMARK    3  A    between atoms: C_6  and  C_7
REMARK    4  A    between atoms: C_7  and  N_8
REMARK    5  A    between atoms: C_9  and  C_11
REMARK    6  A    between atoms: N_15  and  S_16
REMARK    7  A    between atoms: S_16  and  C_19
REMARK    8  A    between atoms: C_22  and  N_23
REMARK                            x       y       z     vdW  Elec       q    Type
REMARK                         _______ _______ _______ _____ _____    ______ ____
ROOT
ATOM      1  C   UNL     1       7.141   5.922  18.529  0.00  0.00    +0.000 C 
ATOM      2  C   UNL     1       7.707   4.752  17.718  0.00  0.00    +0.000 C 
ATOM      3  C   UNL     1       6.729   4.290  16.640  0.00  0.00    +0.000 C 
ATOM      4  C   UNL     1       5.349   3.970  17.212  0.00  0.00    +0.000 C 
ATOM      5  N   UNL     1       4.819   5.110  18.022  0.00  0.00    +0.000 NA
ATOM      6  C   UNL     1       5.777   5.528  19.097  0.00  0.00    +0.000 C 
ENDROOT
BRANCH   1   8
ATOM      7  N   UNL     1       8.063   8.134  18.047  0.00  0.00    +0.000 N 
ATOM      8  C   UNL     1       7.074   7.227  17.730  0.00  0.00    +0.000 C 
ATOM      9  O   UNL     1       6.233   7.447  16.869  0.00  0.00    +0.000 OA
ATOM     10  H   UNL     1       8.913   7.813  18.492  0.00  0.00    +0.000 HD
BRANCH   7  11
ATOM     11  C   UNL     1       8.087   9.454  17.457  0.00  0.00    +0.000 C 
BRANCH  11  15
ATOM     12  C   UNL     1      10.125  12.310  20.001  0.00  0.00    +0.000 A 
ATOM     13  C   UNL     1       9.920  10.995  20.418  0.00  0.00    +0.000 A 
ATOM     14  C   UNL     1       9.262  10.080  19.588  0.00  0.00    +0.000 A 
ATOM     15  C   UNL     1       8.767  10.474  18.338  0.00  0.00    +0.000 A 
ATOM     16  C   UNL     1       8.990  11.796  17.922  0.00  0.00    +0.000 A 
ATOM     17  C   UNL     1       9.650  12.709  18.753  0.00  0.00    +0.000 A 
BRANCH  12  19
ATOM     18  C   UNL     1      10.106  14.347  21.200  0.00  0.00    +0.000 C 
ATOM     19  O   UNL     1      10.761  13.118  20.904  0.00  0.00    +0.000 OA
ENDBRANCH  12  19
ENDBRANCH  11  15
ENDBRANCH   7  11
ENDBRANCH   1   8
BRANCH   5  20
ATOM     20  S   UNL     1       3.244   4.838  18.677  0.00  0.00    +0.000 S 
ATOM     21  O   UNL     1       2.459   4.211  17.635  0.00  0.00    +0.000 OA
ATOM     22  O   UNL     1       3.398   4.207  19.972  0.00  0.00    +0.000 OA
BRANCH  20  23
ATOM     23  C   UNL     1       2.592   6.460  18.970  0.00  0.00    +0.000 A 
ATOM     24  C   UNL     1       2.572   7.392  17.930  0.00  0.00    +0.000 A 
ATOM     25  C   UNL     1       2.050   8.669  18.151  0.00  0.00    +0.000 A 
ATOM     26  C   UNL     1       1.546   9.011  19.415  0.00  0.00    +0.000 A 
ATOM     27  C   UNL     1       1.542   8.055  20.446  0.00  0.00    +0.000 A 
ATOM     28  C   UNL     1       2.067   6.778  20.224  0.00  0.00    +0.000 A 
BRANCH  26  29
ATOM     29  N   UNL     1       1.066  10.321  19.667  0.00  0.00    +0.000 N 
ATOM     30  C   UNL     1       0.694  11.299  18.779  0.00  0.00    +0.000 A 
ATOM     31  N   UNL     1       0.374  12.388  19.438  0.00  0.00    +0.000 NA
ATOM     32  N   UNL     1       0.537  12.080  20.760  0.00  0.00    +0.000 NA
ATOM     33  N   UNL     1       0.944  10.829  20.915  0.00  0.00    +0.000 NA
ENDBRANCH  26  29
ENDBRANCH  20  23
ENDBRANCH   5  20
TORSDOF 7
ENDMDL
MODEL 3
REMARK VINA RESULT:      -7.8      1.009      1.615
REMARK  Name = 
REMARK  8 active torsions:
REMARK  status: ('A' for Active; 'I' for Inactive)
REMARK    1  A    between atoms: C_1  and  O_2
REMARK    2  A    between atoms: O_2  and  C_3
REMARK    3  A    between atoms: C_6  and  C_7
REMARK    4  A    between atoms: C_7  and  N_8
REMARK    5  A    between atoms: C_9  and  C_11
REMARK    6  A    between atoms: N_15  and  S_16
REMARK    7  A    between atoms: S_16  and  C_19
REMARK    8  A    between atoms: C_22  and  N_23
REMARK                            x       y       z     vdW  Elec       q    Type
REMARK                         _______ _______ _______ _____ _____    ______ ____
ROOT
ATOM      1  C   UNL     1       7.268   5.471  17.276  0.00  0.00    +0.000 C 
ATOM      2  C   UNL     1       7.310   4.574  16.034  0.00  0.00    +0.000 C 
ATOM      3  C   UNL     1       5.913   4.340  15.464  0.00  0.00    +0.000 C 
ATOM      4  C   UNL     1       4.942   3.809  16.517  0.00  0.00    +0.000 C 
ATOM      5  N   UNL     1       4.929   4.678  17.733  0.00  0.00    +0.000 NA
ATOM      6  C   UNL     1       6.304   4.870  18.300  0.00  0.00    +0.000 C 
ENDROOT
BRANCH   1   8
ATOM      7  N   UNL     1       7.698   7.852  17.620  0.00  0.00    +0.000 N 
ATOM      8  C   UNL     1       6.924   6.928  16.951  0.00  0.00    +0.000 C 
ATOM      9  O   UNL     1       6.055   7.253  16.155  0.00  0.00    +0.000 OA
ATOM     10  H   UNL     1       8.597   7.577  17.993  0.00  0.00    +0.000 HD
BRANCH   7  11
ATOM     11  C   UNL     1       7.439   9.271  17.502  0.00  0.00    +0.000 C 
BRANCH  11  15
ATOM     12  C   UNL     1      10.501  11.594  19.507  0.00  0.00    +0.000 A 
ATOM     13  C   UNL     1       9.994  10.428  20.079  0.00  0.00    +0.000 A 
ATOM     14  C   UNL     1       9.006   9.685  19.424  0.00  0.00    +0.000 A 
ATOM     15  C   UNL     1       8.484  10.113  18.196  0.00  0.00    +0.000 A 
ATOM     16  C   UNL     1       9.010  11.280  17.621  0.00  0.00    +0.000 A 
ATOM     17  C   UNL     1      10.000  12.021  18.278  0.00  0.00    +0.000 A 
BRANCH  12  19
ATOM     18  C   UNL     1      12.330  13.091  19.516  0.00  0.00    +0.000 C 
ATOM     19  O   UNL     1      11.447  12.247  20.248  0.00  0.00    +0.000 OA
ENDBRANCH  12  19
ENDBRANCH  11  15
ENDBRANCH   7  11
ENDBRANCH   1   8
BRANCH   5  20
ATOM     20  S   UNL     1       3.828   4.161  18.960  0.00  0.00    +0.000 S 
ATOM     21  O   UNL     1       2.915   3.227  18.337  0.00  0.00    +0.000 OA
ATOM     22  O   UNL     1       4.600   3.780  20.126  0.00  0.00    +0.000 OA
BRANCH  20  23
ATOM     23  C   UNL     1       2.924   5.621  19.397  0.00  0.00    +0.000 A 
ATOM     24  C   UNL     1       2.103   5.610  20.528  0.00  0.00    +0.000 A 
ATOM     25  C   UNL     1       1.397   6.760  20.886  0.00  0.00    +0.000 A 
ATOM     26  C   UNL     1       1.513   7.924  20.110  0.00  0.00    +0.000 A 
ATOM     27  C   UNL     1       2.366   7.934  18.993  0.00  0.00    +0.000 A 
ATOM     28  C   UNL     1       3.072   6.781  18.635  0.00  0.00    +0.000 A 
BRANCH  26  29
ATOM     29  N   UNL     1       0.757   9.080  20.430  0.00  0.00    +0.000 N 
ATOM     30  C   UNL     1       0.227   9.469  21.634  0.00  0.00    +0.000 A 
ATOM     31  N   UNL     1      -0.462  10.575  21.472  0.00  0.00    +0.000 NA
ATOM     32  N   UNL     1      -0.346  10.889  20.147  0.00  0.00    +0.000 NA
ATOM     33  N   UNL     1       0.398   9.999  19.505  0.00  0.00    +0.000 NA
ENDBRANCH  26  29
ENDBRANCH  20  23
ENDBRANCH   5  20
TORSDOF 7
ENDMDL
MODEL 4
REMARK VINA RESULT:      -7.6      5.171     10.025
REMARK  Name = 
REMARK  8 active torsions:
REMARK  status: ('A' for Active; 'I' for Inactive)
REMARK    1  A    between atoms: C_1  and  O_2
REMARK    2  A    between atoms: O_2  and  C_3
REMARK    3  A    between atoms: C_6  and  C_7
REMARK    4  A    between atoms: C_7  and  N_8
REMARK    5  A    between atoms: C_9  and  C_11
REMARK    6  A    between atoms: N_15  and  S_16
REMARK    7  A    between atoms: S_16  and  C_19
REMARK    8  A    between atoms: C_22  and  N_23
REMARK                            x       y       z     vdW  Elec       q    Type
REMARK                         _______ _______ _______ _____ _____    ______ ____
ROOT
ATOM      1  C   UNL     1       0.503  12.705  19.062  0.00  0.00    +0.000 C 
ATOM      2  C   UNL     1      -0.471  12.304  17.950  0.00  0.00    +0.000 C 
ATOM      3  C   UNL     1      -1.602  11.427  18.483  0.00  0.00    +0.000 C 
ATOM      4  C   UNL     1      -1.077  10.211  19.246  0.00  0.00    +0.000 C 
ATOM      5  N   UNL     1      -0.108  10.614  20.311  0.00  0.00    +0.000 NA
ATOM      6  C   UNL     1       1.013  11.446  19.765  0.00  0.00    +0.000 C 
ENDROOT
BRANCH   1   8
ATOM      7  N   UNL     1       0.286  13.509  21.360  0.00  0.00    +0.000 N 
ATOM      8  C   UNL     1      -0.097  13.709  20.051  0.00  0.00    +0.000 C 
ATOM      9  O   UNL     1      -0.836  14.624  19.716  0.00  0.00    +0.000 OA
ATOM     10  H   UNL     1       1.129  12.987  21.561  0.00  0.00    +0.000 HD
BRANCH   7  11
ATOM     11  C   UNL     1      -0.267  14.307  22.432  0.00  0.00    +0.000 C 
BRANCH  11  15
ATOM     12  C   UNL     1      -3.856  12.586  24.148  0.00  0.00    +0.000 A 
ATOM     13  C   UNL     1      -3.630  13.961  24.186  0.00  0.00    +0.000 A 
ATOM     14  C   UNL     1      -2.468  14.507  23.628  0.00  0.00    +0.000 A 
ATOM     15  C   UNL     1      -1.495  13.682  23.050  0.00  0.00    +0.000 A 
ATOM     16  C   UNL     1      -1.738  12.300  23.005  0.00  0.00    +0.000 A 
ATOM     17  C   UNL     1      -2.902  11.756  23.562  0.00  0.00    +0.000 A 
BRANCH  12  19
ATOM     18  C   UNL     1      -6.218  12.680  24.181  0.00  0.00    +0.000 C 
ATOM     19  O   UNL     1      -5.015  12.166  24.743  0.00  0.00    +0.000 OA
ENDBRANCH  12  19
ENDBRANCH  11  15
ENDBRANCH   7  11
ENDBRANCH   1   8
BRANCH   5  20
ATOM     20  S   UNL     1       0.506   9.295  21.242  0.00  0.00    +0.000 S 
ATOM     21  O   UNL     1       1.374   9.862  22.251  0.00  0.00    +0.000 OA
ATOM     22  O   UNL     1      -0.611   8.448  21.613  0.00  0.00    +0.000 OA
BRANCH  20  23
ATOM     23  C   UNL     1       1.499   8.365  20.106  0.00  0.00    +0.000 A 
ATOM     24  C   UNL     1       1.947   7.092  20.466  0.00  0.00    +0.000 A 
ATOM     25  C   UNL     1       2.721   6.349  19.571  0.00  0.00    +0.000 A 
ATOM     26  C   UNL     1       3.045   6.882  18.314  0.00  0.00    +0.000 A 
ATOM     27  C   UNL     1       2.562   8.151  17.950  0.00  0.00    +0.000 A 
ATOM     28  C   UNL     1       1.789   8.895  18.847  0.00  0.00    +0.000 A 
BRANCH  26  29
ATOM     29  N   UNL     1       3.877   6.162  17.420  0.00  0.00    +0.000 N 
ATOM     30  C   UNL     1       4.796   6.631  16.515  0.00  0.00    +0.000 A 
ATOM     31  N   UNL     1       5.297   5.623  15.839  0.00  0.00    +0.000 NA
ATOM     32  N   UNL     1       4.690   4.505  16.341  0.00  0.00    +0.000 NA
ATOM     33  N   UNL     1       3.836   4.815  17.306  0.00  0.00    +0.000 NA
ENDBRANCH  26  29
ENDBRANCH  20  23
ENDBRANCH   5  20
TORSDOF 7
ENDMDL
MODEL 5
REMARK VINA RESULT:      -7.5      6.710     10.374
REMARK  Name = 
REMARK  8 active torsions:
REMARK  status: ('A' for Active; 'I' for Inactive)
REMARK    1  A    between atoms: C_1  and  O_2
REMARK    2  A    between atoms: O_2  and  C_3
REMARK    3  A    between atoms: C_6  and  C_7
REMARK    4  A    between atoms: C_7  and  N_8
REMARK    5  A    between atoms: C_9  and  C_11
REMARK    6  A    between atoms: N_15  and  S_16
REMARK    7  A    between atoms: S_16  and  C_19
REMARK    8  A    between atoms: C_22  and  N_23
REMARK                            x       y       z     vdW  Elec       q    Type
REMARK                         _______ _______ _______ _____ _____    ______ ____
ROOT
ATOM      1  C   UNL     1       2.467  13.929  20.851  0.00  0.00    +0.000 C 
ATOM      2  C   UNL     1       3.467  14.348  19.769  0.00  0.00    +0.000 C 
ATOM      3  C   UNL     1       2.904  14.126  18.367  0.00  0.00    +0.000 C 
ATOM      4  C   UNL     1       2.413  12.694  18.163  0.00  0.00    +0.000 C 
ATOM      5  N   UNL     1       1.457  12.288  19.239  0.00  0.00    +0.000 NA
ATOM      6  C   UNL     1       2.039  12.481  20.608  0.00  0.00    +0.000 C 
ENDROOT
BRANCH   1   8
ATOM      7  N   UNL     1       0.138  14.293  21.496  0.00  0.00    +0.000 N 
ATOM      8  C   UNL     1       1.264  14.872  20.952  0.00  0.00    +0.000 C 
ATOM      9  O   UNL     1       1.296  16.044  20.603  0.00  0.00    +0.000 OA
ATOM     10  H   UNL     1       0.228  13.464  22.070  0.00  0.00    +0.000 HD
BRANCH   7  11
ATOM     11  C   UNL     1      -1.113  15.015  21.574  0.00  0.00    +0.000 C 
BRANCH  11  15
ATOM     12  C   UNL     1      -4.274  12.773  23.517  0.00  0.00    +0.000 A 
ATOM     13  C   UNL     1      -4.554  13.935  22.801  0.00  0.00    +0.000 A 
ATOM     14  C   UNL     1      -3.527  14.651  22.176  0.00  0.00    +0.000 A 
ATOM     15  C   UNL     1      -2.193  14.234  22.285  0.00  0.00    +0.000 A 
ATOM     16  C   UNL     1      -1.922  13.056  22.997  0.00  0.00    +0.000 A 
ATOM     17  C   UNL     1      -2.952  12.340  23.620  0.00  0.00    +0.000 A 
BRANCH  12  19
ATOM     18  C   UNL     1      -6.600  12.837  23.932  0.00  0.00    +0.000 C 
ATOM     19  O   UNL     1      -5.353  12.170  24.102  0.00  0.00    +0.000 OA
ENDBRANCH  12  19
ENDBRANCH  11  15
ENDBRANCH   7  11
ENDBRANCH   1   8
BRANCH   5  20
ATOM     20  S   UNL     1       0.830  10.689  19.059  0.00  0.00    +0.000 S 
ATOM     21  O   UNL     1       1.432  10.133  17.867  0.00  0.00    +0.000 OA
ATOM     22  O   UNL     1       0.949  10.013  20.336  0.00  0.00    +0.000 OA
BRANCH  20  23
ATOM     23  C   UNL     1      -0.902  10.916  18.759  0.00  0.00    +0.000 A 
ATOM     24  C   UNL     1      -1.603  11.889  19.476  0.00  0.00    +0.000 A 
ATOM     25  C   UNL     1      -2.966  12.081  19.237  0.00  0.00    +0.000 A 
ATOM     26  C   UNL     1      -3.626  11.299  18.277  0.00  0.00    +0.000 A 
ATOM     27  C   UNL     1      -2.904  10.346  17.538  0.00  0.00    +0.000 A 
ATOM     28  C   UNL     1      -1.540  10.153  17.779  0.00  0.00    +0.000 A 
BRANCH  26  29
ATOM     29  N   UNL     1      -5.020  11.446  18.065  0.00  0.00    +0.000 N 
ATOM     30  C   UNL     1      -5.697  12.396  17.341  0.00  0.00    +0.000 A 
ATOM     31  N   UNL     1      -6.989  12.201  17.465  0.00  0.00    +0.000 NA
ATOM     32  N   UNL     1      -7.121  11.102  18.268  0.00  0.00    +0.000 NA
ATOM     33  N   UNL     1      -5.937  10.628  18.630  0.00  0.00    +0.000 NA
ENDBRANCH  26  29
ENDBRANCH  20  23
ENDBRANCH   5  20
TORSDOF 7
ENDMDL
MODEL 6
REMARK VINA RESULT:      -7.4      4.407      8.458
REMARK  Name = 
REMARK  8 active torsions:
REMARK  status: ('A' for Active; 'I' for Inactive)
REMARK    1  A    between atoms: C_1  and  O_2
REMARK    2  A    between atoms: O_2  and  C_3
REMARK    3  A    between atoms: C_6  and  C_7
REMARK    4  A    between atoms: C_7  and  N_8
REMARK    5  A    between atoms: C_9  and  C_11
REMARK    6  A    between atoms: N_15  and  S_16
REMARK    7  A    between atoms: S_16  and  C_19
REMARK    8  A    between atoms: C_22  and  N_23
REMARK                            x       y       z     vdW  Elec       q    Type
REMARK                         _______ _______ _______ _____ _____    ______ ____
ROOT
ATOM      1  C   UNL     1       9.453  11.360  17.885  0.00  0.00    +0.000 C 
ATOM      2  C   UNL     1      10.963  11.470  17.650  0.00  0.00    +0.000 C 
ATOM      3  C   UNL     1      11.709  11.801  18.941  0.00  0.00    +0.000 C 
ATOM      4  C   UNL     1      11.148  13.045  19.628  0.00  0.00    +0.000 C 
ATOM      5  N   UNL     1       9.670  12.936  19.829  0.00  0.00    +0.000 NA
ATOM      6  C   UNL     1       8.950  12.644  18.547  0.00  0.00    +0.000 C 
ENDROOT
BRANCH   1   8
ATOM      7  N   UNL     1       8.551   9.088  17.915  0.00  0.00    +0.000 N 
ATOM      8  C   UNL     1       9.061  10.113  18.684  0.00  0.00    +0.000 C 
ATOM      9  O   UNL     1       9.202  10.017  19.895  0.00  0.00    +0.000 OA
ATOM     10  H   UNL     1       8.753   9.057  16.924  0.00  0.00    +0.000 HD
BRANCH   7  11
ATOM     11  C   UNL     1       8.042   7.878  18.522  0.00  0.00    +0.000 C 
BRANCH  11  15
ATOM     12  C   UNL     1       5.766   5.363  15.823  0.00  0.00    +0.000 A 
ATOM     13  C   UNL     1       6.968   4.922  16.374  0.00  0.00    +0.000 A 
ATOM     14  C   UNL     1       7.695   5.741  17.245  0.00  0.00    +0.000 A 
ATOM     15  C   UNL     1       7.247   7.032  17.555  0.00  0.00    +0.000 A 
ATOM     16  C   UNL     1       6.029   7.462  17.006  0.00  0.00    +0.000 A 
ATOM     17  C   UNL     1       5.303   6.640  16.136  0.00  0.00    +0.000 A 
BRANCH  12  19
ATOM     18  C   UNL     1       6.012   3.832  14.038  0.00  0.00    +0.000 C 
ATOM     19  O   UNL     1       5.155   4.485  14.969  0.00  0.00    +0.000 OA
ENDBRANCH  12  19
ENDBRANCH  11  15
ENDBRANCH   7  11
ENDBRANCH   1   8
BRANCH   5  20
ATOM     20  S   UNL     1       8.965  14.292  20.633  0.00  0.00    +0.000 S 
ATOM     21  O   UNL     1      10.052  15.035  21.234  0.00  0.00    +0.000 OA
ATOM     22  O   UNL     1       8.047  14.932  19.713  0.00  0.00    +0.000 OA
BRANCH  20  23
ATOM     23  C   UNL     1       7.984  13.586  21.929  0.00  0.00    +0.000 A 
ATOM     24  C   UNL     1       6.850  14.265  22.382  0.00  0.00    +0.000 A 
ATOM     25  C   UNL     1       6.065  13.710  23.396  0.00  0.00    +0.000 A 
ATOM     26  C   UNL     1       6.418  12.472  23.956  0.00  0.00    +0.000 A 
ATOM     27  C   UNL     1       7.542  11.782  23.471  0.00  0.00    +0.000 A 
ATOM     28  C   UNL     1       8.328  12.340  22.457  0.00  0.00    +0.000 A 
BRANCH  26  29
ATOM     29  N   UNL     1       5.662  11.925  25.024  0.00  0.00    +0.000 N 
ATOM     30  C   UNL     1       5.445  12.425  26.283  0.00  0.00    +0.000 A 
ATOM     31  N   UNL     1       4.741  11.563  26.980  0.00  0.00    +0.000 NA
ATOM     32  N   UNL     1       4.503  10.514  26.136  0.00  0.00    +0.000 NA
ATOM     33  N   UNL     1       5.045  10.724  24.944  0.00  0.00    +0.000 NA
ENDBRANCH  26  29
ENDBRANCH  20  23
ENDBRANCH   5  20
TORSDOF 7
ENDMDL
MODEL 7
REMARK VINA RESULT:      -7.4      5.478     10.213
REMARK  Name = 
REMARK  8 active torsions:
REMARK  status: ('A' for Active; 'I' for Inactive)
REMARK    1  A    between atoms: C_1  and  O_2
REMARK    2  A    between atoms: O_2  and  C_3
REMARK    3  A    between atoms: C_6  and  C_7
REMARK    4  A    between atoms: C_7  and  N_8
REMARK    5  A    between atoms: C_9  and  C_11
REMARK    6  A    between atoms: N_15  and  S_16
REMARK    7  A    between atoms: S_16  and  C_19
REMARK    8  A    between atoms: C_22  and  N_23
REMARK                            x       y       z     vdW  Elec       q    Type
REMARK                         _______ _______ _______ _____ _____    ______ ____
ROOT
ATOM      1  C   UNL     1       2.515  13.534  20.896  0.00  0.00    +0.000 C 
ATOM      2  C   UNL     1       3.030  14.161  19.597  0.00  0.00    +0.000 C 
ATOM      3  C   UNL     1       1.889  14.472  18.632  0.00  0.00    +0.000 C 
ATOM      4  C   UNL     1       1.011  13.251  18.364  0.00  0.00    +0.000 C 
ATOM      5  N   UNL     1       0.534  12.634  19.641  0.00  0.00    +0.000 NA
ATOM      6  C   UNL     1       1.670  12.303  20.562  0.00  0.00    +0.000 C 
ENDROOT
BRANCH   1   8
ATOM      7  N   UNL     1       0.426  14.210  21.970  0.00  0.00    +0.000 N 
ATOM      8  C   UNL     1       1.754  14.528  21.780  0.00  0.00    +0.000 C 
ATOM      9  O   UNL     1       2.274  15.509  22.292  0.00  0.00    +0.000 OA
ATOM     10  H   UNL     1       0.113  13.258  21.831  0.00  0.00    +0.000 HD
BRANCH   7  11
ATOM     11  C   UNL     1      -0.459  15.094  22.697  0.00  0.00    +0.000 C 
BRANCH  11  15
ATOM     12  C   UNL     1      -3.952  13.012  24.197  0.00  0.00    +0.000 A 
ATOM     13  C   UNL     1      -2.898  12.315  23.609  0.00  0.00    +0.000 A 
ATOM     14  C   UNL     1      -1.774  12.996  23.129  0.00  0.00    +0.000 A 
ATOM     15  C   UNL     1      -1.699  14.394  23.199  0.00  0.00    +0.000 A 
ATOM     16  C   UNL     1      -2.759  15.086  23.804  0.00  0.00    +0.000 A 
ATOM     17  C   UNL     1      -3.882  14.402  24.286  0.00  0.00    +0.000 A 
BRANCH  12  19
ATOM     18  C   UNL     1      -6.282  12.624  24.107  0.00  0.00    +0.000 C 
ATOM     19  O   UNL     1      -5.006  12.243  24.610  0.00  0.00    +0.000 OA
ENDBRANCH  12  19
ENDBRANCH  11  15
ENDBRANCH   7  11
ENDBRANCH   1   8
BRANCH   5  20
ATOM     20  S   UNL     1      -0.495  11.264  19.421  0.00  0.00    +0.000 S 
ATOM     21  O   UNL     1      -1.214  11.077  20.663  0.00  0.00    +0.000 OA
ATOM     22  O   UNL     1      -1.204  11.431  18.168  0.00  0.00    +0.000 OA
BRANCH  20  23
ATOM     23  C   UNL     1       0.614   9.898  19.205  0.00  0.00    +0.000 A 
ATOM     24  C   UNL     1       0.908   9.071  20.293  0.00  0.00    +0.000 A 
ATOM     25  C   UNL     1       1.772   7.986  20.127  0.00  0.00    +0.000 A 
ATOM     26  C   UNL     1       2.342   7.729  18.871  0.00  0.00    +0.000 A 
ATOM     27  C   UNL     1       2.014   8.548  17.776  0.00  0.00    +0.000 A 
ATOM     28  C   UNL     1       1.150   9.635  17.943  0.00  0.00    +0.000 A 
BRANCH  26  29
ATOM     29  N   UNL     1       3.264   6.665  18.704  0.00  0.00    +0.000 N 
ATOM     30  C   UNL     1       3.547   5.617  19.543  0.00  0.00    +0.000 A 
ATOM     31  N   UNL     1       4.518   4.898  19.031  0.00  0.00    +0.000 NA
ATOM     32  N   UNL     1       4.837   5.499  17.846  0.00  0.00    +0.000 NA
ATOM     33  N   UNL     1       4.079   6.565  17.629  0.00  0.00    +0.000 NA
ENDBRANCH  26  29
ENDBRANCH  20  23
ENDBRANCH   5  20
TORSDOF 7
ENDMDL
MODEL 8
REMARK VINA RESULT:      -7.4      5.519      9.626
REMARK  Name = 
REMARK  8 active torsions:
REMARK  status: ('A' for Active; 'I' for Inactive)
REMARK    1  A    between atoms: C_1  and  O_2
REMARK    2  A    between atoms: O_2  and  C_3
REMARK    3  A    between atoms: C_6  and  C_7
REMARK    4  A    between atoms: C_7  and  N_8
REMARK    5  A    between atoms: C_9  and  C_11
REMARK    6  A    between atoms: N_15  and  S_16
REMARK    7  A    between atoms: S_16  and  C_19
REMARK    8  A    between atoms: C_22  and  N_23
REMARK                            x       y       z     vdW  Elec       q    Type
REMARK                         _______ _______ _______ _____ _____    ______ ____
ROOT
ATOM      1  C   UNL     1       0.298  11.696  19.563  0.00  0.00    +0.000 C 
ATOM      2  C   UNL     1       1.436  12.207  18.675  0.00  0.00    +0.000 C 
ATOM      3  C   UNL     1       2.401  13.098  19.455  0.00  0.00    +0.000 C 
ATOM      4  C   UNL     1       1.681  14.240  20.170  0.00  0.00    +0.000 C 
ATOM      5  N   UNL     1       0.556  13.730  21.014  0.00  0.00    +0.000 NA
ATOM      6  C   UNL     1      -0.399  12.886  20.225  0.00  0.00    +0.000 C 
ENDROOT
BRANCH   1   8
ATOM      7  N   UNL     1       1.043   9.420  20.055  0.00  0.00    +0.000 N 
ATOM      8  C   UNL     1       0.761  10.659  20.592  0.00  0.00    +0.000 C 
ATOM      9  O   UNL     1       0.891  10.903  21.783  0.00  0.00    +0.000 OA
ATOM     10  H   UNL     1       1.251   9.337  19.069  0.00  0.00    +0.000 HD
BRANCH   7  11
ATOM     11  C   UNL     1       1.398   8.301  20.900  0.00  0.00    +0.000 C 
BRANCH  11  15
ATOM     12  C   UNL     1       2.821   4.900  18.620  0.00  0.00    +0.000 A 
ATOM     13  C   UNL     1       2.933   6.197  18.121  0.00  0.00    +0.000 A 
ATOM     14  C   UNL     1       2.472   7.289  18.866  0.00  0.00    +0.000 A 
ATOM     15  C   UNL     1       1.859   7.099  20.111  0.00  0.00    +0.000 A 
ATOM     16  C   UNL     1       1.762   5.791  20.611  0.00  0.00    +0.000 A 
ATOM     17  C   UNL     1       2.226   4.701  19.865  0.00  0.00    +0.000 A 
BRANCH  12  19
ATOM     18  C   UNL     1       4.410   4.259  16.991  0.00  0.00    +0.000 C 
ATOM     19  O   UNL     1       3.287   3.913  17.796  0.00  0.00    +0.000 OA
ENDBRANCH  12  19
ENDBRANCH  11  15
ENDBRANCH   7  11
ENDBRANCH   1   8
BRANCH   5  20
ATOM     20  S   UNL     1      -0.288  14.961  21.883  0.00  0.00    +0.000 S 
ATOM     21  O   UNL     1       0.388  15.116  23.153  0.00  0.00    +0.000 OA
ATOM     22  O   UNL     1      -0.472  16.092  20.996  0.00  0.00    +0.000 OA
BRANCH  20  23
ATOM     23  C   UNL     1      -1.895  14.277  22.184  0.00  0.00    +0.000 A 
ATOM     24  C   UNL     1      -2.046  13.264  23.135  0.00  0.00    +0.000 A 
ATOM     25  C   UNL     1      -3.311  12.729  23.385  0.00  0.00    +0.000 A 
ATOM     26  C   UNL     1      -4.428  13.209  22.682  0.00  0.00    +0.000 A 
ATOM     27  C   UNL     1      -4.270  14.250  21.751  0.00  0.00    +0.000 A 
ATOM     28  C   UNL     1      -3.002  14.784  21.500  0.00  0.00    +0.000 A 
BRANCH  26  29
ATOM     29  N   UNL     1      -5.707  12.634  22.886  0.00  0.00    +0.000 N 
ATOM     30  C   UNL     1      -6.460  12.566  24.032  0.00  0.00    +0.000 A 
ATOM     31  N   UNL     1      -7.557  11.885  23.795  0.00  0.00    +0.000 NA
ATOM     32  N   UNL     1      -7.494  11.534  22.475  0.00  0.00    +0.000 NA
ATOM     33  N   UNL     1      -6.385  11.990  21.909  0.00  0.00    +0.000 NA
ENDBRANCH  26  29
ENDBRANCH  20  23
ENDBRANCH   5  20
TORSDOF 7
ENDMDL
MODEL 9
REMARK VINA RESULT:      -7.4      3.124      7.939
REMARK  Name = 
REMARK  8 active torsions:
REMARK  status: ('A' for Active; 'I' for Inactive)
REMARK    1  A    between atoms: C_1  and  O_2
REMARK    2  A    between atoms: O_2  and  C_3
REMARK    3  A    between atoms: C_6  and  C_7
REMARK    4  A    between atoms: C_7  and  N_8
REMARK    5  A    between atoms: C_9  and  C_11
REMARK    6  A    between atoms: N_15  and  S_16
REMARK    7  A    between atoms: S_16  and  C_19
REMARK    8  A    between atoms: C_22  and  N_23
REMARK                            x       y       z     vdW  Elec       q    Type
REMARK                         _______ _______ _______ _____ _____    ______ ____
ROOT
ATOM      1  C   UNL     1       2.482   5.644  17.942  0.00  0.00    +0.000 C 
ATOM      2  C   UNL     1       2.175   4.456  18.860  0.00  0.00    +0.000 C 
ATOM      3  C   UNL     1       3.291   4.228  19.877  0.00  0.00    +0.000 C 
ATOM      4  C   UNL     1       4.659   4.092  19.210  0.00  0.00    +0.000 C 
ATOM      5  N   UNL     1       4.936   5.244  18.297  0.00  0.00    +0.000 NA
ATOM      6  C   UNL     1       3.847   5.433  17.285  0.00  0.00    +0.000 C 
ENDROOT
BRANCH   1   8
ATOM      7  N   UNL     1       2.215   8.070  17.818  0.00  0.00    +0.000 N 
ATOM      8  C   UNL     1       2.395   6.994  18.661  0.00  0.00    +0.000 C 
ATOM      9  O   UNL     1       2.460   7.115  19.876  0.00  0.00    +0.000 OA
ATOM     10  H   UNL     1       1.836   7.923  16.891  0.00  0.00    +0.000 HD
BRANCH   7  11
ATOM     11  C   UNL     1       2.210   9.425  18.324  0.00  0.00    +0.000 C 
BRANCH  11  15
ATOM     12  C   UNL     1      -1.719  11.255  18.403  0.00  0.00    +0.000 A 
ATOM     13  C   UNL     1      -0.644  11.831  19.079  0.00  0.00    +0.000 A 
ATOM     14  C   UNL     1       0.620  11.234  19.046  0.00  0.00    +0.000 A 
ATOM     15  C   UNL     1       0.825  10.028  18.363  0.00  0.00    +0.000 A 
ATOM     16  C   UNL     1      -0.259   9.462  17.674  0.00  0.00    +0.000 A 
ATOM     17  C   UNL     1      -1.523  10.062  17.707  0.00  0.00    +0.000 A 
BRANCH  12  19
ATOM     18  C   UNL     1      -4.022  11.308  17.874  0.00  0.00    +0.000 C 
ATOM     19  O   UNL     1      -2.910  11.916  18.523  0.00  0.00    +0.000 OA
ENDBRANCH  12  19
ENDBRANCH  11  15
ENDBRANCH   7  11
ENDBRANCH   1   8
BRANCH   5  20
ATOM     20  S   UNL     1       6.482   5.179  17.529  0.00  0.00    +0.000 S 
ATOM     21  O   UNL     1       7.244   4.152  18.205  0.00  0.00    +0.000 OA
ATOM     22  O   UNL     1       6.270   5.126  16.096  0.00  0.00    +0.000 OA
BRANCH  20  23
ATOM     23  C   UNL     1       7.224   6.750  17.880  0.00  0.00    +0.000 A 
ATOM     24  C   UNL     1       8.204   6.842  18.873  0.00  0.00    +0.000 A 
ATOM     25  C   UNL     1       8.801   8.075  19.148  0.00  0.00    +0.000 A 
ATOM     26  C   UNL     1       8.418   9.216  18.426  0.00  0.00    +0.000 A 
ATOM     27  C   UNL     1       7.455   9.106  17.408  0.00  0.00    +0.000 A 
ATOM     28  C   UNL     1       6.856   7.871  17.135  0.00  0.00    +0.000 A 
BRANCH  26  29
ATOM     29  N   UNL     1       8.976  10.482  18.734  0.00  0.00    +0.000 N 
ATOM     30  C   UNL     1       9.490  10.943  19.920  0.00  0.00    +0.000 A 
ATOM     31  N   UNL     1       9.839  12.201  19.785  0.00  0.00    +0.000 NA
ATOM     32  N   UNL     1       9.551  12.526  18.489  0.00  0.00    +0.000 NA
ATOM     33  N   UNL     1       9.038  11.493  17.837  0.00  0.00    +0.000 NA
ENDBRANCH  26  29
ENDBRANCH  20  23
ENDBRANCH   5  20
TORSDOF 7
ENDMDL
