MODEL 1
REMARK VINA RESULT:      -7.4      0.000      0.000
REMARK  Name = 
REMARK  4 active torsions:
REMARK  status: ('A' for Active; 'I' for Inactive)
REMARK    1  A    between atoms: N_3  and  C_4
REMARK    2  A    between atoms: C_5  and  C_6
REMARK    3  A    between atoms: N_19  and  C_20
REMARK    4  A    between atoms: C_21  and  C_22
REMARK                            x       y       z     vdW  Elec       q    Type
REMARK                         _______ _______ _______ _____ _____    ______ ____
ROOT
ATOM      1  O   UNL     1      -2.527  12.781  21.342  0.00  0.00    +0.000 OA
ATOM      2  C   UNL     1      -2.546  13.385  20.309  0.00  0.00    +0.000 C 
ATOM      3  N   UNL     1      -3.629  13.303  19.382  0.00  0.00    +0.000 N 
ATOM      4  N   UNL     1      -1.455  14.226  19.923  0.00  0.00    +0.000 N 
ATOM      5  H   UNL     1      -3.531  13.642  18.434  0.00  0.00    +0.000 HD
ATOM      6  H   UNL     1      -1.561  14.839  19.131  0.00  0.00    +0.000 HD
ENDROOT
BRANCH   3   7
ATOM      7  C   UNL     1      -4.681  12.392  19.581  0.00  0.00    +0.000 A 
ATOM      8  C   UNL     1      -4.959  11.295  18.772  0.00  0.00    +0.000 A 
ATOM      9  N   UNL     1      -6.079  10.631  19.200  0.00  0.00    +0.000 NA
ATOM     10  C   UNL     1      -6.501  11.292  20.256  0.00  0.00    +0.000 A 
ATOM     11  C   UNL     1      -7.618  11.059  21.107  0.00  0.00    +0.000 A 
ATOM     12  C   UNL     1      -7.916  11.943  22.077  0.00  0.00    +0.000 A 
ATOM     13  C   UNL     1      -7.120  13.143  22.276  0.00  0.00    +0.000 A 
ATOM     14  C   UNL     1      -6.039  13.352  21.502  0.00  0.00    +0.000 A 
ATOM     15  N   UNL     1      -5.712  12.415  20.516  0.00  0.00    +0.000 N 
BRANCH   8  16
ATOM     16  C   UNL     1      -4.153  10.828  17.657  0.00  0.00    +0.000 A 
ATOM     17  C   UNL     1      -2.989  10.084  17.887  0.00  0.00    +0.000 A 
ATOM     18  C   UNL     1      -2.166   9.704  16.831  0.00  0.00    +0.000 A 
ATOM     19  C   UNL     1      -2.523  10.022  15.524  0.00  0.00    +0.000 A 
ATOM     20  C   UNL     1      -3.691  10.741  15.275  0.00  0.00    +0.000 A 
ATOM     21  C   UNL     1      -4.502  11.150  16.338  0.00  0.00    +0.000 A 
ENDBRANCH   8  16
ENDBRANCH   3   7
BRANCH   4  22
ATOM     22  C   UNL     1      -0.308  14.395  20.716  0.00  0.00    +0.000 A 
ATOM     23  C   UNL     1       0.691  13.449  20.946  0.00  0.00    +0.000 A 
ATOM     24  N   UNL     1       1.649  13.941  21.799  0.00  0.00    +0.000 NA
ATOM     25  C   UNL     1       1.274  15.165  22.090  0.00  0.00    +0.000 A 
ATOM     26  C   UNL     1       1.895  16.162  22.898  0.00  0.00    +0.000 A 
ATOM     27  C   UNL     1       1.281  17.345  23.092  0.00  0.00    +0.000 A 
ATOM     28  C   UNL     1      -0.020  17.628  22.508  0.00  0.00    +0.000 A 
ATOM     29  C   UNL     1      -0.615  16.692  21.749  0.00  0.00    +0.000 A 
ATOM     30  N   UNL     1       0.050  15.486  21.497  0.00  0.00    +0.000 N 
BRANCH  23  31
ATOM     31  C   UNL     1       0.809  12.142  20.321  0.00  0.00    +0.000 A 
ATOM     32  C   UNL     1       1.406  12.012  19.060  0.00  0.00    +0.000 A 
ATOM     33  C   UNL     1       1.413  10.784  18.401  0.00  0.00    +0.000 A 
ATOM     34  C   UNL     1       0.871   9.659  19.018  0.00  0.00    +0.000 A 
ATOM     35  C   UNL     1       0.323   9.761  20.294  0.00  0.00    +0.000 A 
ATOM     36  C   UNL     1       0.289  10.999  20.945  0.00  0.00    +0.000 A 
ENDBRANCH  23  31
ENDBRANCH   4  22
TORSDOF 4
ENDMDL
MODEL 2
REMARK VINA RESULT:      -7.3      0.205      1.188
REMARK  Name = 
REMARK  4 active torsions:
REMARK  status: ('A' for Active; 'I' for Inactive)
REMARK    1  A    between atoms: N_3  and  C_4
REMARK    2  A    between atoms: C_5  and  C_6
REMARK    3  A    between atoms: N_19  and  C_20
REMARK    4  A    between atoms: C_21  and  C_22
REMARK                            x       y       z     vdW  Elec       q    Type
REMARK                         _______ _______ _______ _____ _____    ______ ____
ROOT
ATOM      1  O   UNL     1      -2.426  12.643  21.247  0.00  0.00    +0.000 OA
ATOM      2  C   UNL     1      -2.508  13.333  20.273  0.00  0.00    +0.000 C 
ATOM      3  N   UNL     1      -3.643  13.323  19.408  0.00  0.00    +0.000 N 
ATOM      4  N   UNL     1      -1.444  14.213  19.898  0.00  0.00    +0.000 N 
ATOM      5  H   UNL     1      -3.603  13.742  18.488  0.00  0.00    +0.000 HD
ATOM      6  H   UNL     1      -1.599  14.891  19.168  0.00  0.00    +0.000 HD
ENDROOT
BRANCH   3   7
ATOM      7  C   UNL     1      -4.679  12.389  19.590  0.00  0.00    +0.000 A 
ATOM      8  C   UNL     1      -4.933  11.298  18.764  0.00  0.00    +0.000 A 
ATOM      9  N   UNL     1      -6.042  10.608  19.178  0.00  0.00    +0.000 NA
ATOM     10  C   UNL     1      -6.481  11.246  20.240  0.00  0.00    +0.000 A 
ATOM     11  C   UNL     1      -7.597  10.980  21.083  0.00  0.00    +0.000 A 
ATOM     12  C   UNL     1      -7.916  11.845  22.063  0.00  0.00    +0.000 A 
ATOM     13  C   UNL     1      -7.144  13.057  22.283  0.00  0.00    +0.000 A 
ATOM     14  C   UNL     1      -6.064  13.296  21.517  0.00  0.00    +0.000 A 
ATOM     15  N   UNL     1      -5.715  12.380  20.520  0.00  0.00    +0.000 N 
BRANCH   8  16
ATOM     16  C   UNL     1      -4.113  10.862  17.646  0.00  0.00    +0.000 A 
ATOM     17  C   UNL     1      -4.501  11.144  16.330  0.00  0.00    +0.000 A 
ATOM     18  C   UNL     1      -3.768  10.659  15.252  0.00  0.00    +0.000 A 
ATOM     19  C   UNL     1      -2.608   9.924  15.477  0.00  0.00    +0.000 A 
ATOM     20  C   UNL     1      -2.194   9.654  16.780  0.00  0.00    +0.000 A 
ATOM     21  C   UNL     1      -2.947  10.115  17.864  0.00  0.00    +0.000 A 
ENDBRANCH   8  16
ENDBRANCH   3   7
BRANCH   4  22
ATOM     22  C   UNL     1      -0.253  14.323  20.634  0.00  0.00    +0.000 A 
ATOM     23  C   UNL     1       0.751  13.360  20.740  0.00  0.00    +0.000 A 
ATOM     24  N   UNL     1       1.760  13.789  21.568  0.00  0.00    +0.000 NA
ATOM     25  C   UNL     1       1.410  14.991  21.964  0.00  0.00    +0.000 A 
ATOM     26  C   UNL     1       2.083  15.927  22.802  0.00  0.00    +0.000 A 
ATOM     27  C   UNL     1       1.489  17.095  23.113  0.00  0.00    +0.000 A 
ATOM     28  C   UNL     1       0.159  17.423  22.626  0.00  0.00    +0.000 A 
ATOM     29  C   UNL     1      -0.484  16.543  21.838  0.00  0.00    +0.000 A 
ATOM     30  N   UNL     1       0.157  15.355  21.466  0.00  0.00    +0.000 N 
BRANCH  23  31
ATOM     31  C   UNL     1       0.824  12.100  20.020  0.00  0.00    +0.000 A 
ATOM     32  C   UNL     1       0.269  10.937  20.571  0.00  0.00    +0.000 A 
ATOM     33  C   UNL     1       0.443   9.703  19.947  0.00  0.00    +0.000 A 
ATOM     34  C   UNL     1       1.128   9.624  18.737  0.00  0.00    +0.000 A 
ATOM     35  C   UNL     1       1.639  10.778  18.150  0.00  0.00    +0.000 A 
ATOM     36  C   UNL     1       1.491  12.014  18.789  0.00  0.00    +0.000 A 
ENDBRANCH  23  31
ENDBRANCH   4  22
TORSDOF 4
ENDMDL
MODEL 3
REMARK VINA RESULT:      -7.3      3.929      7.045
REMARK  Name = 
REMARK  4 active torsions:
REMARK  status: ('A' for Active; 'I' for Inactive)
REMARK    1  A    between atoms: N_3  and  C_4
REMARK    2  A    between atoms: C_5  and  C_6
REMARK    3  A    between atoms: N_19  and  C_20
REMARK    4  A    between atoms: C_21  and  C_22
REMARK                            x       y       z     vdW  Elec       q    Type
REMARK                         _______ _______ _______ _____ _____    ______ ____
ROOT
ATOM      1  O   UNL     1       2.541  12.981  19.810  0.00  0.00    +0.000 OA
ATOM      2  C   UNL     1       2.133  12.964  18.685  0.00  0.00    +0.000 C 
ATOM      3  N   UNL     1       1.374  11.879  18.152  0.00  0.00    +0.000 N 
ATOM      4  N   UNL     1       2.405  14.040  17.782  0.00  0.00    +0.000 N 
ATOM      5  H   UNL     1       1.229  11.783  17.155  0.00  0.00    +0.000 HD
ATOM      6  H   UNL     1       1.925  14.074  16.897  0.00  0.00    +0.000 HD
ENDROOT
BRANCH   3   7
ATOM      7  C   UNL     1       1.178  10.702  18.896  0.00  0.00    +0.000 A 
ATOM      8  C   UNL     1       0.397  10.595  20.042  0.00  0.00    +0.000 A 
ATOM      9  N   UNL     1       0.449   9.328  20.563  0.00  0.00    +0.000 NA
ATOM     10  C   UNL     1       1.244   8.649  19.767  0.00  0.00    +0.000 A 
ATOM     11  C   UNL     1       1.662   7.289  19.817  0.00  0.00    +0.000 A 
ATOM     12  C   UNL     1       2.578   6.838  18.941  0.00  0.00    +0.000 A 
ATOM     13  C   UNL     1       3.159   7.713  17.937  0.00  0.00    +0.000 A 
ATOM     14  C   UNL     1       2.742   8.990  17.856  0.00  0.00    +0.000 A 
ATOM     15  N   UNL     1       1.766   9.449  18.747  0.00  0.00    +0.000 N 
BRANCH   8  16
ATOM     16  C   UNL     1      -0.445  11.637  20.605  0.00  0.00    +0.000 A 
ATOM     17  C   UNL     1      -0.177  12.154  21.878  0.00  0.00    +0.000 A 
ATOM     18  C   UNL     1      -1.024  13.091  22.460  0.00  0.00    +0.000 A 
ATOM     19  C   UNL     1      -2.127  13.561  21.754  0.00  0.00    +0.000 A 
ATOM     20  C   UNL     1      -2.396  13.076  20.475  0.00  0.00    +0.000 A 
ATOM     21  C   UNL     1      -1.562  12.111  19.903  0.00  0.00    +0.000 A 
ENDBRANCH   8  16
ENDBRANCH   3   7
BRANCH   4  22
ATOM     22  C   UNL     1       3.155  15.169  18.149  0.00  0.00    +0.000 A 
ATOM     23  C   UNL     1       2.654  16.423  18.499  0.00  0.00    +0.000 A 
ATOM     24  N   UNL     1       3.673  17.304  18.770  0.00  0.00    +0.000 NA
ATOM     25  C   UNL     1       4.784  16.624  18.608  0.00  0.00    +0.000 A 
ATOM     26  C   UNL     1       6.146  17.010  18.785  0.00  0.00    +0.000 A 
ATOM     27  C   UNL     1       7.131  16.137  18.501  0.00  0.00    +0.000 A 
ATOM     28  C   UNL     1       6.841  14.804  17.998  0.00  0.00    +0.000 A 
ATOM     29  C   UNL     1       5.561  14.434  17.824  0.00  0.00    +0.000 A 
ATOM     30  N   UNL     1       4.535  15.319  18.175  0.00  0.00    +0.000 N 
BRANCH  23  31
ATOM     31  C   UNL     1       1.256  16.783  18.667  0.00  0.00    +0.000 A 
ATOM     32  C   UNL     1       0.506  16.238  19.718  0.00  0.00    +0.000 A 
ATOM     33  C   UNL     1      -0.863  16.481  19.814  0.00  0.00    +0.000 A 
ATOM     34  C   UNL     1      -1.489  17.315  18.891  0.00  0.00    +0.000 A 
ATOM     35  C   UNL     1      -0.748  17.908  17.873  0.00  0.00    +0.000 A 
ATOM     36  C   UNL     1       0.621  17.642  17.757  0.00  0.00    +0.000 A 
ENDBRANCH  23  31
ENDBRANCH   4  22
TORSDOF 4
ENDMDL
MODEL 4
REMARK VINA RESULT:      -7.3      3.891      6.988
REMARK  Name = 
REMARK  4 active torsions:
REMARK  status: ('A' for Active; 'I' for Inactive)
REMARK    1  A    between atoms: N_3  and  C_4
REMARK    2  A    between atoms: C_5  and  C_6
REMARK    3  A    between atoms: N_19  and  C_20
REMARK    4  A    between atoms: C_21  and  C_22
REMARK                            x       y       z     vdW  Elec       q    Type
REMARK                         _______ _______ _______ _____ _____    ______ ____
ROOT
ATOM      1  O   UNL     1       2.399  12.857  19.863  0.00  0.00    +0.000 OA
ATOM      2  C   UNL     1       1.974  12.813  18.745  0.00  0.00    +0.000 C 
ATOM      3  N   UNL     1       1.237  11.700  18.239  0.00  0.00    +0.000 N 
ATOM      4  N   UNL     1       2.200  13.885  17.825  0.00  0.00    +0.000 N 
ATOM      5  H   UNL     1       1.078  11.587  17.246  0.00  0.00    +0.000 HD
ATOM      6  H   UNL     1       1.705  13.893  16.947  0.00  0.00    +0.000 HD
ENDROOT
BRANCH   3   7
ATOM      7  C   UNL     1       1.087  10.528  19.001  0.00  0.00    +0.000 A 
ATOM      8  C   UNL     1       0.319  10.411  20.155  0.00  0.00    +0.000 A 
ATOM      9  N   UNL     1       0.417   9.155  20.694  0.00  0.00    +0.000 NA
ATOM     10  C   UNL     1       1.228   8.491  19.900  0.00  0.00    +0.000 A 
ATOM     11  C   UNL     1       1.691   7.146  19.965  0.00  0.00    +0.000 A 
ATOM     12  C   UNL     1       2.613   6.713  19.086  0.00  0.00    +0.000 A 
ATOM     13  C   UNL     1       3.156   7.593  18.065  0.00  0.00    +0.000 A 
ATOM     14  C   UNL     1       2.696   8.854  17.971  0.00  0.00    +0.000 A 
ATOM     15  N   UNL     1       1.714   9.293  18.864  0.00  0.00    +0.000 N 
BRANCH   8  16
ATOM     16  C   UNL     1      -0.551  11.433  20.712  0.00  0.00    +0.000 A 
ATOM     17  C   UNL     1      -1.685  11.859  20.007  0.00  0.00    +0.000 A 
ATOM     18  C   UNL     1      -2.477  12.894  20.492  0.00  0.00    +0.000 A 
ATOM     19  C   UNL     1      -2.173  13.487  21.714  0.00  0.00    +0.000 A 
ATOM     20  C   UNL     1      -1.063  13.060  22.439  0.00  0.00    +0.000 A 
ATOM     21  C   UNL     1      -0.248  12.040  21.938  0.00  0.00    +0.000 A 
ENDBRANCH   8  16
ENDBRANCH   3   7
BRANCH   4  22
ATOM     22  C   UNL     1       2.924  15.039  18.165  0.00  0.00    +0.000 A 
ATOM     23  C   UNL     1       2.394  16.291  18.478  0.00  0.00    +0.000 A 
ATOM     24  N   UNL     1       3.392  17.200  18.730  0.00  0.00    +0.000 NA
ATOM     25  C   UNL     1       4.519  16.540  18.593  0.00  0.00    +0.000 A 
ATOM     26  C   UNL     1       5.871  16.960  18.766  0.00  0.00    +0.000 A 
ATOM     27  C   UNL     1       6.876  16.101  18.511  0.00  0.00    +0.000 A 
ATOM     28  C   UNL     1       6.618  14.749  18.042  0.00  0.00    +0.000 A 
ATOM     29  C   UNL     1       5.347  14.347  17.872  0.00  0.00    +0.000 A 
ATOM     30  N   UNL     1       4.299  15.219  18.194  0.00  0.00    +0.000 N 
BRANCH  23  31
ATOM     31  C   UNL     1       0.988  16.625  18.629  0.00  0.00    +0.000 A 
ATOM     32  C   UNL     1       0.384  17.553  17.770  0.00  0.00    +0.000 A 
ATOM     33  C   UNL     1      -0.928  17.971  17.984  0.00  0.00    +0.000 A 
ATOM     34  C   UNL     1      -1.670  17.427  19.030  0.00  0.00    +0.000 A 
ATOM     35  C   UNL     1      -1.103  16.464  19.859  0.00  0.00    +0.000 A 
ATOM     36  C   UNL     1       0.224  16.064  19.663  0.00  0.00    +0.000 A 
ENDBRANCH  23  31
ENDBRANCH   4  22
TORSDOF 4
ENDMDL
MODEL 5
REMARK VINA RESULT:      -7.2      0.664      1.093
REMARK  Name = 
REMARK  4 active torsions:
REMARK  status: ('A' for Active; 'I' for Inactive)
REMARK    1  A    between atoms: N_3  and  C_4
REMARK    2  A    between atoms: C_5  and  C_6
REMARK    3  A    between atoms: N_19  and  C_20
REMARK    4  A    between atoms: C_21  and  C_22
REMARK                            x       y       z     vdW  Elec       q    Type
REMARK                         _______ _______ _______ _____ _____    ______ ____
ROOT
ATOM      1  O   UNL     1      -1.981  12.777  21.329  0.00  0.00    +0.000 OA
ATOM      2  C   UNL     1      -2.026  13.428  20.325  0.00  0.00    +0.000 C 
ATOM      3  N   UNL     1      -3.191  13.509  19.505  0.00  0.00    +0.000 N 
ATOM      4  N   UNL     1      -0.886  14.162  19.867  0.00  0.00    +0.000 N 
ATOM      5  H   UNL     1      -3.143  13.878  18.564  0.00  0.00    +0.000 HD
ATOM      6  H   UNL     1      -0.995  14.819  19.111  0.00  0.00    +0.000 HD
ENDROOT
BRANCH   3   7
ATOM      7  C   UNL     1      -4.317  12.709  19.772  0.00  0.00    +0.000 A 
ATOM      8  C   UNL     1      -4.732  11.624  19.006  0.00  0.00    +0.000 A 
ATOM      9  N   UNL     1      -5.892  11.083  19.497  0.00  0.00    +0.000 NA
ATOM     10  C   UNL     1      -6.205  11.809  20.548  0.00  0.00    +0.000 A 
ATOM     11  C   UNL     1      -7.303  11.707  21.448  0.00  0.00    +0.000 A 
ATOM     12  C   UNL     1      -7.475  12.641  22.402  0.00  0.00    +0.000 A 
ATOM     13  C   UNL     1      -6.559  13.763  22.535  0.00  0.00    +0.000 A 
ATOM     14  C   UNL     1      -5.497  13.845  21.714  0.00  0.00    +0.000 A 
ATOM     15  N   UNL     1      -5.302  12.856  20.744  0.00  0.00    +0.000 N 
BRANCH   8  16
ATOM     16  C   UNL     1      -4.021  11.052  17.875  0.00  0.00    +0.000 A 
ATOM     17  C   UNL     1      -2.833  10.337  18.073  0.00  0.00    +0.000 A 
ATOM     18  C   UNL     1      -2.102   9.858  16.991  0.00  0.00    +0.000 A 
ATOM     19  C   UNL     1      -2.575  10.046  15.696  0.00  0.00    +0.000 A 
ATOM     20  C   UNL     1      -3.768  10.733  15.482  0.00  0.00    +0.000 A 
ATOM     21  C   UNL     1      -4.488  11.242  16.567  0.00  0.00    +0.000 A 
ENDBRANCH   8  16
ENDBRANCH   3   7
BRANCH   4  22
ATOM     22  C   UNL     1       0.340  14.168  20.551  0.00  0.00    +0.000 A 
ATOM     23  C   UNL     1       1.242  13.108  20.650  0.00  0.00    +0.000 A 
ATOM     24  N   UNL     1       2.324  13.452  21.423  0.00  0.00    +0.000 NA
ATOM     25  C   UNL     1       2.118  14.695  21.793  0.00  0.00    +0.000 A 
ATOM     26  C   UNL     1       2.920  15.580  22.572  0.00  0.00    +0.000 A 
ATOM     27  C   UNL     1       2.464  16.812  22.867  0.00  0.00    +0.000 A 
ATOM     28  C   UNL     1       1.156  17.263  22.422  0.00  0.00    +0.000 A 
ATOM     29  C   UNL     1       0.392  16.434  21.690  0.00  0.00    +0.000 A 
ATOM     30  N   UNL     1       0.889  15.175  21.332  0.00  0.00    +0.000 N 
BRANCH  23  31
ATOM     31  C   UNL     1       1.154  11.827  19.970  0.00  0.00    +0.000 A 
ATOM     32  C   UNL     1       0.640  10.706  20.636  0.00  0.00    +0.000 A 
ATOM     33  C   UNL     1       0.666   9.449  20.036  0.00  0.00    +0.000 A 
ATOM     34  C   UNL     1       1.158   9.306  18.741  0.00  0.00    +0.000 A 
ATOM     35  C   UNL     1       1.622  10.418  18.045  0.00  0.00    +0.000 A 
ATOM     36  C   UNL     1       1.624  11.677  18.657  0.00  0.00    +0.000 A 
ENDBRANCH  23  31
ENDBRANCH   4  22
TORSDOF 4
ENDMDL
MODEL 6
REMARK VINA RESULT:      -7.2      3.927      8.781
REMARK  Name = 
REMARK  4 active torsions:
REMARK  status: ('A' for Active; 'I' for Inactive)
REMARK    1  A    between atoms: N_3  and  C_4
REMARK    2  A    between atoms: C_5  and  C_6
REMARK    3  A    between atoms: N_19  and  C_20
REMARK    4  A    between atoms: C_21  and  C_22
REMARK                            x       y       z     vdW  Elec       q    Type
REMARK                         _______ _______ _______ _____ _____    ______ ____
ROOT
ATOM      1  O   UNL     1       2.898  12.909  19.698  0.00  0.00    +0.000 OA
ATOM      2  C   UNL     1       2.358  12.961  18.631  0.00  0.00    +0.000 C 
ATOM      3  N   UNL     1       2.536  14.049  17.724  0.00  0.00    +0.000 N 
ATOM      4  N   UNL     1       1.470  11.926  18.199  0.00  0.00    +0.000 N 
ATOM      5  H   UNL     1       1.913  14.180  16.937  0.00  0.00    +0.000 HD
ATOM      6  H   UNL     1       1.152  11.916  17.243  0.00  0.00    +0.000 HD
ENDROOT
BRANCH   3   7
ATOM      7  C   UNL     1       3.261  15.193  18.104  0.00  0.00    +0.000 A 
ATOM      8  C   UNL     1       2.708  16.437  18.389  0.00  0.00    +0.000 A 
ATOM      9  N   UNL     1       3.680  17.359  18.678  0.00  0.00    +0.000 NA
ATOM     10  C   UNL     1       4.822  16.715  18.578  0.00  0.00    +0.000 A 
ATOM     11  C   UNL     1       6.158  17.165  18.769  0.00  0.00    +0.000 A 
ATOM     12  C   UNL     1       7.187  16.340  18.503  0.00  0.00    +0.000 A 
ATOM     13  C   UNL     1       6.965  14.987  18.018  0.00  0.00    +0.000 A 
ATOM     14  C   UNL     1       5.705  14.539  17.873  0.00  0.00    +0.000 A 
ATOM     15  N   UNL     1       4.636  15.388  18.180  0.00  0.00    +0.000 N 
BRANCH   8  16
ATOM     16  C   UNL     1       1.290  16.748  18.463  0.00  0.00    +0.000 A 
ATOM     17  C   UNL     1       0.733  17.717  17.619  0.00  0.00    +0.000 A 
ATOM     18  C   UNL     1      -0.604  18.081  17.739  0.00  0.00    +0.000 A 
ATOM     19  C   UNL     1      -1.415  17.445  18.673  0.00  0.00    +0.000 A 
ATOM     20  C   UNL     1      -0.883  16.461  19.505  0.00  0.00    +0.000 A 
ATOM     21  C   UNL     1       0.468  16.117  19.406  0.00  0.00    +0.000 A 
ENDBRANCH   8  16
ENDBRANCH   3   7
BRANCH   4  22
ATOM     22  C   UNL     1       1.176  10.800  18.985  0.00  0.00    +0.000 A 
ATOM     23  C   UNL     1       0.341  10.760  20.101  0.00  0.00    +0.000 A 
ATOM     24  N   UNL     1       0.307   9.500  20.648  0.00  0.00    +0.000 NA
ATOM     25  C   UNL     1       1.088   8.762  19.893  0.00  0.00    +0.000 A 
ATOM     26  C   UNL     1       1.406   7.374  19.958  0.00  0.00    +0.000 A 
ATOM     27  C   UNL     1       2.289   6.848  19.089  0.00  0.00    +0.000 A 
ATOM     28  C   UNL     1       2.947   7.669  18.086  0.00  0.00    +0.000 A 
ATOM     29  C   UNL     1       2.656   8.980  18.020  0.00  0.00    +0.000 A 
ATOM     30  N   UNL     1       1.693   9.516  18.884  0.00  0.00    +0.000 N 
BRANCH  23  31
ATOM     31  C   UNL     1      -0.484  11.844  20.608  0.00  0.00    +0.000 A 
ATOM     32  C   UNL     1      -0.055  12.610  21.700  0.00  0.00    +0.000 A 
ATOM     33  C   UNL     1      -0.892  13.568  22.269  0.00  0.00    +0.000 A 
ATOM     34  C   UNL     1      -2.149  13.809  21.719  0.00  0.00    +0.000 A 
ATOM     35  C   UNL     1      -2.569  13.095  20.601  0.00  0.00    +0.000 A 
ATOM     36  C   UNL     1      -1.741  12.112  20.046  0.00  0.00    +0.000 A 
ENDBRANCH  23  31
ENDBRANCH   4  22
TORSDOF 4
ENDMDL
MODEL 7
REMARK VINA RESULT:      -7.1      1.698      7.717
REMARK  Name = 
REMARK  4 active torsions:
REMARK  status: ('A' for Active; 'I' for Inactive)
REMARK    1  A    between atoms: N_3  and  C_4
REMARK    2  A    between atoms: C_5  and  C_6
REMARK    3  A    between atoms: N_19  and  C_20
REMARK    4  A    between atoms: C_21  and  C_22
REMARK                            x       y       z     vdW  Elec       q    Type
REMARK                         _______ _______ _______ _____ _____    ______ ____
ROOT
ATOM      1  O   UNL     1      -2.258  12.264  20.830  0.00  0.00    +0.000 OA
ATOM      2  C   UNL     1      -2.517  13.209  20.143  0.00  0.00    +0.000 C 
ATOM      3  N   UNL     1      -1.601  14.282  19.922  0.00  0.00    +0.000 N 
ATOM      4  N   UNL     1      -3.792  13.334  19.506  0.00  0.00    +0.000 N 
ATOM      5  H   UNL     1      -1.911  15.160  19.525  0.00  0.00    +0.000 HD
ATOM      6  H   UNL     1      -3.929  14.054  18.816  0.00  0.00    +0.000 HD
ENDROOT
BRANCH   3   7
ATOM      7  C   UNL     1      -0.381  14.343  20.618  0.00  0.00    +0.000 A 
ATOM      8  C   UNL     1      -0.232  14.725  21.948  0.00  0.00    +0.000 A 
ATOM      9  N   UNL     1       1.088  14.731  22.319  0.00  0.00    +0.000 NA
ATOM     10  C   UNL     1       1.759  14.363  21.250  0.00  0.00    +0.000 A 
ATOM     11  C   UNL     1       3.158  14.192  21.049  0.00  0.00    +0.000 A 
ATOM     12  C   UNL     1       3.627  13.907  19.821  0.00  0.00    +0.000 A 
ATOM     13  C   UNL     1       2.733  13.770  18.683  0.00  0.00    +0.000 A 
ATOM     14  C   UNL     1       1.406  13.891  18.870  0.00  0.00    +0.000 A 
ATOM     15  N   UNL     1       0.917  14.155  20.154  0.00  0.00    +0.000 N 
BRANCH   8  16
ATOM     16  C   UNL     1      -1.307  15.011  22.882  0.00  0.00    +0.000 A 
ATOM     17  C   UNL     1      -1.788  14.011  23.737  0.00  0.00    +0.000 A 
ATOM     18  C   UNL     1      -2.872  14.251  24.575  0.00  0.00    +0.000 A 
ATOM     19  C   UNL     1      -3.460  15.512  24.604  0.00  0.00    +0.000 A 
ATOM     20  C   UNL     1      -2.979  16.526  23.778  0.00  0.00    +0.000 A 
ATOM     21  C   UNL     1      -1.910  16.276  22.913  0.00  0.00    +0.000 A 
ENDBRANCH   8  16
ENDBRANCH   3   7
BRANCH   4  22
ATOM     22  C   UNL     1      -4.807  12.374  19.643  0.00  0.00    +0.000 A 
ATOM     23  C   UNL     1      -5.058  11.301  18.787  0.00  0.00    +0.000 A 
ATOM     24  N   UNL     1      -6.150  10.580  19.206  0.00  0.00    +0.000 NA
ATOM     25  C   UNL     1      -6.570  11.171  20.300  0.00  0.00    +0.000 A 
ATOM     26  C   UNL     1      -7.641  10.845  21.183  0.00  0.00    +0.000 A 
ATOM     27  C   UNL     1      -7.914  11.647  22.229  0.00  0.00    +0.000 A 
ATOM     28  C   UNL     1      -7.150  12.859  22.475  0.00  0.00    +0.000 A 
ATOM     29  C   UNL     1      -6.141  13.176  21.646  0.00  0.00    +0.000 A 
ATOM     30  N   UNL     1      -5.817  12.312  20.593  0.00  0.00    +0.000 N 
BRANCH  23  31
ATOM     31  C   UNL     1      -4.252  10.892  17.648  0.00  0.00    +0.000 A 
ATOM     32  C   UNL     1      -3.085  10.141  17.840  0.00  0.00    +0.000 A 
ATOM     33  C   UNL     1      -2.243   9.850  16.768  0.00  0.00    +0.000 A 
ATOM     34  C   UNL     1      -2.585  10.263  15.482  0.00  0.00    +0.000 A 
ATOM     35  C   UNL     1      -3.768  10.963  15.267  0.00  0.00    +0.000 A 
ATOM     36  C   UNL     1      -4.601  11.281  16.346  0.00  0.00    +0.000 A 
ENDBRANCH  23  31
ENDBRANCH   4  22
TORSDOF 4
ENDMDL
MODEL 8
REMARK VINA RESULT:      -7.1      4.133      8.691
REMARK  Name = 
REMARK  4 active torsions:
REMARK  status: ('A' for Active; 'I' for Inactive)
REMARK    1  A    between atoms: N_3  and  C_4
REMARK    2  A    between atoms: C_5  and  C_6
REMARK    3  A    between atoms: N_19  and  C_20
REMARK    4  A    between atoms: C_21  and  C_22
REMARK                            x       y       z     vdW  Elec       q    Type
REMARK                         _______ _______ _______ _____ _____    ______ ____
ROOT
ATOM      1  O   UNL     1       2.814  13.730  19.918  0.00  0.00    +0.000 OA
ATOM      2  C   UNL     1       2.680  13.431  18.767  0.00  0.00    +0.000 C 
ATOM      3  N   UNL     1       3.590  13.844  17.748  0.00  0.00    +0.000 N 
ATOM      4  N   UNL     1       1.568  12.643  18.330  0.00  0.00    +0.000 N 
ATOM      5  H   UNL     1       3.347  13.769  16.768  0.00  0.00    +0.000 HD
ATOM      6  H   UNL     1       1.561  12.278  17.392  0.00  0.00    +0.000 HD
ENDROOT
BRANCH   3   7
ATOM      7  C   UNL     1       4.630  14.746  18.033  0.00  0.00    +0.000 A 
ATOM      8  C   UNL     1       4.469  16.104  18.293  0.00  0.00    +0.000 A 
ATOM      9  N   UNL     1       5.678  16.722  18.483  0.00  0.00    +0.000 NA
ATOM     10  C   UNL     1       6.583  15.778  18.347  0.00  0.00    +0.000 A 
ATOM     11  C   UNL     1       8.003  15.838  18.440  0.00  0.00    +0.000 A 
ATOM     12  C   UNL     1       8.739  14.749  18.153  0.00  0.00    +0.000 A 
ATOM     13  C   UNL     1       8.114  13.501  17.744  0.00  0.00    +0.000 A 
ATOM     14  C   UNL     1       6.772  13.424  17.691  0.00  0.00    +0.000 A 
ATOM     15  N   UNL     1       6.008  14.547  18.021  0.00  0.00    +0.000 N 
BRANCH   8  16
ATOM     16  C   UNL     1       3.203  16.804  18.433  0.00  0.00    +0.000 A 
ATOM     17  C   UNL     1       2.672  17.059  19.704  0.00  0.00    +0.000 A 
ATOM     18  C   UNL     1       1.423  17.654  19.847  0.00  0.00    +0.000 A 
ATOM     19  C   UNL     1       0.708  18.046  18.719  0.00  0.00    +0.000 A 
ATOM     20  C   UNL     1       1.232  17.821  17.447  0.00  0.00    +0.000 A 
ATOM     21  C   UNL     1       2.474  17.196  17.302  0.00  0.00    +0.000 A 
ENDBRANCH   8  16
ENDBRANCH   3   7
BRANCH   4  22
ATOM     22  C   UNL     1       0.576  12.177  19.208  0.00  0.00    +0.000 A 
ATOM     23  C   UNL     1       0.352  10.852  19.582  0.00  0.00    +0.000 A 
ATOM     24  N   UNL     1      -0.723  10.754  20.432  0.00  0.00    +0.000 NA
ATOM     25  C   UNL     1      -1.158  11.981  20.600  0.00  0.00    +0.000 A 
ATOM     26  C   UNL     1      -2.223  12.489  21.400  0.00  0.00    +0.000 A 
ATOM     27  C   UNL     1      -2.517  13.803  21.366  0.00  0.00    +0.000 A 
ATOM     28  C   UNL     1      -1.782  14.723  20.514  0.00  0.00    +0.000 A 
ATOM     29  C   UNL     1      -0.780  14.251  19.752  0.00  0.00    +0.000 A 
ATOM     30  N   UNL     1      -0.434  12.896  19.832  0.00  0.00    +0.000 N 
BRANCH  23  31
ATOM     31  C   UNL     1       1.169   9.701  19.233  0.00  0.00    +0.000 A 
ATOM     32  C   UNL     1       1.695   9.572  17.940  0.00  0.00    +0.000 A 
ATOM     33  C   UNL     1       2.374   8.416  17.562  0.00  0.00    +0.000 A 
ATOM     34  C   UNL     1       2.582   7.396  18.488  0.00  0.00    +0.000 A 
ATOM     35  C   UNL     1       2.113   7.532  19.791  0.00  0.00    +0.000 A 
ATOM     36  C   UNL     1       1.405   8.680  20.164  0.00  0.00    +0.000 A 
ENDBRANCH  23  31
ENDBRANCH   4  22
TORSDOF 4
ENDMDL
MODEL 9
REMARK VINA RESULT:      -7.1      3.925      8.729
REMARK  Name = 
REMARK  4 active torsions:
REMARK  status: ('A' for Active; 'I' for Inactive)
REMARK    1  A    between atoms: N_3  and  C_4
REMARK    2  A    between atoms: C_5  and  C_6
REMARK    3  A    between atoms: N_19  and  C_20
REMARK    4  A    between atoms: C_21  and  C_22
REMARK                            x       y       z     vdW  Elec       q    Type
REMARK                         _______ _______ _______ _____ _____    ______ ____
ROOT
ATOM      1  O   UNL     1       2.920  12.883  19.658  0.00  0.00    +0.000 OA
ATOM      2  C   UNL     1       2.305  12.991  18.637  0.00  0.00    +0.000 C 
ATOM      3  N   UNL     1       2.426  14.122  17.775  0.00  0.00    +0.000 N 
ATOM      4  N   UNL     1       1.378  11.983  18.221  0.00  0.00    +0.000 N 
ATOM      5  H   UNL     1       1.749  14.295  17.043  0.00  0.00    +0.000 HD
ATOM      6  H   UNL     1       0.992  12.023  17.291  0.00  0.00    +0.000 HD
ENDROOT
BRANCH   3   7
ATOM      7  C   UNL     1       3.186  15.241  18.157  0.00  0.00    +0.000 A 
ATOM      8  C   UNL     1       2.671  16.496  18.469  0.00  0.00    +0.000 A 
ATOM      9  N   UNL     1       3.671  17.389  18.753  0.00  0.00    +0.000 NA
ATOM     10  C   UNL     1       4.794  16.717  18.624  0.00  0.00    +0.000 A 
ATOM     11  C   UNL     1       6.145  17.130  18.797  0.00  0.00    +0.000 A 
ATOM     12  C   UNL     1       7.147  16.282  18.502  0.00  0.00    +0.000 A 
ATOM     13  C   UNL     1       6.882  14.943  18.003  0.00  0.00    +0.000 A 
ATOM     14  C   UNL     1       5.608  14.529  17.874  0.00  0.00    +0.000 A 
ATOM     15  N   UNL     1       4.568  15.401  18.212  0.00  0.00    +0.000 N 
BRANCH   8  16
ATOM     16  C   UNL     1       1.263  16.842  18.571  0.00  0.00    +0.000 A 
ATOM     17  C   UNL     1       0.469  16.287  19.583  0.00  0.00    +0.000 A 
ATOM     18  C   UNL     1      -0.896  16.546  19.639  0.00  0.00    +0.000 A 
ATOM     19  C   UNL     1      -1.479  17.404  18.711  0.00  0.00    +0.000 A 
ATOM     20  C   UNL     1      -0.699  17.984  17.712  0.00  0.00    +0.000 A 
ATOM     21  C   UNL     1       0.668  17.699  17.636  0.00  0.00    +0.000 A 
ENDBRANCH   8  16
ENDBRANCH   3   7
BRANCH   4  22
ATOM     22  C   UNL     1       1.132  10.821  18.969  0.00  0.00    +0.000 A 
ATOM     23  C   UNL     1       0.315  10.714  20.094  0.00  0.00    +0.000 A 
ATOM     24  N   UNL     1       0.329   9.435  20.595  0.00  0.00    +0.000 NA
ATOM     25  C   UNL     1       1.122   8.751  19.804  0.00  0.00    +0.000 A 
ATOM     26  C   UNL     1       1.486   7.372  19.816  0.00  0.00    +0.000 A 
ATOM     27  C   UNL     1       2.374   6.906  18.916  0.00  0.00    +0.000 A 
ATOM     28  C   UNL     1       2.990   7.784  17.935  0.00  0.00    +0.000 A 
ATOM     29  C   UNL     1       2.656   9.086  17.920  0.00  0.00    +0.000 A 
ATOM     30  N   UNL     1       1.689   9.559  18.815  0.00  0.00    +0.000 N 
BRANCH  23  31
ATOM     31  C   UNL     1      -0.538  11.752  20.650  0.00  0.00    +0.000 A 
ATOM     32  C   UNL     1      -1.730  12.110  20.006  0.00  0.00    +0.000 A 
ATOM     33  C   UNL     1      -2.489  13.185  20.463  0.00  0.00    +0.000 A 
ATOM     34  C   UNL     1      -2.093  13.883  21.602  0.00  0.00    +0.000 A 
ATOM     35  C   UNL     1      -0.941  13.506  22.285  0.00  0.00    +0.000 A 
ATOM     36  C   UNL     1      -0.161  12.445  21.811  0.00  0.00    +0.000 A 
ENDBRANCH  23  31
ENDBRANCH   4  22
TORSDOF 4
ENDMDL
