MODEL 1
REMARK VINA RESULT:      -7.3      0.000      0.000
REMARK  Name = 
REMARK  11 active torsions:
REMARK  status: ('A' for Active; 'I' for Inactive)
REMARK    1  A    between atoms: C_1  and  C_2
REMARK    2  A    between atoms: C_2  and  O_4
REMARK    3  A    between atoms: O_4  and  C_5
REMARK    4  A    between atoms: C_5  and  C_6
REMARK    5  A    between atoms: C_9  and  C_10
REMARK    6  A    between atoms: C_11  and  C_12
REMARK    7  A    between atoms: C_12  and  O_14
REMARK    8  A    between atoms: C_19  and  C_20
REMARK    9  A    between atoms: C_19  and  C_21
REMARK   10  A    between atoms: C_21  and  C_22
REMARK   11  A    between atoms: C_22  and  C_23
REMARK                            x       y       z     vdW  Elec       q    Type
REMARK                         _______ _______ _______ _____ _____    ______ ____
ROOT
ATOM      1  C   UNL     1      -1.251  10.578  18.154  0.00  0.00    +0.000 C 
ATOM      2  C   UNL     1      -1.749  12.009  18.313  0.00  0.00    +0.000 C 
ATOM      3  C   UNL     1      -2.151  12.216  19.796  0.00  0.00    +0.000 C 
ATOM      4  C   UNL     1      -0.966  11.921  20.796  0.00  0.00    +0.000 C 
ATOM      5  C   UNL     1      -0.081  13.197  20.632  0.00  0.00    +0.000 C 
ATOM      6  C   UNL     1      -1.295  11.898  22.304  0.00  0.00    +0.000 C 
ATOM      7  C   UNL     1      -1.022  10.855  23.117  0.00  0.00    +0.000 C 
ATOM      8  C   UNL     1      -0.414   9.550  22.706  0.00  0.00    +0.000 C 
ATOM      9  C   UNL     1       0.428   9.653  21.430  0.00  0.00    +0.000 C 
ATOM     10  C   UNL     1      -0.371  10.398  20.372  0.00  0.00    +0.000 C 
ATOM     11  C   UNL     1       0.172  10.327  18.877  0.00  0.00    +0.000 C 
ATOM     12  C   UNL     1       1.343  11.349  18.859  0.00  0.00    +0.000 C 
ENDROOT
BRANCH   6  13
ATOM     13  C   UNL     1      -1.572  13.144  23.094  0.00  0.00    +0.000 C 
ATOM     14  O   UNL     1      -0.747  13.704  23.786  0.00  0.00    +0.000 OA
BRANCH  13  15
ATOM     15  O   UNL     1      -2.840  13.609  22.952  0.00  0.00    +0.000 OA
ATOM     16  H   UNL     1      -3.171  14.088  23.715  0.00  0.00    +0.000 HD
ENDBRANCH  13  15
ENDBRANCH   6  13
BRANCH   1  17
ATOM     17  C   UNL     1      -1.760   9.829  16.898  0.00  0.00    +0.000 C 
BRANCH  17  18
ATOM     18  O   UNL     1      -3.204   9.925  16.971  0.00  0.00    +0.000 OA
BRANCH  18  20
ATOM     19  C   UNL     1      -3.498  10.292  14.675  0.00  0.00    +0.000 C 
ATOM     20  C   UNL     1      -3.895  10.671  16.051  0.00  0.00    +0.000 C 
ATOM     21  O   UNL     1      -4.713  11.515  16.343  0.00  0.00    +0.000 OA
ENDBRANCH  18  20
ENDBRANCH  17  18
ENDBRANCH   1  17
BRANCH  11  22
ATOM     22  C   UNL     1       0.786   9.100  18.121  0.00  0.00    +0.000 C 
BRANCH  22  23
ATOM     23  C   UNL     1       2.268   8.919  17.739  0.00  0.00    +0.000 C 
BRANCH  23  24
ATOM     24  C   UNL     1       2.784   7.619  18.307  0.00  0.00    +0.000 A 
ATOM     25  C   UNL     1       2.362   6.975  19.507  0.00  0.00    +0.000 A 
ATOM     26  C   UNL     1       3.060   5.799  19.591  0.00  0.00    +0.000 A 
ATOM     27  O   UNL     1       3.889   5.656  18.520  0.00  0.00    +0.000 OA
ATOM     28  C   UNL     1       3.712   6.761  17.746  0.00  0.00    +0.000 A 
ENDBRANCH  23  24
ENDBRANCH  22  23
ENDBRANCH  11  22
TORSDOF 8
ENDMDL
MODEL 2
REMARK VINA RESULT:      -6.5      0.743      1.159
REMARK  Name = 
REMARK  11 active torsions:
REMARK  status: ('A' for Active; 'I' for Inactive)
REMARK    1  A    between atoms: C_1  and  C_2
REMARK    2  A    between atoms: C_2  and  O_4
REMARK    3  A    between atoms: O_4  and  C_5
REMARK    4  A    between atoms: C_5  and  C_6
REMARK    5  A    between atoms: C_9  and  C_10
REMARK    6  A    between atoms: C_11  and  C_12
REMARK    7  A    between atoms: C_12  and  O_14
REMARK    8  A    between atoms: C_19  and  C_20
REMARK    9  A    between atoms: C_19  and  C_21
REMARK   10  A    between atoms: C_21  and  C_22
REMARK   11  A    between atoms: C_22  and  C_23
REMARK                            x       y       z     vdW  Elec       q    Type
REMARK                         _______ _______ _______ _____ _____    ______ ____
ROOT
ATOM      1  C   UNL     1      -1.233  10.892  18.234  0.00  0.00    +0.000 C 
ATOM      2  C   UNL     1      -1.661  12.352  18.298  0.00  0.00    +0.000 C 
ATOM      3  C   UNL     1      -2.114  12.656  19.749  0.00  0.00    +0.000 C 
ATOM      4  C   UNL     1      -0.989  12.355  20.815  0.00  0.00    +0.000 C 
ATOM      5  C   UNL     1      -0.033  13.575  20.626  0.00  0.00    +0.000 C 
ATOM      6  C   UNL     1      -1.382  12.428  22.306  0.00  0.00    +0.000 C 
ATOM      7  C   UNL     1      -1.199  11.416  23.182  0.00  0.00    +0.000 C 
ATOM      8  C   UNL     1      -0.643  10.063  22.864  0.00  0.00    +0.000 C 
ATOM      9  C   UNL     1       0.256  10.057  21.624  0.00  0.00    +0.000 C 
ATOM     10  C   UNL     1      -0.458  10.784  20.495  0.00  0.00    +0.000 C 
ATOM     11  C   UNL     1       0.143  10.607  19.031  0.00  0.00    +0.000 C 
ATOM     12  C   UNL     1       1.366  11.567  19.014  0.00  0.00    +0.000 C 
ENDROOT
BRANCH   6  13
ATOM     13  C   UNL     1      -1.627  13.726  23.020  0.00  0.00    +0.000 C 
ATOM     14  O   UNL     1      -2.611  14.416  22.850  0.00  0.00    +0.000 OA
BRANCH  13  15
ATOM     15  O   UNL     1      -0.647  14.058  23.900  0.00  0.00    +0.000 OA
ATOM     16  H   UNL     1      -0.549  13.441  24.629  0.00  0.00    +0.000 HD
ENDBRANCH  13  15
ENDBRANCH   6  13
BRANCH   1  17
ATOM     17  C   UNL     1      -1.727  10.104  16.996  0.00  0.00    +0.000 C 
BRANCH  17  18
ATOM     18  O   UNL     1      -3.023   9.582  17.383  0.00  0.00    +0.000 OA
BRANCH  18  20
ATOM     19  C   UNL     1      -4.151  11.017  15.914  0.00  0.00    +0.000 C 
ATOM     20  C   UNL     1      -4.149  10.348  17.236  0.00  0.00    +0.000 C 
ATOM     21  O   UNL     1      -5.013  10.450  18.079  0.00  0.00    +0.000 OA
ENDBRANCH  18  20
ENDBRANCH  17  18
ENDBRANCH   1  17
BRANCH  11  22
ATOM     22  C   UNL     1       0.723   9.313  18.366  0.00  0.00    +0.000 C 
BRANCH  22  23
ATOM     23  C   UNL     1       2.147   9.144  17.801  0.00  0.00    +0.000 C 
BRANCH  23  24
ATOM     24  C   UNL     1       2.708   7.809  18.227  0.00  0.00    +0.000 A 
ATOM     25  C   UNL     1       3.716   7.048  17.568  0.00  0.00    +0.000 A 
ATOM     26  C   UNL     1       3.945   5.940  18.342  0.00  0.00    +0.000 A 
ATOM     27  O   UNL     1       3.151   5.956  19.448  0.00  0.00    +0.000 OA
ATOM     28  C   UNL     1       2.408   7.093  19.372  0.00  0.00    +0.000 A 
ENDBRANCH  23  24
ENDBRANCH  22  23
ENDBRANCH  11  22
TORSDOF 8
ENDMDL
MODEL 3
REMARK VINA RESULT:      -6.5      2.939      8.863
REMARK  Name = 
REMARK  11 active torsions:
REMARK  status: ('A' for Active; 'I' for Inactive)
REMARK    1  A    between atoms: C_1  and  C_2
REMARK    2  A    between atoms: C_2  and  O_4
REMARK    3  A    between atoms: O_4  and  C_5
REMARK    4  A    between atoms: C_5  and  C_6
REMARK    5  A    between atoms: C_9  and  C_10
REMARK    6  A    between atoms: C_11  and  C_12
REMARK    7  A    between atoms: C_12  and  O_14
REMARK    8  A    between atoms: C_19  and  C_20
REMARK    9  A    between atoms: C_19  and  C_21
REMARK   10  A    between atoms: C_21  and  C_22
REMARK   11  A    between atoms: C_22  and  C_23
REMARK                            x       y       z     vdW  Elec       q    Type
REMARK                         _______ _______ _______ _____ _____    ______ ____
ROOT
ATOM      1  C   UNL     1       4.448   6.735  17.528  0.00  0.00    +0.000 C 
ATOM      2  C   UNL     1       4.628   5.526  16.618  0.00  0.00    +0.000 C 
ATOM      3  C   UNL     1       4.530   4.249  17.491  0.00  0.00    +0.000 C 
ATOM      4  C   UNL     1       3.169   4.155  18.285  0.00  0.00    +0.000 C 
ATOM      5  C   UNL     1       2.171   3.726  17.162  0.00  0.00    +0.000 C 
ATOM      6  C   UNL     1       3.034   3.035  19.338  0.00  0.00    +0.000 C 
ATOM      7  C   UNL     1       2.711   3.254  20.631  0.00  0.00    +0.000 C 
ATOM      8  C   UNL     1       2.482   4.588  21.270  0.00  0.00    +0.000 C 
ATOM      9  C   UNL     1       2.052   5.669  20.272  0.00  0.00    +0.000 C 
ATOM     10  C   UNL     1       2.992   5.636  19.077  0.00  0.00    +0.000 C 
ATOM     11  C   UNL     1       2.938   6.880  18.084  0.00  0.00    +0.000 C 
ATOM     12  C   UNL     1       1.671   6.613  17.225  0.00  0.00    +0.000 C 
ENDROOT
BRANCH   6  13
ATOM     13  C   UNL     1       2.850   1.591  18.971  0.00  0.00    +0.000 C 
ATOM     14  O   UNL     1       3.753   0.865  18.608  0.00  0.00    +0.000 OA
BRANCH  13  15
ATOM     15  O   UNL     1       1.570   1.154  19.099  0.00  0.00    +0.000 OA
ATOM     16  H   UNL     1       0.953   1.563  18.488  0.00  0.00    +0.000 HD
ENDBRANCH  13  15
ENDBRANCH   6  13
BRANCH   1  17
ATOM     17  C   UNL     1       5.426   7.909  17.280  0.00  0.00    +0.000 C 
BRANCH  17  18
ATOM     18  O   UNL     1       6.709   7.278  17.044  0.00  0.00    +0.000 OA
BRANCH  18  20
ATOM     19  C   UNL     1       7.793   6.024  18.699  0.00  0.00    +0.000 C 
ATOM     20  C   UNL     1       7.690   7.325  17.999  0.00  0.00    +0.000 C 
ATOM     21  O   UNL     1       8.369   8.303  18.224  0.00  0.00    +0.000 OA
ENDBRANCH  18  20
ENDBRANCH  17  18
ENDBRANCH   1  17
BRANCH  11  22
ATOM     22  C   UNL     1       2.793   8.400  18.435  0.00  0.00    +0.000 C 
BRANCH  22  23
ATOM     23  C   UNL     1       1.676   9.341  17.941  0.00  0.00    +0.000 C 
BRANCH  23  24
ATOM     24  C   UNL     1       0.788   9.726  19.098  0.00  0.00    +0.000 A 
ATOM     25  C   UNL     1       0.820   9.198  20.422  0.00  0.00    +0.000 A 
ATOM     26  C   UNL     1      -0.123   9.882  21.143  0.00  0.00    +0.000 A 
ATOM     27  O   UNL     1      -0.743  10.810  20.364  0.00  0.00    +0.000 OA
ATOM     28  C   UNL     1      -0.183  10.711  19.128  0.00  0.00    +0.000 A 
ENDBRANCH  23  24
ENDBRANCH  22  23
ENDBRANCH  11  22
TORSDOF 8
ENDMDL
MODEL 4
REMARK VINA RESULT:      -6.4      7.684      9.483
REMARK  Name = 
REMARK  11 active torsions:
REMARK  status: ('A' for Active; 'I' for Inactive)
REMARK    1  A    between atoms: C_1  and  C_2
REMARK    2  A    between atoms: C_2  and  O_4
REMARK    3  A    between atoms: O_4  and  C_5
REMARK    4  A    between atoms: C_5  and  C_6
REMARK    5  A    between atoms: C_9  and  C_10
REMARK    6  A    between atoms: C_11  and  C_12
REMARK    7  A    between atoms: C_12  and  O_14
REMARK    8  A    between atoms: C_19  and  C_20
REMARK    9  A    between atoms: C_19  and  C_21
REMARK   10  A    between atoms: C_21  and  C_22
REMARK   11  A    between atoms: C_22  and  C_23
REMARK                            x       y       z     vdW  Elec       q    Type
REMARK                         _______ _______ _______ _____ _____    ______ ____
ROOT
ATOM      1  C   UNL     1       5.322   5.964  17.491  0.00  0.00    +0.000 C 
ATOM      2  C   UNL     1       5.719   5.698  18.938  0.00  0.00    +0.000 C 
ATOM      3  C   UNL     1       4.435   5.352  19.733  0.00  0.00    +0.000 C 
ATOM      4  C   UNL     1       3.659   4.116  19.130  0.00  0.00    +0.000 C 
ATOM      5  C   UNL     1       4.541   2.919  19.609  0.00  0.00    +0.000 C 
ATOM      6  C   UNL     1       2.265   3.797  19.712  0.00  0.00    +0.000 C 
ATOM      7  C   UNL     1       1.145   3.696  18.964  0.00  0.00    +0.000 C 
ATOM      8  C   UNL     1       1.045   3.917  17.487  0.00  0.00    +0.000 C 
ATOM      9  C   UNL     1       2.372   3.692  16.753  0.00  0.00    +0.000 C 
ATOM     10  C   UNL     1       3.472   4.446  17.484  0.00  0.00    +0.000 C 
ATOM     11  C   UNL     1       4.855   4.625  16.715  0.00  0.00    +0.000 C 
ATOM     12  C   UNL     1       5.551   3.245  16.877  0.00  0.00    +0.000 C 
ENDROOT
BRANCH   6  13
ATOM     13  C   UNL     1       2.071   3.181  21.067  0.00  0.00    +0.000 C 
ATOM     14  O   UNL     1       2.370   3.729  22.108  0.00  0.00    +0.000 OA
BRANCH  13  15
ATOM     15  O   UNL     1       1.506   1.947  21.029  0.00  0.00    +0.000 OA
ATOM     16  H   UNL     1       2.134   1.225  21.108  0.00  0.00    +0.000 HD
ENDBRANCH  13  15
ENDBRANCH   6  13
BRANCH   1  17
ATOM     17  C   UNL     1       5.990   7.193  16.828  0.00  0.00    +0.000 C 
BRANCH  17  18
ATOM     18  O   UNL     1       7.410   7.007  17.052  0.00  0.00    +0.000 OA
BRANCH  18  20
ATOM     19  C   UNL     1       8.007   9.180  17.692  0.00  0.00    +0.000 C 
ATOM     20  C   UNL     1       8.060   7.735  18.014  0.00  0.00    +0.000 C 
ATOM     21  O   UNL     1       8.595   7.248  18.985  0.00  0.00    +0.000 OA
ENDBRANCH  18  20
ENDBRANCH  17  18
ENDBRANCH   1  17
BRANCH  11  22
ATOM     22  C   UNL     1       5.092   4.945  15.201  0.00  0.00    +0.000 C 
BRANCH  22  23
ATOM     23  C   UNL     1       6.354   4.595  14.387  0.00  0.00    +0.000 C 
BRANCH  23  24
ATOM     24  C   UNL     1       5.968   3.780  13.177  0.00  0.00    +0.000 A 
ATOM     25  C   UNL     1       4.659   3.600  12.641  0.00  0.00    +0.000 A 
ATOM     26  C   UNL     1       4.796   2.834  11.513  0.00  0.00    +0.000 A 
ATOM     27  O   UNL     1       6.105   2.526  11.299  0.00  0.00    +0.000 OA
ATOM     28  C   UNL     1       6.807   3.105  12.309  0.00  0.00    +0.000 A 
ENDBRANCH  23  24
ENDBRANCH  22  23
ENDBRANCH  11  22
TORSDOF 8
ENDMDL
MODEL 5
REMARK VINA RESULT:      -6.4      2.959      8.867
REMARK  Name = 
REMARK  11 active torsions:
REMARK  status: ('A' for Active; 'I' for Inactive)
REMARK    1  A    between atoms: C_1  and  C_2
REMARK    2  A    between atoms: C_2  and  O_4
REMARK    3  A    between atoms: O_4  and  C_5
REMARK    4  A    between atoms: C_5  and  C_6
REMARK    5  A    between atoms: C_9  and  C_10
REMARK    6  A    between atoms: C_11  and  C_12
REMARK    7  A    between atoms: C_12  and  O_14
REMARK    8  A    between atoms: C_19  and  C_20
REMARK    9  A    between atoms: C_19  and  C_21
REMARK   10  A    between atoms: C_21  and  C_22
REMARK   11  A    between atoms: C_22  and  C_23
REMARK                            x       y       z     vdW  Elec       q    Type
REMARK                         _______ _______ _______ _____ _____    ______ ____
ROOT
ATOM      1  C   UNL     1       4.367   6.760  17.593  0.00  0.00    +0.000 C 
ATOM      2  C   UNL     1       4.559   5.565  16.668  0.00  0.00    +0.000 C 
ATOM      3  C   UNL     1       4.494   4.276  17.528  0.00  0.00    +0.000 C 
ATOM      4  C   UNL     1       3.142   4.149  18.334  0.00  0.00    +0.000 C 
ATOM      5  C   UNL     1       2.142   3.714  17.216  0.00  0.00    +0.000 C 
ATOM      6  C   UNL     1       3.038   3.015  19.376  0.00  0.00    +0.000 C 
ATOM      7  C   UNL     1       2.724   3.214  20.675  0.00  0.00    +0.000 C 
ATOM      8  C   UNL     1       2.477   4.537  21.330  0.00  0.00    +0.000 C 
ATOM      9  C   UNL     1       2.017   5.620  20.348  0.00  0.00    +0.000 C 
ATOM     10  C   UNL     1       2.946   5.618  19.144  0.00  0.00    +0.000 C 
ATOM     11  C   UNL     1       2.860   6.871  18.166  0.00  0.00    +0.000 C 
ATOM     12  C   UNL     1       1.589   6.591  17.316  0.00  0.00    +0.000 C 
ENDROOT
BRANCH   6  13
ATOM     13  C   UNL     1       2.876   1.572  18.994  0.00  0.00    +0.000 C 
ATOM     14  O   UNL     1       3.785   0.872  18.595  0.00  0.00    +0.000 OA
BRANCH  13  15
ATOM     15  O   UNL     1       1.612   1.103  19.155  0.00  0.00    +0.000 OA
ATOM     16  H   UNL     1       1.558   0.277  19.639  0.00  0.00    +0.000 HD
ENDBRANCH  13  15
ENDBRANCH   6  13
BRANCH   1  17
ATOM     17  C   UNL     1       5.320   7.955  17.349  0.00  0.00    +0.000 C 
BRANCH  17  18
ATOM     18  O   UNL     1       6.592   7.349  17.008  0.00  0.00    +0.000 OA
BRANCH  18  20
ATOM     19  C   UNL     1       8.236   8.725  17.953  0.00  0.00    +0.000 C 
ATOM     20  C   UNL     1       7.632   7.374  17.900  0.00  0.00    +0.000 C 
ATOM     21  O   UNL     1       7.990   6.415  18.547  0.00  0.00    +0.000 OA
ENDBRANCH  18  20
ENDBRANCH  17  18
ENDBRANCH   1  17
BRANCH  11  22
ATOM     22  C   UNL     1       2.690   8.384  18.534  0.00  0.00    +0.000 C 
BRANCH  22  23
ATOM     23  C   UNL     1       1.871   9.424  17.744  0.00  0.00    +0.000 C 
BRANCH  23  24
ATOM     24  C   UNL     1       0.753   9.952  18.608  0.00  0.00    +0.000 A 
ATOM     25  C   UNL     1      -0.577  10.266  18.201  0.00  0.00    +0.000 A 
ATOM     26  C   UNL     1      -1.254  10.655  19.327  0.00  0.00    +0.000 A 
ATOM     27  O   UNL     1      -0.441  10.602  20.418  0.00  0.00    +0.000 OA
ATOM     28  C   UNL     1       0.771  10.172  19.974  0.00  0.00    +0.000 A 
ENDBRANCH  23  24
ENDBRANCH  22  23
ENDBRANCH  11  22
TORSDOF 8
ENDMDL
MODEL 6
REMARK VINA RESULT:      -6.4      3.745      9.452
REMARK  Name = 
REMARK  11 active torsions:
REMARK  status: ('A' for Active; 'I' for Inactive)
REMARK    1  A    between atoms: C_1  and  C_2
REMARK    2  A    between atoms: C_2  and  O_4
REMARK    3  A    between atoms: O_4  and  C_5
REMARK    4  A    between atoms: C_5  and  C_6
REMARK    5  A    between atoms: C_9  and  C_10
REMARK    6  A    between atoms: C_11  and  C_12
REMARK    7  A    between atoms: C_12  and  O_14
REMARK    8  A    between atoms: C_19  and  C_20
REMARK    9  A    between atoms: C_19  and  C_21
REMARK   10  A    between atoms: C_21  and  C_22
REMARK   11  A    between atoms: C_22  and  C_23
REMARK                            x       y       z     vdW  Elec       q    Type
REMARK                         _______ _______ _______ _____ _____    ______ ____
ROOT
ATOM      1  C   UNL     1       2.548   3.713  18.280  0.00  0.00    +0.000 C 
ATOM      2  C   UNL     1       3.566   2.665  17.846  0.00  0.00    +0.000 C 
ATOM      3  C   UNL     1       4.273   3.183  16.567  0.00  0.00    +0.000 C 
ATOM      4  C   UNL     1       4.967   4.585  16.779  0.00  0.00    +0.000 C 
ATOM      5  C   UNL     1       6.244   4.192  17.588  0.00  0.00    +0.000 C 
ATOM      6  C   UNL     1       5.532   5.296  15.530  0.00  0.00    +0.000 C 
ATOM      7  C   UNL     1       5.192   6.550  15.162  0.00  0.00    +0.000 C 
ATOM      8  C   UNL     1       4.199   7.434  15.849  0.00  0.00    +0.000 C 
ATOM      9  C   UNL     1       4.005   7.086  17.329  0.00  0.00    +0.000 C 
ATOM     10  C   UNL     1       3.789   5.587  17.458  0.00  0.00    +0.000 C 
ATOM     11  C   UNL     1       3.239   5.056  18.855  0.00  0.00    +0.000 C 
ATOM     12  C   UNL     1       4.493   5.058  19.772  0.00  0.00    +0.000 C 
ENDROOT
BRANCH   6  13
ATOM     13  C   UNL     1       6.785   4.847  14.837  0.00  0.00    +0.000 C 
ATOM     14  O   UNL     1       7.824   5.475  14.843  0.00  0.00    +0.000 OA
BRANCH  13  15
ATOM     15  O   UNL     1       6.662   3.650  14.208  0.00  0.00    +0.000 OA
ATOM     16  H   UNL     1       7.248   3.539  13.456  0.00  0.00    +0.000 HD
ENDBRANCH  13  15
ENDBRANCH   6  13
BRANCH   1  17
ATOM     17  C   UNL     1       1.166   3.164  18.711  0.00  0.00    +0.000 C 
BRANCH  17  18
ATOM     18  O   UNL     1       1.466   2.129  19.681  0.00  0.00    +0.000 OA
BRANCH  18  20
ATOM     19  C   UNL     1       3.102   2.146  21.359  0.00  0.00    +0.000 C 
ATOM     20  C   UNL     1       1.700   2.456  20.991  0.00  0.00    +0.000 C 
ATOM     21  O   UNL     1       0.867   2.933  21.728  0.00  0.00    +0.000 OA
ENDBRANCH  18  20
ENDBRANCH  17  18
ENDBRANCH   1  17
BRANCH  11  22
ATOM     22  C   UNL     1       2.146   5.695  19.777  0.00  0.00    +0.000 C 
BRANCH  22  23
ATOM     23  C   UNL     1       2.378   6.805  20.822  0.00  0.00    +0.000 C 
BRANCH  23  24
ATOM     24  C   UNL     1       1.485   7.983  20.519  0.00  0.00    +0.000 A 
ATOM     25  C   UNL     1       0.491   8.551  21.367  0.00  0.00    +0.000 A 
ATOM     26  C   UNL     1      -0.024   9.633  20.703  0.00  0.00    +0.000 A 
ATOM     27  O   UNL     1       0.585   9.788  19.495  0.00  0.00    +0.000 OA
ATOM     28  C   UNL     1       1.500   8.787  19.393  0.00  0.00    +0.000 A 
ENDBRANCH  23  24
ENDBRANCH  22  23
ENDBRANCH  11  22
TORSDOF 8
ENDMDL
MODEL 7
REMARK VINA RESULT:      -6.3      3.849      7.800
REMARK  Name = 
REMARK  11 active torsions:
REMARK  status: ('A' for Active; 'I' for Inactive)
REMARK    1  A    between atoms: C_1  and  C_2
REMARK    2  A    between atoms: C_2  and  O_4
REMARK    3  A    between atoms: O_4  and  C_5
REMARK    4  A    between atoms: C_5  and  C_6
REMARK    5  A    between atoms: C_9  and  C_10
REMARK    6  A    between atoms: C_11  and  C_12
REMARK    7  A    between atoms: C_12  and  O_14
REMARK    8  A    between atoms: C_19  and  C_20
REMARK    9  A    between atoms: C_19  and  C_21
REMARK   10  A    between atoms: C_21  and  C_22
REMARK   11  A    between atoms: C_22  and  C_23
REMARK                            x       y       z     vdW  Elec       q    Type
REMARK                         _______ _______ _______ _____ _____    ______ ____
ROOT
ATOM      1  C   UNL     1       3.058   6.877  18.115  0.00  0.00    +0.000 C 
ATOM      2  C   UNL     1       2.722   6.971  19.598  0.00  0.00    +0.000 C 
ATOM      3  C   UNL     1       1.963   5.681  20.002  0.00  0.00    +0.000 C 
ATOM      4  C   UNL     1       2.785   4.369  19.696  0.00  0.00    +0.000 C 
ATOM      5  C   UNL     1       3.836   4.372  20.851  0.00  0.00    +0.000 C 
ATOM      6  C   UNL     1       2.060   3.017  19.868  0.00  0.00    +0.000 C 
ATOM      7  C   UNL     1       1.967   2.085  18.895  0.00  0.00    +0.000 C 
ATOM      8  C   UNL     1       2.492   2.210  17.499  0.00  0.00    +0.000 C 
ATOM      9  C   UNL     1       3.655   3.202  17.379  0.00  0.00    +0.000 C 
ATOM     10  C   UNL     1       3.274   4.494  18.084  0.00  0.00    +0.000 C 
ATOM     11  C   UNL     1       4.188   5.766  17.799  0.00  0.00    +0.000 C 
ATOM     12  C   UNL     1       5.440   5.529  18.688  0.00  0.00    +0.000 C 
ENDROOT
BRANCH   6  13
ATOM     13  C   UNL     1       1.740   2.432  21.213  0.00  0.00    +0.000 C 
ATOM     14  O   UNL     1       2.535   1.808  21.886  0.00  0.00    +0.000 OA
BRANCH  13  15
ATOM     15  O   UNL     1       0.471   2.680  21.628  0.00  0.00    +0.000 OA
ATOM     16  H   UNL     1       0.409   3.014  22.525  0.00  0.00    +0.000 HD
ENDBRANCH  13  15
ENDBRANCH   6  13
BRANCH   1  17
ATOM     17  C   UNL     1       2.817   8.166  17.291  0.00  0.00    +0.000 C 
BRANCH  17  18
ATOM     18  O   UNL     1       1.536   8.664  17.751  0.00  0.00    +0.000 OA
BRANCH  18  20
ATOM     19  C   UNL     1       0.117  10.160  18.865  0.00  0.00    +0.000 C 
ATOM     20  C   UNL     1       1.406   9.965  18.161  0.00  0.00    +0.000 C 
ATOM     21  O   UNL     1       2.240  10.821  17.968  0.00  0.00    +0.000 OA
ENDBRANCH  18  20
ENDBRANCH  17  18
ENDBRANCH   1  17
BRANCH  11  22
ATOM     22  C   UNL     1       4.822   6.225  16.442  0.00  0.00    +0.000 C 
BRANCH  22  23
ATOM     23  C   UNL     1       6.289   6.027  16.014  0.00  0.00    +0.000 C 
BRANCH  23  24
ATOM     24  C   UNL     1       6.349   5.125  14.805  0.00  0.00    +0.000 A 
ATOM     25  C   UNL     1       5.351   4.208  14.365  0.00  0.00    +0.000 A 
ATOM     26  C   UNL     1       5.810   3.653  13.200  0.00  0.00    +0.000 A 
ATOM     27  O   UNL     1       7.029   4.164  12.874  0.00  0.00    +0.000 OA
ATOM     28  C   UNL     1       7.346   5.057  13.849  0.00  0.00    +0.000 A 
ENDBRANCH  23  24
ENDBRANCH  22  23
ENDBRANCH  11  22
TORSDOF 8
ENDMDL
MODEL 8
REMARK VINA RESULT:      -6.3      0.916      1.380
REMARK  Name = 
REMARK  11 active torsions:
REMARK  status: ('A' for Active; 'I' for Inactive)
REMARK    1  A    between atoms: C_1  and  C_2
REMARK    2  A    between atoms: C_2  and  O_4
REMARK    3  A    between atoms: O_4  and  C_5
REMARK    4  A    between atoms: C_5  and  C_6
REMARK    5  A    between atoms: C_9  and  C_10
REMARK    6  A    between atoms: C_11  and  C_12
REMARK    7  A    between atoms: C_12  and  O_14
REMARK    8  A    between atoms: C_19  and  C_20
REMARK    9  A    between atoms: C_19  and  C_21
REMARK   10  A    between atoms: C_21  and  C_22
REMARK   11  A    between atoms: C_22  and  C_23
REMARK                            x       y       z     vdW  Elec       q    Type
REMARK                         _______ _______ _______ _____ _____    ______ ____
ROOT
ATOM      1  C   UNL     1      -0.979  10.722  18.445  0.00  0.00    +0.000 C 
ATOM      2  C   UNL     1      -1.602  12.109  18.365  0.00  0.00    +0.000 C 
ATOM      3  C   UNL     1      -2.266  12.417  19.732  0.00  0.00    +0.000 C 
ATOM      4  C   UNL     1      -1.251  12.328  20.937  0.00  0.00    +0.000 C 
ATOM      5  C   UNL     1      -0.449  13.659  20.781  0.00  0.00    +0.000 C 
ATOM      6  C   UNL     1      -1.830  12.417  22.365  0.00  0.00    +0.000 C 
ATOM      7  C   UNL     1      -1.622  11.485  23.320  0.00  0.00    +0.000 C 
ATOM      8  C   UNL     1      -0.857  10.209  23.157  0.00  0.00    +0.000 C 
ATOM      9  C   UNL     1       0.181  10.268  22.030  0.00  0.00    +0.000 C 
ATOM     10  C   UNL     1      -0.479  10.833  20.783  0.00  0.00    +0.000 C 
ATOM     11  C   UNL     1       0.315  10.672  19.412  0.00  0.00    +0.000 C 
ATOM     12  C   UNL     1       1.392  11.791  19.474  0.00  0.00    +0.000 C 
ENDROOT
BRANCH   6  13
ATOM     13  C   UNL     1      -2.331  13.701  22.960  0.00  0.00    +0.000 C 
ATOM     14  O   UNL     1      -3.344  14.264  22.599  0.00  0.00    +0.000 OA
BRANCH  13  15
ATOM     15  O   UNL     1      -1.552  14.176  23.966  0.00  0.00    +0.000 OA
ATOM     16  H   UNL     1      -1.024  13.506  24.404  0.00  0.00    +0.000 HD
ENDBRANCH  13  15
ENDBRANCH   6  13
BRANCH   1  17
ATOM     17  C   UNL     1      -1.207   9.814  17.212  0.00  0.00    +0.000 C 
BRANCH  17  18
ATOM     18  O   UNL     1      -2.646   9.786  17.036  0.00  0.00    +0.000 OA
BRANCH  18  20
ATOM     19  C   UNL     1      -4.387  11.156  16.272  0.00  0.00    +0.000 C 
ATOM     20  C   UNL     1      -3.216  10.323  15.911  0.00  0.00    +0.000 C 
ATOM     21  O   UNL     1      -2.803  10.135  14.788  0.00  0.00    +0.000 OA
ENDBRANCH  18  20
ENDBRANCH  17  18
ENDBRANCH   1  17
BRANCH  11  22
ATOM     22  C   UNL     1       1.139   9.440  18.903  0.00  0.00    +0.000 C 
BRANCH  22  23
ATOM     23  C   UNL     1       1.545   8.212  19.742  0.00  0.00    +0.000 C 
BRANCH  23  24
ATOM     24  C   UNL     1       2.524   7.367  18.964  0.00  0.00    +0.000 A 
ATOM     25  C   UNL     1       3.181   7.711  17.747  0.00  0.00    +0.000 A 
ATOM     26  C   UNL     1       4.017   6.669  17.442  0.00  0.00    +0.000 A 
ATOM     27  O   UNL     1       3.935   5.695  18.389  0.00  0.00    +0.000 OA
ATOM     28  C   UNL     1       3.031   6.127  19.309  0.00  0.00    +0.000 A 
ENDBRANCH  23  24
ENDBRANCH  22  23
ENDBRANCH  11  22
TORSDOF 8
ENDMDL
MODEL 9
REMARK VINA RESULT:      -6.3      0.804      1.126
REMARK  Name = 
REMARK  11 active torsions:
REMARK  status: ('A' for Active; 'I' for Inactive)
REMARK    1  A    between atoms: C_1  and  C_2
REMARK    2  A    between atoms: C_2  and  O_4
REMARK    3  A    between atoms: O_4  and  C_5
REMARK    4  A    between atoms: C_5  and  C_6
REMARK    5  A    between atoms: C_9  and  C_10
REMARK    6  A    between atoms: C_11  and  C_12
REMARK    7  A    between atoms: C_12  and  O_14
REMARK    8  A    between atoms: C_19  and  C_20
REMARK    9  A    between atoms: C_19  and  C_21
REMARK   10  A    between atoms: C_21  and  C_22
REMARK   11  A    between atoms: C_22  and  C_23
REMARK                            x       y       z     vdW  Elec       q    Type
REMARK                         _______ _______ _______ _____ _____    ______ ____
ROOT
ATOM      1  C   UNL     1      -1.172  10.688  18.364  0.00  0.00    +0.000 C 
ATOM      2  C   UNL     1      -1.737  12.102  18.373  0.00  0.00    +0.000 C 
ATOM      3  C   UNL     1      -2.244  12.408  19.805  0.00  0.00    +0.000 C 
ATOM      4  C   UNL     1      -1.117  12.250  20.899  0.00  0.00    +0.000 C 
ATOM      5  C   UNL     1      -0.276  13.549  20.684  0.00  0.00    +0.000 C 
ATOM      6  C   UNL     1      -1.543  12.334  22.380  0.00  0.00    +0.000 C 
ATOM      7  C   UNL     1      -1.282  11.372  23.292  0.00  0.00    +0.000 C 
ATOM      8  C   UNL     1      -0.595  10.069  23.030  0.00  0.00    +0.000 C 
ATOM      9  C   UNL     1       0.325  10.108  21.804  0.00  0.00    +0.000 C 
ATOM     10  C   UNL     1      -0.433  10.727  20.640  0.00  0.00    +0.000 C 
ATOM     11  C   UNL     1       0.210  10.562  19.193  0.00  0.00    +0.000 C 
ATOM     12  C   UNL     1       1.336  11.632  19.163  0.00  0.00    +0.000 C 
ENDROOT
BRANCH   6  13
ATOM     13  C   UNL     1      -1.923  13.624  23.045  0.00  0.00    +0.000 C 
ATOM     14  O   UNL     1      -2.968  14.208  22.843  0.00  0.00    +0.000 OA
BRANCH  13  15
ATOM     15  O   UNL     1      -0.991  14.082  23.921  0.00  0.00    +0.000 OA
ATOM     16  H   UNL     1      -0.730  13.441  24.586  0.00  0.00    +0.000 HD
ENDBRANCH  13  15
ENDBRANCH   6  13
BRANCH   1  17
ATOM     17  C   UNL     1      -1.565   9.817  17.146  0.00  0.00    +0.000 C 
BRANCH  17  18
ATOM     18  O   UNL     1      -2.068  10.759  16.166  0.00  0.00    +0.000 OA
BRANCH  18  20
ATOM     19  C   UNL     1      -3.269  10.103  14.264  0.00  0.00    +0.000 C 
ATOM     20  C   UNL     1      -3.330  10.617  15.653  0.00  0.00    +0.000 C 
ATOM     21  O   UNL     1      -4.342  10.876  16.265  0.00  0.00    +0.000 OA
ENDBRANCH  18  20
ENDBRANCH  17  18
ENDBRANCH   1  17
BRANCH  11  22
ATOM     22  C   UNL     1       0.922   9.308  18.581  0.00  0.00    +0.000 C 
BRANCH  22  23
ATOM     23  C   UNL     1       1.506   8.120  19.373  0.00  0.00    +0.000 C 
BRANCH  23  24
ATOM     24  C   UNL     1       2.543   7.413  18.536  0.00  0.00    +0.000 A 
ATOM     25  C   UNL     1       2.830   6.017  18.519  0.00  0.00    +0.000 A 
ATOM     26  C   UNL     1       3.800   5.825  17.570  0.00  0.00    +0.000 A 
ATOM     27  O   UNL     1       4.138   7.006  16.984  0.00  0.00    +0.000 OA
ATOM     28  C   UNL     1       3.369   7.962  17.572  0.00  0.00    +0.000 A 
ENDBRANCH  23  24
ENDBRANCH  22  23
ENDBRANCH  11  22
TORSDOF 8
ENDMDL
