MODEL 1
REMARK VINA RESULT:      -7.5      0.000      0.000
REMARK  Name = 
REMARK  6 active torsions:
REMARK  status: ('A' for Active; 'I' for Inactive)
REMARK    1  A    between atoms: C_1  and  C_2
REMARK    2  A    between atoms: C_2  and  C_3
REMARK    3  A    between atoms: C_2  and  C_4
REMARK    4  A    between atoms: C_12  and  C_13
REMARK    5  A    between atoms: C_13  and  N_14
REMARK    6  A    between atoms: N_17  and  C_18
REMARK                            x       y       z     vdW  Elec       q    Type
REMARK                         _______ _______ _______ _____ _____    ______ ____
ROOT
ATOM      1  C   UNL     1       4.828   5.333  16.962  0.00  0.00    +0.000 A 
ATOM      2  C   UNL     1       4.801   3.931  17.006  0.00  0.00    +0.000 A 
ATOM      3  C   UNL     1       3.955   3.282  17.891  0.00  0.00    +0.000 A 
ATOM      4  C   UNL     1       3.149   4.038  18.741  0.00  0.00    +0.000 A 
ATOM      5  O   UNL     1       2.380   3.290  19.650  0.00  0.00    +0.000 OA
ATOM      6  C   UNL     1       1.695   3.925  20.662  0.00  0.00    +0.000 A 
ATOM      7  O   UNL     1       1.160   3.311  21.578  0.00  0.00    +0.000 OA
ATOM      8  C   UNL     1       1.620   5.392  20.602  0.00  0.00    +0.000 A 
ATOM      9  C   UNL     1       2.264   6.151  19.698  0.00  0.00    +0.000 A 
ATOM     10  C   UNL     1       3.131   5.439  18.734  0.00  0.00    +0.000 A 
ATOM     11  C   UNL     1       3.981   6.074  17.819  0.00  0.00    +0.000 A 
ENDROOT
BRANCH   1  13
ATOM     12  C   UNL     1       7.053   6.467  16.734  0.00  0.00    +0.000 C 
ATOM     13  C   UNL     1       5.789   6.015  16.006  0.00  0.00    +0.000 C 
ATOM     14  C   UNL     1       6.101   5.116  14.807  0.00  0.00    +0.000 C 
ENDBRANCH   1  13
BRANCH   9  15
ATOM     15  C   UNL     1       2.197   7.672  19.817  0.00  0.00    +0.000 C 
BRANCH  15  16
ATOM     16  N   UNL     1       1.029   8.341  19.230  0.00  0.00    +0.000 NA
ATOM     17  C   UNL     1       0.349   9.292  20.139  0.00  0.00    +0.000 C 
ATOM     18  C   UNL     1       1.094  10.622  20.425  0.00  0.00    +0.000 C 
ATOM     19  N   UNL     1       1.454  11.310  19.173  0.00  0.00    +0.000 N 
ATOM     20  C   UNL     1       2.115  10.455  18.165  0.00  0.00    +0.000 C 
ATOM     21  C   UNL     1       1.389   9.089  17.994  0.00  0.00    +0.000 C 
BRANCH  19  22
ATOM     22  C   UNL     1       1.930  12.630  19.244  0.00  0.00    +0.000 A 
ATOM     23  C   UNL     1       1.823  13.439  20.387  0.00  0.00    +0.000 A 
ATOM     24  C   UNL     1       2.272  14.771  20.392  0.00  0.00    +0.000 A 
ATOM     25  C   UNL     1       2.828  15.327  19.247  0.00  0.00    +0.000 A 
ATOM     26  C   UNL     1       2.945  14.550  18.102  0.00  0.00    +0.000 A 
ATOM     27  C   UNL     1       2.507  13.222  18.109  0.00  0.00    +0.000 A 
ENDBRANCH  19  22
ENDBRANCH  15  16
ENDBRANCH   9  15
TORSDOF 4
ENDMDL
MODEL 2
REMARK VINA RESULT:      -7.5      3.479      6.043
REMARK  Name = 
REMARK  6 active torsions:
REMARK  status: ('A' for Active; 'I' for Inactive)
REMARK    1  A    between atoms: C_1  and  C_2
REMARK    2  A    between atoms: C_2  and  C_3
REMARK    3  A    between atoms: C_2  and  C_4
REMARK    4  A    between atoms: C_12  and  C_13
REMARK    5  A    between atoms: C_13  and  N_14
REMARK    6  A    between atoms: N_17  and  C_18
REMARK                            x       y       z     vdW  Elec       q    Type
REMARK                         _______ _______ _______ _____ _____    ______ ____
ROOT
ATOM      1  C   UNL     1       6.103   3.635  12.524  0.00  0.00    +0.000 A 
ATOM      2  C   UNL     1       7.241   4.421  12.289  0.00  0.00    +0.000 A 
ATOM      3  C   UNL     1       7.794   5.165  13.318  0.00  0.00    +0.000 A 
ATOM      4  C   UNL     1       7.198   5.133  14.578  0.00  0.00    +0.000 A 
ATOM      5  O   UNL     1       7.789   5.975  15.536  0.00  0.00    +0.000 OA
ATOM      6  C   UNL     1       7.178   6.175  16.753  0.00  0.00    +0.000 A 
ATOM      7  O   UNL     1       7.556   7.030  17.545  0.00  0.00    +0.000 OA
ATOM      8  C   UNL     1       6.037   5.307  17.079  0.00  0.00    +0.000 A 
ATOM      9  C   UNL     1       5.489   4.419  16.231  0.00  0.00    +0.000 A 
ATOM     10  C   UNL     1       6.067   4.360  14.871  0.00  0.00    +0.000 A 
ATOM     11  C   UNL     1       5.534   3.602  13.820  0.00  0.00    +0.000 A 
ENDROOT
BRANCH   1  13
ATOM     12  C   UNL     1       5.922   1.388  11.425  0.00  0.00    +0.000 C 
ATOM     13  C   UNL     1       5.501   2.856  11.369  0.00  0.00    +0.000 C 
ATOM     14  C   UNL     1       3.981   3.022  11.329  0.00  0.00    +0.000 C 
ENDBRANCH   1  13
BRANCH   9  15
ATOM     15  C   UNL     1       4.232   3.662  16.653  0.00  0.00    +0.000 C 
BRANCH  15  16
ATOM     16  N   UNL     1       4.034   3.437  18.091  0.00  0.00    +0.000 NA
ATOM     17  C   UNL     1       4.731   4.410  18.962  0.00  0.00    +0.000 C 
ATOM     18  C   UNL     1       4.140   5.845  19.002  0.00  0.00    +0.000 C 
ATOM     19  N   UNL     1       2.707   5.819  19.340  0.00  0.00    +0.000 N 
ATOM     20  C   UNL     1       1.902   4.859  18.556  0.00  0.00    +0.000 C 
ATOM     21  C   UNL     1       2.592   3.467  18.457  0.00  0.00    +0.000 C 
BRANCH  19  22
ATOM     22  C   UNL     1       2.066   7.033  19.640  0.00  0.00    +0.000 A 
ATOM     23  C   UNL     1       1.982   8.114  18.748  0.00  0.00    +0.000 A 
ATOM     24  C   UNL     1       1.373   9.326  19.114  0.00  0.00    +0.000 A 
ATOM     25  C   UNL     1       0.842   9.488  20.387  0.00  0.00    +0.000 A 
ATOM     26  C   UNL     1       0.911   8.435  21.291  0.00  0.00    +0.000 A 
ATOM     27  C   UNL     1       1.509   7.228  20.915  0.00  0.00    +0.000 A 
ENDBRANCH  19  22
ENDBRANCH  15  16
ENDBRANCH   9  15
TORSDOF 4
ENDMDL
MODEL 3
REMARK VINA RESULT:      -7.4      2.505      3.185
REMARK  Name = 
REMARK  6 active torsions:
REMARK  status: ('A' for Active; 'I' for Inactive)
REMARK    1  A    between atoms: C_1  and  C_2
REMARK    2  A    between atoms: C_2  and  C_3
REMARK    3  A    between atoms: C_2  and  C_4
REMARK    4  A    between atoms: C_12  and  C_13
REMARK    5  A    between atoms: C_13  and  N_14
REMARK    6  A    between atoms: N_17  and  C_18
REMARK                            x       y       z     vdW  Elec       q    Type
REMARK                         _______ _______ _______ _____ _____    ______ ____
ROOT
ATOM      1  C   UNL     1       4.822   5.702  17.823  0.00  0.00    +0.000 A 
ATOM      2  C   UNL     1       5.408   4.438  17.982  0.00  0.00    +0.000 A 
ATOM      3  C   UNL     1       4.834   3.510  18.836  0.00  0.00    +0.000 A 
ATOM      4  C   UNL     1       3.681   3.855  19.541  0.00  0.00    +0.000 A 
ATOM      5  O   UNL     1       3.216   2.874  20.434  0.00  0.00    +0.000 OA
ATOM      6  C   UNL     1       2.205   3.171  21.321  0.00  0.00    +0.000 A 
ATOM      7  O   UNL     1       1.889   2.414  22.232  0.00  0.00    +0.000 OA
ATOM      8  C   UNL     1       1.501   4.447  21.131  0.00  0.00    +0.000 A 
ATOM      9  C   UNL     1       1.850   5.382  20.230  0.00  0.00    +0.000 A 
ATOM     10  C   UNL     1       3.050   5.099  19.414  0.00  0.00    +0.000 A 
ATOM     11  C   UNL     1       3.638   6.016  18.532  0.00  0.00    +0.000 A 
ENDROOT
BRANCH   1  13
ATOM     12  C   UNL     1       6.953   6.915  17.301  0.00  0.00    +0.000 C 
ATOM     13  C   UNL     1       5.492   6.708  16.906  0.00  0.00    +0.000 C 
ATOM     14  C   UNL     1       5.341   6.299  15.439  0.00  0.00    +0.000 C 
ENDBRANCH   1  13
BRANCH   9  15
ATOM     15  C   UNL     1       1.107   6.716  20.214  0.00  0.00    +0.000 C 
BRANCH  15  16
ATOM     16  N   UNL     1       1.904   7.932  20.427  0.00  0.00    +0.000 NA
ATOM     17  C   UNL     1       1.587   9.040  19.497  0.00  0.00    +0.000 C 
ATOM     18  C   UNL     1       0.235   9.765  19.727  0.00  0.00    +0.000 C 
ATOM     19  N   UNL     1       0.115  10.239  21.116  0.00  0.00    +0.000 N 
ATOM     20  C   UNL     1       0.438   9.228  22.145  0.00  0.00    +0.000 C 
ATOM     21  C   UNL     1       1.747   8.455  21.811  0.00  0.00    +0.000 C 
BRANCH  19  22
ATOM     22  C   UNL     1      -0.939  11.109  21.440  0.00  0.00    +0.000 A 
ATOM     23  C   UNL     1      -1.616  11.902  20.500  0.00  0.00    +0.000 A 
ATOM     24  C   UNL     1      -2.633  12.793  20.883  0.00  0.00    +0.000 A 
ATOM     25  C   UNL     1      -2.987  12.919  22.220  0.00  0.00    +0.000 A 
ATOM     26  C   UNL     1      -2.334  12.147  23.172  0.00  0.00    +0.000 A 
ATOM     27  C   UNL     1      -1.331  11.255  22.782  0.00  0.00    +0.000 A 
ENDBRANCH  19  22
ENDBRANCH  15  16
ENDBRANCH   9  15
TORSDOF 4
ENDMDL
MODEL 4
REMARK VINA RESULT:      -7.3      2.427      3.008
REMARK  Name = 
REMARK  6 active torsions:
REMARK  status: ('A' for Active; 'I' for Inactive)
REMARK    1  A    between atoms: C_1  and  C_2
REMARK    2  A    between atoms: C_2  and  C_3
REMARK    3  A    between atoms: C_2  and  C_4
REMARK    4  A    between atoms: C_12  and  C_13
REMARK    5  A    between atoms: C_13  and  N_14
REMARK    6  A    between atoms: N_17  and  C_18
REMARK                            x       y       z     vdW  Elec       q    Type
REMARK                         _______ _______ _______ _____ _____    ______ ____
ROOT
ATOM      1  C   UNL     1       4.383   5.116  17.236  0.00  0.00    +0.000 A 
ATOM      2  C   UNL     1       4.881   3.822  17.448  0.00  0.00    +0.000 A 
ATOM      3  C   UNL     1       4.334   3.023  18.439  0.00  0.00    +0.000 A 
ATOM      4  C   UNL     1       3.300   3.527  19.227  0.00  0.00    +0.000 A 
ATOM      5  O   UNL     1       2.861   2.669  20.251  0.00  0.00    +0.000 OA
ATOM      6  C   UNL     1       1.984   3.127  21.208  0.00  0.00    +0.000 A 
ATOM      7  O   UNL     1       1.713   2.480  22.213  0.00  0.00    +0.000 OA
ATOM      8  C   UNL     1       1.368   4.441  20.977  0.00  0.00    +0.000 A 
ATOM      9  C   UNL     1       1.686   5.264  19.962  0.00  0.00    +0.000 A 
ATOM     10  C   UNL     1       2.760   4.808  19.054  0.00  0.00    +0.000 A 
ATOM     11  C   UNL     1       3.316   5.592  18.034  0.00  0.00    +0.000 A 
ENDROOT
BRANCH   1  13
ATOM     12  C   UNL     1       6.071   6.912  16.771  0.00  0.00    +0.000 C 
ATOM     13  C   UNL     1       5.024   5.978  16.165  0.00  0.00    +0.000 C 
ATOM     14  C   UNL     1       5.599   5.117  15.038  0.00  0.00    +0.000 C 
ENDBRANCH   1  13
BRANCH   9  15
ATOM     15  C   UNL     1       1.055   6.653  19.902  0.00  0.00    +0.000 C 
BRANCH  15  16
ATOM     16  N   UNL     1       1.908   7.794  20.260  0.00  0.00    +0.000 NA
ATOM     17  C   UNL     1       1.687   9.004  19.435  0.00  0.00    +0.000 C 
ATOM     18  C   UNL     1       0.368   9.780  19.692  0.00  0.00    +0.000 C 
ATOM     19  N   UNL     1       0.222  10.122  21.118  0.00  0.00    +0.000 N 
ATOM     20  C   UNL     1       0.450   8.999  22.051  0.00  0.00    +0.000 C 
ATOM     21  C   UNL     1       1.728   8.189  21.683  0.00  0.00    +0.000 C 
BRANCH  19  22
ATOM     22  C   UNL     1      -0.796  11.015  21.493  0.00  0.00    +0.000 A 
ATOM     23  C   UNL     1      -1.255  11.169  22.811  0.00  0.00    +0.000 A 
ATOM     24  C   UNL     1      -2.310  12.041  23.127  0.00  0.00    +0.000 A 
ATOM     25  C   UNL     1      -2.939  12.771  22.127  0.00  0.00    +0.000 A 
ATOM     26  C   UNL     1      -2.506  12.639  20.814  0.00  0.00    +0.000 A 
ATOM     27  C   UNL     1      -1.448  11.778  20.509  0.00  0.00    +0.000 A 
ENDBRANCH  19  22
ENDBRANCH  15  16
ENDBRANCH   9  15
TORSDOF 4
ENDMDL
MODEL 5
REMARK VINA RESULT:      -7.3      3.355      5.823
REMARK  Name = 
REMARK  6 active torsions:
REMARK  status: ('A' for Active; 'I' for Inactive)
REMARK    1  A    between atoms: C_1  and  C_2
REMARK    2  A    between atoms: C_2  and  C_3
REMARK    3  A    between atoms: C_2  and  C_4
REMARK    4  A    between atoms: C_12  and  C_13
REMARK    5  A    between atoms: C_13  and  N_14
REMARK    6  A    between atoms: N_17  and  C_18
REMARK                            x       y       z     vdW  Elec       q    Type
REMARK                         _______ _______ _______ _____ _____    ______ ____
ROOT
ATOM      1  C   UNL     1       6.092   3.727  12.605  0.00  0.00    +0.000 A 
ATOM      2  C   UNL     1       7.206   4.547  12.374  0.00  0.00    +0.000 A 
ATOM      3  C   UNL     1       7.766   5.265  13.419  0.00  0.00    +0.000 A 
ATOM      4  C   UNL     1       7.201   5.172  14.690  0.00  0.00    +0.000 A 
ATOM      5  O   UNL     1       7.794   5.991  15.665  0.00  0.00    +0.000 OA
ATOM      6  C   UNL     1       7.207   6.130  16.903  0.00  0.00    +0.000 A 
ATOM      7  O   UNL     1       7.584   6.964  17.718  0.00  0.00    +0.000 OA
ATOM      8  C   UNL     1       6.094   5.224  17.221  0.00  0.00    +0.000 A 
ATOM      9  C   UNL     1       5.547   4.356  16.352  0.00  0.00    +0.000 A 
ATOM     10  C   UNL     1       6.094   4.362  14.978  0.00  0.00    +0.000 A 
ATOM     11  C   UNL     1       5.555   3.632  13.911  0.00  0.00    +0.000 A 
ENDROOT
BRANCH   1  13
ATOM     12  C   UNL     1       5.855   1.497  11.482  0.00  0.00    +0.000 C 
ATOM     13  C   UNL     1       5.482   2.978  11.435  0.00  0.00    +0.000 C 
ATOM     14  C   UNL     1       3.968   3.191  11.377  0.00  0.00    +0.000 C 
ENDBRANCH   1  13
BRANCH   9  15
ATOM     15  C   UNL     1       4.317   3.554  16.773  0.00  0.00    +0.000 C 
BRANCH  15  16
ATOM     16  N   UNL     1       4.017   3.490  18.209  0.00  0.00    +0.000 NA
ATOM     17  C   UNL     1       4.717   4.508  19.025  0.00  0.00    +0.000 C 
ATOM     18  C   UNL     1       4.214   5.969  18.882  0.00  0.00    +0.000 C 
ATOM     19  N   UNL     1       2.763   6.058  19.122  0.00  0.00    +0.000 N 
ATOM     20  C   UNL     1       1.952   5.068  18.384  0.00  0.00    +0.000 C 
ATOM     21  C   UNL     1       2.559   3.637  18.471  0.00  0.00    +0.000 C 
BRANCH  19  22
ATOM     22  C   UNL     1       2.182   7.330  19.255  0.00  0.00    +0.000 A 
ATOM     23  C   UNL     1       1.622   7.813  20.449  0.00  0.00    +0.000 A 
ATOM     24  C   UNL     1       1.008   9.074  20.518  0.00  0.00    +0.000 A 
ATOM     25  C   UNL     1       0.929   9.878  19.387  0.00  0.00    +0.000 A 
ATOM     26  C   UNL     1       1.473   9.425  18.193  0.00  0.00    +0.000 A 
ATOM     27  C   UNL     1       2.093   8.174  18.135  0.00  0.00    +0.000 A 
ENDBRANCH  19  22
ENDBRANCH  15  16
ENDBRANCH   9  15
TORSDOF 4
ENDMDL
MODEL 6
REMARK VINA RESULT:      -7.2      5.213      8.749
REMARK  Name = 
REMARK  6 active torsions:
REMARK  status: ('A' for Active; 'I' for Inactive)
REMARK    1  A    between atoms: C_1  and  C_2
REMARK    2  A    between atoms: C_2  and  C_3
REMARK    3  A    between atoms: C_2  and  C_4
REMARK    4  A    between atoms: C_12  and  C_13
REMARK    5  A    between atoms: C_13  and  N_14
REMARK    6  A    between atoms: N_17  and  C_18
REMARK                            x       y       z     vdW  Elec       q    Type
REMARK                         _______ _______ _______ _____ _____    ______ ____
ROOT
ATOM      1  C   UNL     1      -3.945  10.879  17.752  0.00  0.00    +0.000 A 
ATOM      2  C   UNL     1      -5.324  10.715  17.948  0.00  0.00    +0.000 A 
ATOM      3  C   UNL     1      -5.964  11.396  18.971  0.00  0.00    +0.000 A 
ATOM      4  C   UNL     1      -5.219  12.227  19.807  0.00  0.00    +0.000 A 
ATOM      5  O   UNL     1      -5.943  12.816  20.857  0.00  0.00    +0.000 OA
ATOM      6  C   UNL     1      -5.283  13.499  21.854  0.00  0.00    +0.000 A 
ATOM      7  O   UNL     1      -5.847  13.874  22.876  0.00  0.00    +0.000 OA
ATOM      8  C   UNL     1      -3.855  13.774  21.645  0.00  0.00    +0.000 A 
ATOM      9  C   UNL     1      -3.134  13.310  20.609  0.00  0.00    +0.000 A 
ATOM     10  C   UNL     1      -3.842  12.433  19.651  0.00  0.00    +0.000 A 
ATOM     11  C   UNL     1      -3.219  11.749  18.599  0.00  0.00    +0.000 A 
ENDROOT
BRANCH   1  13
ATOM     12  C   UNL     1      -3.434  10.801  15.298  0.00  0.00    +0.000 C 
ATOM     13  C   UNL     1      -3.267  10.096  16.643  0.00  0.00    +0.000 C 
ATOM     14  C   UNL     1      -1.798   9.829  16.978  0.00  0.00    +0.000 C 
ENDBRANCH   1  13
BRANCH   9  15
ATOM     15  C   UNL     1      -1.630  13.570  20.571  0.00  0.00    +0.000 C 
BRANCH  15  16
ATOM     16  N   UNL     1      -0.817  12.969  21.636  0.00  0.00    +0.000 NA
ATOM     17  C   UNL     1      -1.159  11.563  21.946  0.00  0.00    +0.000 C 
ATOM     18  C   UNL     1      -0.740  10.504  20.891  0.00  0.00    +0.000 C 
ATOM     19  N   UNL     1       0.696  10.604  20.580  0.00  0.00    +0.000 N 
ATOM     20  C   UNL     1       1.172  11.972  20.281  0.00  0.00    +0.000 C 
ATOM     21  C   UNL     1       0.634  13.011  21.309  0.00  0.00    +0.000 C 
BRANCH  19  22
ATOM     22  C   UNL     1       1.291   9.584  19.819  0.00  0.00    +0.000 A 
ATOM     23  C   UNL     1       1.556   9.687  18.444  0.00  0.00    +0.000 A 
ATOM     24  C   UNL     1       2.108   8.619  17.717  0.00  0.00    +0.000 A 
ATOM     25  C   UNL     1       2.396   7.416  18.350  0.00  0.00    +0.000 A 
ATOM     26  C   UNL     1       2.144   7.285  19.709  0.00  0.00    +0.000 A 
ATOM     27  C   UNL     1       1.605   8.357  20.427  0.00  0.00    +0.000 A 
ENDBRANCH  19  22
ENDBRANCH  15  16
ENDBRANCH   9  15
TORSDOF 4
ENDMDL
MODEL 7
REMARK VINA RESULT:      -7.2      2.899      4.960
REMARK  Name = 
REMARK  6 active torsions:
REMARK  status: ('A' for Active; 'I' for Inactive)
REMARK    1  A    between atoms: C_1  and  C_2
REMARK    2  A    between atoms: C_2  and  C_3
REMARK    3  A    between atoms: C_2  and  C_4
REMARK    4  A    between atoms: C_12  and  C_13
REMARK    5  A    between atoms: C_13  and  N_14
REMARK    6  A    between atoms: N_17  and  C_18
REMARK                            x       y       z     vdW  Elec       q    Type
REMARK                         _______ _______ _______ _____ _____    ______ ____
ROOT
ATOM      1  C   UNL     1       2.242   3.863  19.610  0.00  0.00    +0.000 A 
ATOM      2  C   UNL     1       3.434   3.142  19.447  0.00  0.00    +0.000 A 
ATOM      3  C   UNL     1       4.530   3.743  18.849  0.00  0.00    +0.000 A 
ATOM      4  C   UNL     1       4.426   5.060  18.403  0.00  0.00    +0.000 A 
ATOM      5  O   UNL     1       5.566   5.556  17.747  0.00  0.00    +0.000 OA
ATOM      6  C   UNL     1       5.517   6.769  17.097  0.00  0.00    +0.000 A 
ATOM      7  O   UNL     1       6.421   7.158  16.366  0.00  0.00    +0.000 OA
ATOM      8  C   UNL     1       4.324   7.598  17.316  0.00  0.00    +0.000 A 
ATOM      9  C   UNL     1       3.241   7.206  18.012  0.00  0.00    +0.000 A 
ATOM     10  C   UNL     1       3.263   5.828  18.548  0.00  0.00    +0.000 A 
ATOM     11  C   UNL     1       2.173   5.207  19.170  0.00  0.00    +0.000 A 
ENDROOT
BRANCH   1  13
ATOM     12  C   UNL     1       0.487   2.098  19.303  0.00  0.00    +0.000 C 
ATOM     13  C   UNL     1       1.048   3.168  20.239  0.00  0.00    +0.000 C 
ATOM     14  C   UNL     1       1.404   2.604  21.616  0.00  0.00    +0.000 C 
ENDBRANCH   1  13
BRANCH   9  15
ATOM     15  C   UNL     1       2.018   8.119  18.067  0.00  0.00    +0.000 C 
BRANCH  15  16
ATOM     16  N   UNL     1       2.099   9.299  18.938  0.00  0.00    +0.000 NA
ATOM     17  C   UNL     1       1.814  10.582  18.256  0.00  0.00    +0.000 C 
ATOM     18  C   UNL     1       0.334  10.842  17.871  0.00  0.00    +0.000 C 
ATOM     19  N   UNL     1      -0.552  10.698  19.038  0.00  0.00    +0.000 N 
ATOM     20  C   UNL     1      -0.344   9.465  19.825  0.00  0.00    +0.000 C 
ATOM     21  C   UNL     1       1.166   9.193  20.092  0.00  0.00    +0.000 C 
BRANCH  19  22
ATOM     22  C   UNL     1      -1.888  11.117  18.923  0.00  0.00    +0.000 A 
ATOM     23  C   UNL     1      -2.480  12.083  19.752  0.00  0.00    +0.000 A 
ATOM     24  C   UNL     1      -3.835  12.432  19.628  0.00  0.00    +0.000 A 
ATOM     25  C   UNL     1      -4.634  11.811  18.676  0.00  0.00    +0.000 A 
ATOM     26  C   UNL     1      -4.075  10.850  17.842  0.00  0.00    +0.000 A 
ATOM     27  C   UNL     1      -2.723  10.518  17.965  0.00  0.00    +0.000 A 
ENDBRANCH  19  22
ENDBRANCH  15  16
ENDBRANCH   9  15
TORSDOF 4
ENDMDL
MODEL 8
REMARK VINA RESULT:      -7.1      2.395      2.884
REMARK  Name = 
REMARK  6 active torsions:
REMARK  status: ('A' for Active; 'I' for Inactive)
REMARK    1  A    between atoms: C_1  and  C_2
REMARK    2  A    between atoms: C_2  and  C_3
REMARK    3  A    between atoms: C_2  and  C_4
REMARK    4  A    between atoms: C_12  and  C_13
REMARK    5  A    between atoms: C_13  and  N_14
REMARK    6  A    between atoms: N_17  and  C_18
REMARK                            x       y       z     vdW  Elec       q    Type
REMARK                         _______ _______ _______ _____ _____    ______ ____
ROOT
ATOM      1  C   UNL     1       5.195   5.451  17.711  0.00  0.00    +0.000 A 
ATOM      2  C   UNL     1       5.743   4.216  18.088  0.00  0.00    +0.000 A 
ATOM      3  C   UNL     1       5.076   3.411  18.998  0.00  0.00    +0.000 A 
ATOM      4  C   UNL     1       3.869   3.850  19.539  0.00  0.00    +0.000 A 
ATOM      5  O   UNL     1       3.306   2.997  20.505  0.00  0.00    +0.000 OA
ATOM      6  C   UNL     1       2.222   3.411  21.245  0.00  0.00    +0.000 A 
ATOM      7  O   UNL     1       1.810   2.782  22.213  0.00  0.00    +0.000 OA
ATOM      8  C   UNL     1       1.560   4.654  20.825  0.00  0.00    +0.000 A 
ATOM      9  C   UNL     1       2.006   5.461  19.847  0.00  0.00    +0.000 A 
ATOM     10  C   UNL     1       3.273   5.070  19.192  0.00  0.00    +0.000 A 
ATOM     11  C   UNL     1       3.955   5.860  18.258  0.00  0.00    +0.000 A 
ENDROOT
BRANCH   1  13
ATOM     12  C   UNL     1       7.126   7.027  17.439  0.00  0.00    +0.000 C 
ATOM     13  C   UNL     1       5.964   6.325  16.738  0.00  0.00    +0.000 C 
ATOM     14  C   UNL     1       6.423   5.519  15.521  0.00  0.00    +0.000 C 
ENDBRANCH   1  13
BRANCH   9  15
ATOM     15  C   UNL     1       1.290   6.785  19.587  0.00  0.00    +0.000 C 
BRANCH  15  16
ATOM     16  N   UNL     1       1.974   8.014  20.011  0.00  0.00    +0.000 NA
ATOM     17  C   UNL     1       1.918   9.116  19.024  0.00  0.00    +0.000 C 
ATOM     18  C   UNL     1       0.544   9.818  18.854  0.00  0.00    +0.000 C 
ATOM     19  N   UNL     1       0.026  10.291  20.149  0.00  0.00    +0.000 N 
ATOM     20  C   UNL     1       0.058   9.287  21.233  0.00  0.00    +0.000 C 
ATOM     21  C   UNL     1       1.421   8.536  21.290  0.00  0.00    +0.000 C 
BRANCH  19  22
ATOM     22  C   UNL     1      -1.091  11.143  20.155  0.00  0.00    +0.000 A 
ATOM     23  C   UNL     1      -1.476  11.921  21.259  0.00  0.00    +0.000 A 
ATOM     24  C   UNL     1      -2.631  12.721  21.230  0.00  0.00    +0.000 A 
ATOM     25  C   UNL     1      -3.435  12.750  20.098  0.00  0.00    +0.000 A 
ATOM     26  C   UNL     1      -3.079  11.990  18.991  0.00  0.00    +0.000 A 
ATOM     27  C   UNL     1      -1.922  11.206  19.024  0.00  0.00    +0.000 A 
ENDBRANCH  19  22
ENDBRANCH  15  16
ENDBRANCH   9  15
TORSDOF 4
ENDMDL
MODEL 9
REMARK VINA RESULT:      -7.1      2.286      2.800
REMARK  Name = 
REMARK  6 active torsions:
REMARK  status: ('A' for Active; 'I' for Inactive)
REMARK    1  A    between atoms: C_1  and  C_2
REMARK    2  A    between atoms: C_2  and  C_3
REMARK    3  A    between atoms: C_2  and  C_4
REMARK    4  A    between atoms: C_12  and  C_13
REMARK    5  A    between atoms: C_13  and  N_14
REMARK    6  A    between atoms: N_17  and  C_18
REMARK                            x       y       z     vdW  Elec       q    Type
REMARK                         _______ _______ _______ _____ _____    ______ ____
ROOT
ATOM      1  C   UNL     1       4.273   4.096  16.930  0.00  0.00    +0.000 A 
ATOM      2  C   UNL     1       4.644   2.801  17.322  0.00  0.00    +0.000 A 
ATOM      3  C   UNL     1       4.050   2.215  18.427  0.00  0.00    +0.000 A 
ATOM      4  C   UNL     1       3.096   2.932  19.149  0.00  0.00    +0.000 A 
ATOM      5  O   UNL     1       2.605   2.281  20.294  0.00  0.00    +0.000 OA
ATOM      6  C   UNL     1       1.808   2.961  21.187  0.00  0.00    +0.000 A 
ATOM      7  O   UNL     1       1.504   2.496  22.280  0.00  0.00    +0.000 OA
ATOM      8  C   UNL     1       1.320   4.285  20.776  0.00  0.00    +0.000 A 
ATOM      9  C   UNL     1       1.688   4.915  19.646  0.00  0.00    +0.000 A 
ATOM     10  C   UNL     1       2.683   4.224  18.798  0.00  0.00    +0.000 A 
ATOM     11  C   UNL     1       3.284   4.790  17.666  0.00  0.00    +0.000 A 
ENDROOT
BRANCH   1  13
ATOM     12  C   UNL     1       5.194   6.217  15.960  0.00  0.00    +0.000 C 
ATOM     13  C   UNL     1       4.965   4.723  15.734  0.00  0.00    +0.000 C 
ATOM     14  C   UNL     1       6.261   3.983  15.399  0.00  0.00    +0.000 C 
ENDBRANCH   1  13
BRANCH   9  15
ATOM     15  C   UNL     1       1.200   6.339  19.393  0.00  0.00    +0.000 C 
BRANCH  15  16
ATOM     16  N   UNL     1       2.064   7.437  19.846  0.00  0.00    +0.000 NA
ATOM     17  C   UNL     1       2.152   8.574  18.902  0.00  0.00    +0.000 C 
ATOM     18  C   UNL     1       0.893   9.476  18.793  0.00  0.00    +0.000 C 
ATOM     19  N   UNL     1       0.475   9.966  20.117  0.00  0.00    +0.000 N 
ATOM     20  C   UNL     1       0.379   8.925  21.161  0.00  0.00    +0.000 C 
ATOM     21  C   UNL     1       1.618   7.982  21.157  0.00  0.00    +0.000 C 
BRANCH  19  22
ATOM     22  C   UNL     1      -0.505  10.971  20.182  0.00  0.00    +0.000 A 
ATOM     23  C   UNL     1      -1.505  11.152  19.213  0.00  0.00    +0.000 A 
ATOM     24  C   UNL     1      -2.432  12.204  19.298  0.00  0.00    +0.000 A 
ATOM     25  C   UNL     1      -2.372  13.108  20.352  0.00  0.00    +0.000 A 
ATOM     26  C   UNL     1      -1.393  12.953  21.325  0.00  0.00    +0.000 A 
ATOM     27  C   UNL     1      -0.481  11.897  21.238  0.00  0.00    +0.000 A 
ENDBRANCH  19  22
ENDBRANCH  15  16
ENDBRANCH   9  15
TORSDOF 4
ENDMDL
