MODEL 1
REMARK VINA RESULT:      -7.2      0.000      0.000
REMARK  Name = 
REMARK  5 active torsions:
REMARK  status: ('A' for Active; 'I' for Inactive)
REMARK    1  A    between atoms: N_3  and  C_4
REMARK    2  A    between atoms: C_4  and  C_5
REMARK    3  A    between atoms: C_5  and  N_6
REMARK    4  A    between atoms: N_14  and  C_15
REMARK    5  A    between atoms: C_15  and  C_16
REMARK                            x       y       z     vdW  Elec       q    Type
REMARK                         _______ _______ _______ _____ _____    ______ ____
ROOT
ATOM      1  O   UNL     1       2.050   5.571  20.397  0.00  0.00    +0.000 OA
ATOM      2  C   UNL     1       2.520   6.317  19.533  0.00  0.00    +0.000 C 
ATOM      3  N   UNL     1       2.222   7.649  19.526  0.00  0.00    +0.000 N 
ATOM      4  N   UNL     1       3.389   5.866  18.577  0.00  0.00    +0.000 N 
ATOM      5  C   UNL     1       3.992   6.638  17.481  0.00  0.00    +0.000 C 
ATOM      6  C   UNL     1       5.479   6.262  17.240  0.00  0.00    +0.000 C 
ATOM      7  N   UNL     1       5.770   4.803  17.194  0.00  0.00    +0.000 NA
ATOM      8  C   UNL     1       5.224   4.215  18.439  0.00  0.00    +0.000 C 
ATOM      9  C   UNL     1       3.716   4.435  18.599  0.00  0.00    +0.000 C 
ATOM     10  H   UNL     1       2.117   8.045  18.602  0.00  0.00    +0.000 HD
ENDROOT
BRANCH   3  11
ATOM     11  C   UNL     1       1.303   8.162  20.539  0.00  0.00    +0.000 C 
BRANCH  11  12
ATOM     12  C   UNL     1       0.822   9.595  20.266  0.00  0.00    +0.000 C 
BRANCH  12  13
ATOM     13  N   UNL     1       0.142  10.176  21.406  0.00  0.00    +0.000 N 
ATOM     14  C   UNL     1      -0.508  11.375  21.420  0.00  0.00    +0.000 A 
ATOM     15  C   UNL     1      -0.931  11.531  22.720  0.00  0.00    +0.000 A 
ATOM     16  N   UNL     1      -0.552  10.458  23.485  0.00  0.00    +0.000 NA
ATOM     17  C   UNL     1       0.106   9.662  22.670  0.00  0.00    +0.000 A 
ENDBRANCH  12  13
ENDBRANCH  11  12
ENDBRANCH   3  11
BRANCH   7  18
ATOM     18  C   UNL     1       5.211   4.204  15.962  0.00  0.00    +0.000 C 
BRANCH  18  19
ATOM     19  C   UNL     1       6.055   4.316  14.715  0.00  0.00    +0.000 A 
ATOM     20  C   UNL     1       5.709   3.660  13.524  0.00  0.00    +0.000 A 
ATOM     21  C   UNL     1       6.467   3.859  12.371  0.00  0.00    +0.000 A 
ATOM     22  C   UNL     1       7.549   4.718  12.437  0.00  0.00    +0.000 A 
ATOM     23  N   UNL     1       7.914   5.372  13.561  0.00  0.00    +0.000 NA
ATOM     24  C   UNL     1       7.164   5.153  14.669  0.00  0.00    +0.000 A 
ENDBRANCH  18  19
ENDBRANCH   7  18
TORSDOF 5
ENDMDL
MODEL 2
REMARK VINA RESULT:      -7.0      4.875      7.576
REMARK  Name = 
REMARK  5 active torsions:
REMARK  status: ('A' for Active; 'I' for Inactive)
REMARK    1  A    between atoms: N_3  and  C_4
REMARK    2  A    between atoms: C_4  and  C_5
REMARK    3  A    between atoms: C_5  and  N_6
REMARK    4  A    between atoms: N_14  and  C_15
REMARK    5  A    between atoms: C_15  and  C_16
REMARK                            x       y       z     vdW  Elec       q    Type
REMARK                         _______ _______ _______ _____ _____    ______ ____
ROOT
ATOM      1  O   UNL     1       7.971   6.627  16.315  0.00  0.00    +0.000 OA
ATOM      2  C   UNL     1       7.050   6.785  17.121  0.00  0.00    +0.000 C 
ATOM      3  N   UNL     1       6.949   7.934  17.849  0.00  0.00    +0.000 N 
ATOM      4  N   UNL     1       6.067   5.847  17.293  0.00  0.00    +0.000 N 
ATOM      5  C   UNL     1       4.939   5.898  18.235  0.00  0.00    +0.000 C 
ATOM      6  C   UNL     1       3.624   5.357  17.612  0.00  0.00    +0.000 C 
ATOM      7  N   UNL     1       3.748   4.072  16.873  0.00  0.00    +0.000 NA
ATOM      8  C   UNL     1       4.824   4.252  15.872  0.00  0.00    +0.000 C 
ATOM      9  C   UNL     1       6.174   4.619  16.497  0.00  0.00    +0.000 C 
ATOM     10  H   UNL     1       6.621   7.798  18.795  0.00  0.00    +0.000 HD
ENDROOT
BRANCH   3  11
ATOM     11  C   UNL     1       7.980   8.957  17.682  0.00  0.00    +0.000 C 
BRANCH  11  12
ATOM     12  C   UNL     1       8.785   9.235  18.959  0.00  0.00    +0.000 C 
BRANCH  12  13
ATOM     13  N   UNL     1       9.448  10.523  18.924  0.00  0.00    +0.000 N 
ATOM     14  C   UNL     1       9.758  11.229  17.797  0.00  0.00    +0.000 A 
ATOM     15  C   UNL     1      10.430  12.339  18.252  0.00  0.00    +0.000 A 
ATOM     16  N   UNL     1      10.532  12.319  19.619  0.00  0.00    +0.000 NA
ATOM     17  C   UNL     1       9.942  11.205  19.997  0.00  0.00    +0.000 A 
ENDBRANCH  12  13
ENDBRANCH  11  12
ENDBRANCH   3  11
BRANCH   7  18
ATOM     18  C   UNL     1       3.995   2.957  17.814  0.00  0.00    +0.000 C 
BRANCH  18  19
ATOM     19  C   UNL     1       3.051   2.843  18.987  0.00  0.00    +0.000 A 
ATOM     20  C   UNL     1       3.515   2.774  20.308  0.00  0.00    +0.000 A 
ATOM     21  C   UNL     1       2.609   2.756  21.368  0.00  0.00    +0.000 A 
ATOM     22  C   UNL     1       1.258   2.818  21.077  0.00  0.00    +0.000 A 
ATOM     23  N   UNL     1       0.769   2.890  19.820  0.00  0.00    +0.000 NA
ATOM     24  C   UNL     1       1.673   2.897  18.810  0.00  0.00    +0.000 A 
ENDBRANCH  18  19
ENDBRANCH   7  18
TORSDOF 5
ENDMDL
MODEL 3
REMARK VINA RESULT:      -6.8      4.920      7.438
REMARK  Name = 
REMARK  5 active torsions:
REMARK  status: ('A' for Active; 'I' for Inactive)
REMARK    1  A    between atoms: N_3  and  C_4
REMARK    2  A    between atoms: C_4  and  C_5
REMARK    3  A    between atoms: C_5  and  N_6
REMARK    4  A    between atoms: N_14  and  C_15
REMARK    5  A    between atoms: C_15  and  C_16
REMARK                            x       y       z     vdW  Elec       q    Type
REMARK                         _______ _______ _______ _____ _____    ______ ____
ROOT
ATOM      1  O   UNL     1       7.828   5.870  16.537  0.00  0.00    +0.000 OA
ATOM      2  C   UNL     1       6.989   6.099  17.412  0.00  0.00    +0.000 C 
ATOM      3  N   UNL     1       7.119   7.178  18.237  0.00  0.00    +0.000 N 
ATOM      4  N   UNL     1       5.874   5.321  17.571  0.00  0.00    +0.000 N 
ATOM      5  C   UNL     1       4.820   5.466  18.586  0.00  0.00    +0.000 C 
ATOM      6  C   UNL     1       3.403   5.204  18.010  0.00  0.00    +0.000 C 
ATOM      7  N   UNL     1       3.273   3.989  17.160  0.00  0.00    +0.000 NA
ATOM      8  C   UNL     1       4.311   4.084  16.109  0.00  0.00    +0.000 C 
ATOM      9  C   UNL     1       5.733   4.170  16.671  0.00  0.00    +0.000 C 
ATOM     10  H   UNL     1       6.821   7.010  19.188  0.00  0.00    +0.000 HD
ENDROOT
BRANCH   3  11
ATOM     11  C   UNL     1       8.295   8.032  18.087  0.00  0.00    +0.000 C 
BRANCH  11  12
ATOM     12  C   UNL     1       7.966   9.460  17.627  0.00  0.00    +0.000 C 
BRANCH  12  13
ATOM     13  N   UNL     1       8.722  10.460  18.353  0.00  0.00    +0.000 N 
ATOM     14  C   UNL     1       8.888  11.762  17.977  0.00  0.00    +0.000 A 
ATOM     15  C   UNL     1       9.723  12.299  18.929  0.00  0.00    +0.000 A 
ATOM     16  N   UNL     1      10.062  11.356  19.865  0.00  0.00    +0.000 NA
ATOM     17  C   UNL     1       9.455  10.253  19.485  0.00  0.00    +0.000 A 
ENDBRANCH  12  13
ENDBRANCH  11  12
ENDBRANCH   3  11
BRANCH   7  18
ATOM     18  C   UNL     1       3.380   2.767  17.988  0.00  0.00    +0.000 C 
BRANCH  18  19
ATOM     19  C   UNL     1       2.719   2.812  19.345  0.00  0.00    +0.000 A 
ATOM     20  C   UNL     1       1.338   3.008  19.491  0.00  0.00    +0.000 A 
ATOM     21  C   UNL     1       0.754   2.957  20.756  0.00  0.00    +0.000 A 
ATOM     22  C   UNL     1       1.568   2.700  21.845  0.00  0.00    +0.000 A 
ATOM     23  N   UNL     1       2.901   2.502  21.748  0.00  0.00    +0.000 NA
ATOM     24  C   UNL     1       3.442   2.566  20.506  0.00  0.00    +0.000 A 
ENDBRANCH  18  19
ENDBRANCH   7  18
TORSDOF 5
ENDMDL
MODEL 4
REMARK VINA RESULT:      -6.8      1.254      1.662
REMARK  Name = 
REMARK  5 active torsions:
REMARK  status: ('A' for Active; 'I' for Inactive)
REMARK    1  A    between atoms: N_3  and  C_4
REMARK    2  A    between atoms: C_4  and  C_5
REMARK    3  A    between atoms: C_5  and  N_6
REMARK    4  A    between atoms: N_14  and  C_15
REMARK    5  A    between atoms: C_15  and  C_16
REMARK                            x       y       z     vdW  Elec       q    Type
REMARK                         _______ _______ _______ _____ _____    ______ ____
ROOT
ATOM      1  O   UNL     1       1.948   5.596  20.861  0.00  0.00    +0.000 OA
ATOM      2  C   UNL     1       2.327   6.356  19.966  0.00  0.00    +0.000 C 
ATOM      3  N   UNL     1       1.927   7.660  19.943  0.00  0.00    +0.000 N 
ATOM      4  N   UNL     1       3.196   5.952  18.989  0.00  0.00    +0.000 N 
ATOM      5  C   UNL     1       3.699   6.744  17.856  0.00  0.00    +0.000 C 
ATOM      6  C   UNL     1       5.201   6.478  17.570  0.00  0.00    +0.000 C 
ATOM      7  N   UNL     1       5.604   5.046  17.543  0.00  0.00    +0.000 NA
ATOM      8  C   UNL     1       5.149   4.445  18.817  0.00  0.00    +0.000 C 
ATOM      9  C   UNL     1       3.635   4.552  19.027  0.00  0.00    +0.000 C 
ATOM     10  H   UNL     1       1.759   8.026  19.015  0.00  0.00    +0.000 HD
ENDROOT
BRANCH   3  11
ATOM     11  C   UNL     1       1.004   8.124  20.978  0.00  0.00    +0.000 C 
BRANCH  11  12
ATOM     12  C   UNL     1       1.116   9.626  21.274  0.00  0.00    +0.000 C 
BRANCH  12  13
ATOM     13  N   UNL     1       0.577  10.441  20.203  0.00  0.00    +0.000 N 
ATOM     14  C   UNL     1       1.108  11.613  19.749  0.00  0.00    +0.000 A 
ATOM     15  C   UNL     1       0.229  12.048  18.785  0.00  0.00    +0.000 A 
ATOM     16  N   UNL     1      -0.815  11.169  18.649  0.00  0.00    +0.000 NA
ATOM     17  C   UNL     1      -0.586  10.216  19.526  0.00  0.00    +0.000 A 
ENDBRANCH  12  13
ENDBRANCH  11  12
ENDBRANCH   3  11
BRANCH   7  18
ATOM     18  C   UNL     1       5.052   4.377  16.344  0.00  0.00    +0.000 C 
BRANCH  18  19
ATOM     19  C   UNL     1       5.905   4.416  15.098  0.00  0.00    +0.000 A 
ATOM     20  C   UNL     1       5.549   3.718  13.934  0.00  0.00    +0.000 A 
ATOM     21  C   UNL     1       6.317   3.849  12.778  0.00  0.00    +0.000 A 
ATOM     22  C   UNL     1       7.418   4.685  12.813  0.00  0.00    +0.000 A 
ATOM     23  N   UNL     1       7.793   5.378  13.910  0.00  0.00    +0.000 NA
ATOM     24  C   UNL     1       7.032   5.225  15.022  0.00  0.00    +0.000 A 
ENDBRANCH  18  19
ENDBRANCH   7  18
TORSDOF 5
ENDMDL
MODEL 5
REMARK VINA RESULT:      -6.6      1.048      1.133
REMARK  Name = 
REMARK  5 active torsions:
REMARK  status: ('A' for Active; 'I' for Inactive)
REMARK    1  A    between atoms: N_3  and  C_4
REMARK    2  A    between atoms: C_4  and  C_5
REMARK    3  A    between atoms: C_5  and  N_6
REMARK    4  A    between atoms: N_14  and  C_15
REMARK    5  A    between atoms: C_15  and  C_16
REMARK                            x       y       z     vdW  Elec       q    Type
REMARK                         _______ _______ _______ _____ _____    ______ ____
ROOT
ATOM      1  O   UNL     1       1.582   7.100  20.216  0.00  0.00    +0.000 OA
ATOM      2  C   UNL     1       2.157   7.471  19.189  0.00  0.00    +0.000 C 
ATOM      3  N   UNL     1       1.827   8.654  18.594  0.00  0.00    +0.000 N 
ATOM      4  N   UNL     1       3.174   6.750  18.624  0.00  0.00    +0.000 N 
ATOM      5  C   UNL     1       3.916   7.064  17.394  0.00  0.00    +0.000 C 
ATOM      6  C   UNL     1       5.432   6.755  17.522  0.00  0.00    +0.000 C 
ATOM      7  N   UNL     1       5.768   5.434  18.120  0.00  0.00    +0.000 NA
ATOM      8  C   UNL     1       5.055   5.353  19.415  0.00  0.00    +0.000 C 
ATOM      9  C   UNL     1       3.535   5.486  19.277  0.00  0.00    +0.000 C 
ATOM     10  H   UNL     1       1.853   8.631  17.584  0.00  0.00    +0.000 HD
ENDROOT
BRANCH   3  11
ATOM     11  C   UNL     1       0.749   9.450  19.178  0.00  0.00    +0.000 C 
BRANCH  11  12
ATOM     12  C   UNL     1       1.229  10.461  20.229  0.00  0.00    +0.000 C 
BRANCH  12  13
ATOM     13  N   UNL     1       0.568  10.285  21.506  0.00  0.00    +0.000 N 
ATOM     14  C   UNL     1      -0.555  10.942  21.920  0.00  0.00    +0.000 A 
ATOM     15  C   UNL     1      -0.767  10.502  23.205  0.00  0.00    +0.000 A 
ATOM     16  N   UNL     1       0.197   9.599  23.574  0.00  0.00    +0.000 NA
ATOM     17  C   UNL     1       0.996   9.497  22.534  0.00  0.00    +0.000 A 
ENDBRANCH  12  13
ENDBRANCH  11  12
ENDBRANCH   3  11
BRANCH   7  18
ATOM     18  C   UNL     1       5.420   4.341  17.185  0.00  0.00    +0.000 C 
BRANCH  18  19
ATOM     19  C   UNL     1       6.063   4.393  15.819  0.00  0.00    +0.000 A 
ATOM     20  C   UNL     1       5.514   3.724  14.716  0.00  0.00    +0.000 A 
ATOM     21  C   UNL     1       6.089   3.867  13.454  0.00  0.00    +0.000 A 
ATOM     22  C   UNL     1       7.196   4.686  13.327  0.00  0.00    +0.000 A 
ATOM     23  N   UNL     1       7.754   5.351  14.362  0.00  0.00    +0.000 NA
ATOM     24  C   UNL     1       7.178   5.186  15.578  0.00  0.00    +0.000 A 
ENDBRANCH  18  19
ENDBRANCH   7  18
TORSDOF 5
ENDMDL
MODEL 6
REMARK VINA RESULT:      -6.5      2.918      4.483
REMARK  Name = 
REMARK  5 active torsions:
REMARK  status: ('A' for Active; 'I' for Inactive)
REMARK    1  A    between atoms: N_3  and  C_4
REMARK    2  A    between atoms: C_4  and  C_5
REMARK    3  A    between atoms: C_5  and  N_6
REMARK    4  A    between atoms: N_14  and  C_15
REMARK    5  A    between atoms: C_15  and  C_16
REMARK                            x       y       z     vdW  Elec       q    Type
REMARK                         _______ _______ _______ _____ _____    ______ ____
ROOT
ATOM      1  O   UNL     1       1.779   9.645  17.483  0.00  0.00    +0.000 OA
ATOM      2  C   UNL     1       1.585   9.148  18.596  0.00  0.00    +0.000 C 
ATOM      3  N   UNL     1       0.755   9.753  19.494  0.00  0.00    +0.000 N 
ATOM      4  N   UNL     1       2.146   7.957  18.968  0.00  0.00    +0.000 N 
ATOM      5  C   UNL     1       2.021   7.276  20.265  0.00  0.00    +0.000 C 
ATOM      6  C   UNL     1       1.871   5.738  20.114  0.00  0.00    +0.000 C 
ATOM      7  N   UNL     1       2.825   5.092  19.173  0.00  0.00    +0.000 NA
ATOM      8  C   UNL     1       2.710   5.808  17.882  0.00  0.00    +0.000 C 
ATOM      9  C   UNL     1       3.027   7.303  17.992  0.00  0.00    +0.000 C 
ATOM     10  H   UNL     1       1.063   9.684  20.454  0.00  0.00    +0.000 HD
ENDROOT
BRANCH   3  11
ATOM     11  C   UNL     1       0.135  11.024  19.122  0.00  0.00    +0.000 C 
BRANCH  11  12
ATOM     12  C   UNL     1      -1.388  11.045  19.313  0.00  0.00    +0.000 C 
BRANCH  12  13
ATOM     13  N   UNL     1      -2.102  10.849  18.067  0.00  0.00    +0.000 N 
ATOM     14  C   UNL     1      -3.230  11.514  17.681  0.00  0.00    +0.000 A 
ATOM     15  C   UNL     1      -3.575  10.951  16.475  0.00  0.00    +0.000 A 
ATOM     16  N   UNL     1      -2.685   9.968  16.125  0.00  0.00    +0.000 NA
ATOM     17  C   UNL     1      -1.815   9.919  17.111  0.00  0.00    +0.000 A 
ENDBRANCH  12  13
ENDBRANCH  11  12
ENDBRANCH   3  11
BRANCH   7  18
ATOM     18  C   UNL     1       4.193   5.104  19.736  0.00  0.00    +0.000 C 
BRANCH  18  19
ATOM     19  C   UNL     1       5.330   4.983  18.749  0.00  0.00    +0.000 A 
ATOM     20  C   UNL     1       6.593   5.538  19.001  0.00  0.00    +0.000 A 
ATOM     21  C   UNL     1       7.640   5.330  18.104  0.00  0.00    +0.000 A 
ATOM     22  C   UNL     1       7.398   4.561  16.980  0.00  0.00    +0.000 A 
ATOM     23  N   UNL     1       6.199   4.005  16.702  0.00  0.00    +0.000 NA
ATOM     24  C   UNL     1       5.198   4.232  17.588  0.00  0.00    +0.000 A 
ENDBRANCH  18  19
ENDBRANCH   7  18
TORSDOF 5
ENDMDL
MODEL 7
REMARK VINA RESULT:      -6.4      2.312     10.493
REMARK  Name = 
REMARK  5 active torsions:
REMARK  status: ('A' for Active; 'I' for Inactive)
REMARK    1  A    between atoms: N_3  and  C_4
REMARK    2  A    between atoms: C_4  and  C_5
REMARK    3  A    between atoms: C_5  and  N_6
REMARK    4  A    between atoms: N_14  and  C_15
REMARK    5  A    between atoms: C_15  and  C_16
REMARK                            x       y       z     vdW  Elec       q    Type
REMARK                         _______ _______ _______ _____ _____    ______ ____
ROOT
ATOM      1  O   UNL     1       2.332   8.940  17.515  0.00  0.00    +0.000 OA
ATOM      2  C   UNL     1       2.059   8.484  18.629  0.00  0.00    +0.000 C 
ATOM      3  N   UNL     1       2.470   7.234  18.990  0.00  0.00    +0.000 N 
ATOM      4  N   UNL     1       1.379   9.214  19.566  0.00  0.00    +0.000 N 
ATOM      5  C   UNL     1       0.966   8.780  20.909  0.00  0.00    +0.000 C 
ATOM      6  C   UNL     1       1.141   9.898  21.972  0.00  0.00    +0.000 C 
ATOM      7  N   UNL     1       0.633  11.241  21.578  0.00  0.00    +0.000 NA
ATOM      8  C   UNL     1       1.265  11.578  20.282  0.00  0.00    +0.000 C 
ATOM      9  C   UNL     1       0.952  10.563  19.177  0.00  0.00    +0.000 C 
ATOM     10  H   UNL     1       1.803   6.726  19.556  0.00  0.00    +0.000 HD
ENDROOT
BRANCH   3  11
ATOM     11  C   UNL     1       3.204   6.433  18.013  0.00  0.00    +0.000 C 
BRANCH  11  12
ATOM     12  C   UNL     1       4.312   5.568  18.633  0.00  0.00    +0.000 C 
BRANCH  12  13
ATOM     13  N   UNL     1       5.496   5.510  17.800  0.00  0.00    +0.000 N 
ATOM     14  C   UNL     1       6.269   4.404  17.590  0.00  0.00    +0.000 A 
ATOM     15  C   UNL     1       7.303   4.844  16.797  0.00  0.00    +0.000 A 
ATOM     16  N   UNL     1       7.172   6.181  16.526  0.00  0.00    +0.000 NA
ATOM     17  C   UNL     1       6.081   6.560  17.155  0.00  0.00    +0.000 A 
ENDBRANCH  12  13
ENDBRANCH  11  12
ENDBRANCH   3  11
BRANCH   7  18
ATOM     18  C   UNL     1      -0.846  11.239  21.533  0.00  0.00    +0.000 C 
BRANCH  18  19
ATOM     19  C   UNL     1      -1.548  12.242  22.417  0.00  0.00    +0.000 A 
ATOM     20  C   UNL     1      -2.819  11.993  22.956  0.00  0.00    +0.000 A 
ATOM     21  C   UNL     1      -3.396  12.907  23.837  0.00  0.00    +0.000 A 
ATOM     22  C   UNL     1      -2.680  14.044  24.165  0.00  0.00    +0.000 A 
ATOM     23  N   UNL     1      -1.453  14.320  23.672  0.00  0.00    +0.000 NA
ATOM     24  C   UNL     1      -0.921  13.418  22.811  0.00  0.00    +0.000 A 
ENDBRANCH  18  19
ENDBRANCH   7  18
TORSDOF 5
ENDMDL
MODEL 8
REMARK VINA RESULT:      -6.4      3.723     10.204
REMARK  Name = 
REMARK  5 active torsions:
REMARK  status: ('A' for Active; 'I' for Inactive)
REMARK    1  A    between atoms: N_3  and  C_4
REMARK    2  A    between atoms: C_4  and  C_5
REMARK    3  A    between atoms: C_5  and  N_6
REMARK    4  A    between atoms: N_14  and  C_15
REMARK    5  A    between atoms: C_15  and  C_16
REMARK                            x       y       z     vdW  Elec       q    Type
REMARK                         _______ _______ _______ _____ _____    ______ ____
ROOT
ATOM      1  O   UNL     1       2.192   9.031  17.489  0.00  0.00    +0.000 OA
ATOM      2  C   UNL     1       1.891   8.572  18.594  0.00  0.00    +0.000 C 
ATOM      3  N   UNL     1       2.234   7.297  18.936  0.00  0.00    +0.000 N 
ATOM      4  N   UNL     1       1.249   9.322  19.542  0.00  0.00    +0.000 N 
ATOM      5  C   UNL     1       0.810   8.890  20.877  0.00  0.00    +0.000 C 
ATOM      6  C   UNL     1       1.043   9.980  21.958  0.00  0.00    +0.000 C 
ATOM      7  N   UNL     1       0.608  11.354  21.585  0.00  0.00    +0.000 NA
ATOM      8  C   UNL     1       1.260  11.677  20.295  0.00  0.00    +0.000 C 
ATOM      9  C   UNL     1       0.896  10.699  19.174  0.00  0.00    +0.000 C 
ATOM     10  H   UNL     1       1.539   6.816  19.492  0.00  0.00    +0.000 HD
ENDROOT
BRANCH   3  11
ATOM     11  C   UNL     1       2.927   6.473  17.947  0.00  0.00    +0.000 C 
BRANCH  11  12
ATOM     12  C   UNL     1       3.536   5.191  18.532  0.00  0.00    +0.000 C 
BRANCH  12  13
ATOM     13  N   UNL     1       2.524   4.244  18.957  0.00  0.00    +0.000 N 
ATOM     14  C   UNL     1       1.732   3.500  18.132  0.00  0.00    +0.000 A 
ATOM     15  C   UNL     1       0.894   2.810  18.977  0.00  0.00    +0.000 A 
ATOM     16  N   UNL     1       1.163   3.119  20.286  0.00  0.00    +0.000 NA
ATOM     17  C   UNL     1       2.142   3.997  20.243  0.00  0.00    +0.000 A 
ENDBRANCH  12  13
ENDBRANCH  11  12
ENDBRANCH   3  11
BRANCH   7  18
ATOM     18  C   UNL     1      -0.869  11.433  21.537  0.00  0.00    +0.000 C 
BRANCH  18  19
ATOM     19  C   UNL     1      -1.528  12.343  22.546  0.00  0.00    +0.000 A 
ATOM     20  C   UNL     1      -0.952  13.561  22.934  0.00  0.00    +0.000 A 
ATOM     21  C   UNL     1      -1.633  14.412  23.802  0.00  0.00    +0.000 A 
ATOM     22  C   UNL     1      -2.882  14.026  24.253  0.00  0.00    +0.000 A 
ATOM     23  N   UNL     1      -3.475  12.865  23.901  0.00  0.00    +0.000 NA
ATOM     24  C   UNL     1      -2.785  12.053  23.063  0.00  0.00    +0.000 A 
ENDBRANCH  18  19
ENDBRANCH   7  18
TORSDOF 5
ENDMDL
MODEL 9
REMARK VINA RESULT:      -6.4      3.389     10.411
REMARK  Name = 
REMARK  5 active torsions:
REMARK  status: ('A' for Active; 'I' for Inactive)
REMARK    1  A    between atoms: N_3  and  C_4
REMARK    2  A    between atoms: C_4  and  C_5
REMARK    3  A    between atoms: C_5  and  N_6
REMARK    4  A    between atoms: N_14  and  C_15
REMARK    5  A    between atoms: C_15  and  C_16
REMARK                            x       y       z     vdW  Elec       q    Type
REMARK                         _______ _______ _______ _____ _____    ______ ____
ROOT
ATOM      1  O   UNL     1       2.150   9.153  17.534  0.00  0.00    +0.000 OA
ATOM      2  C   UNL     1       1.852   8.680  18.634  0.00  0.00    +0.000 C 
ATOM      3  N   UNL     1       2.220   7.411  18.970  0.00  0.00    +0.000 N 
ATOM      4  N   UNL     1       1.185   9.410  19.581  0.00  0.00    +0.000 N 
ATOM      5  C   UNL     1       0.746   8.959  20.910  0.00  0.00    +0.000 C 
ATOM      6  C   UNL     1       0.946  10.047  21.999  0.00  0.00    +0.000 C 
ATOM      7  N   UNL     1       0.483  11.413  21.632  0.00  0.00    +0.000 NA
ATOM      8  C   UNL     1       1.137  11.759  20.349  0.00  0.00    +0.000 C 
ATOM      9  C   UNL     1       0.804  10.780  19.219  0.00  0.00    +0.000 C 
ATOM     10  H   UNL     1       1.533   6.911  19.518  0.00  0.00    +0.000 HD
ENDROOT
BRANCH   3  11
ATOM     11  C   UNL     1       2.939   6.609  17.982  0.00  0.00    +0.000 C 
BRANCH  11  12
ATOM     12  C   UNL     1       3.731   5.444  18.592  0.00  0.00    +0.000 C 
BRANCH  12  13
ATOM     13  N   UNL     1       3.055   4.172  18.427  0.00  0.00    +0.000 N 
ATOM     14  C   UNL     1       3.480   3.140  17.641  0.00  0.00    +0.000 A 
ATOM     15  C   UNL     1       2.495   2.187  17.751  0.00  0.00    +0.000 A 
ATOM     16  N   UNL     1       1.492   2.618  18.580  0.00  0.00    +0.000 NA
ATOM     17  C   UNL     1       1.850   3.824  18.963  0.00  0.00    +0.000 A 
ENDBRANCH  12  13
ENDBRANCH  11  12
ENDBRANCH   3  11
BRANCH   7  18
ATOM     18  C   UNL     1      -0.995  11.459  21.573  0.00  0.00    +0.000 C 
BRANCH  18  19
ATOM     19  C   UNL     1      -1.676  12.430  22.508  0.00  0.00    +0.000 A 
ATOM     20  C   UNL     1      -2.966  12.197  23.007  0.00  0.00    +0.000 A 
ATOM     21  C   UNL     1      -3.526  13.074  23.935  0.00  0.00    +0.000 A 
ATOM     22  C   UNL     1      -2.775  14.159  24.348  0.00  0.00    +0.000 A 
ATOM     23  N   UNL     1      -1.528  14.418  23.896  0.00  0.00    +0.000 NA
ATOM     24  C   UNL     1      -1.013  13.553  22.988  0.00  0.00    +0.000 A 
ENDBRANCH  18  19
ENDBRANCH   7  18
TORSDOF 5
ENDMDL
