MODEL 1
REMARK VINA RESULT:      -6.3      0.000      0.000
REMARK  Name = 
REMARK  3 active torsions:
REMARK  status: ('A' for Active; 'I' for Inactive)
REMARK    1  A    between atoms: N_1  and  C_2
REMARK    2  A    between atoms: N_6  and  C_7
REMARK    3  A    between atoms: C_7  and  C_8
REMARK                            x       y       z     vdW  Elec       q    Type
REMARK                         _______ _______ _______ _____ _____    ______ ____
ROOT
ATOM      1  C   UNL     1       7.139   5.311  18.812  0.00  0.00    +0.000 A 
ATOM      2  C   UNL     1       7.616   4.710  17.649  0.00  0.00    +0.000 A 
ATOM      3  C   UNL     1       6.746   4.422  16.604  0.00  0.00    +0.000 A 
ATOM      4  C   UNL     1       5.400   4.733  16.730  0.00  0.00    +0.000 A 
ATOM      5  N   UNL     1       4.934   5.306  17.865  0.00  0.00    +0.000 N 
ATOM      6  C   UNL     1       5.759   5.513  18.919  0.00  0.00    +0.000 A 
ENDROOT
BRANCH   1   7
ATOM      7  N   UNL     1       7.993   5.490  19.899  0.00  0.00    +0.000 N 
ATOM      8  H   UNL     1       8.346   4.633  20.322  0.00  0.00    +0.000 HD
ATOM      9  H   UNL     1       8.731   6.185  19.806  0.00  0.00    +0.000 HD
ENDBRANCH   1   7
BRANCH   5  10
ATOM     10  C   UNL     1       3.526   5.758  17.935  0.00  0.00    +0.000 C 
BRANCH  10  11
ATOM     11  C   UNL     1       2.618   4.815  18.685  0.00  0.00    +0.000 A 
ATOM     12  C   UNL     1       2.031   3.747  18.001  0.00  0.00    +0.000 A 
ATOM     13  C   UNL     1       1.108   2.947  18.670  0.00  0.00    +0.000 A 
ATOM     14  C   UNL     1       0.809   3.217  19.999  0.00  0.00    +0.000 A 
ATOM     15  C   UNL     1       1.464   4.271  20.615  0.00  0.00    +0.000 A 
ATOM     16  N   UNL     1       2.353   5.077  19.988  0.00  0.00    +0.000 NA
ENDBRANCH  10  11
ENDBRANCH   5  10
TORSDOF 3
ENDMDL
MODEL 2
REMARK VINA RESULT:      -6.3      0.828      1.288
REMARK  Name = 
REMARK  3 active torsions:
REMARK  status: ('A' for Active; 'I' for Inactive)
REMARK    1  A    between atoms: N_1  and  C_2
REMARK    2  A    between atoms: N_6  and  C_7
REMARK    3  A    between atoms: C_7  and  C_8
REMARK                            x       y       z     vdW  Elec       q    Type
REMARK                         _______ _______ _______ _____ _____    ______ ____
ROOT
ATOM      1  C   UNL     1       7.053   5.282  18.828  0.00  0.00    +0.000 A 
ATOM      2  C   UNL     1       7.601   4.740  17.667  0.00  0.00    +0.000 A 
ATOM      3  C   UNL     1       6.781   4.407  16.596  0.00  0.00    +0.000 A 
ATOM      4  C   UNL     1       5.413   4.614  16.693  0.00  0.00    +0.000 A 
ATOM      5  N   UNL     1       4.877   5.129  17.826  0.00  0.00    +0.000 N 
ATOM      6  C   UNL     1       5.659   5.378  18.903  0.00  0.00    +0.000 A 
ENDROOT
BRANCH   1   7
ATOM      7  N   UNL     1       7.865   5.505  19.939  0.00  0.00    +0.000 N 
ATOM      8  H   UNL     1       8.845   5.690  19.732  0.00  0.00    +0.000 HD
ATOM      9  H   UNL     1       7.515   6.136  20.656  0.00  0.00    +0.000 HD
ENDBRANCH   1   7
BRANCH   5  10
ATOM     10  C   UNL     1       3.438   5.473  17.867  0.00  0.00    +0.000 C 
BRANCH  10  11
ATOM     11  C   UNL     1       2.613   4.545  18.724  0.00  0.00    +0.000 A 
ATOM     12  C   UNL     1       1.973   5.055  19.857  0.00  0.00    +0.000 A 
ATOM     13  C   UNL     1       1.306   4.174  20.705  0.00  0.00    +0.000 A 
ATOM     14  C   UNL     1       1.279   2.821  20.397  0.00  0.00    +0.000 A 
ATOM     15  C   UNL     1       1.906   2.403  19.235  0.00  0.00    +0.000 A 
ATOM     16  N   UNL     1       2.576   3.231  18.399  0.00  0.00    +0.000 NA
ENDBRANCH  10  11
ENDBRANCH   5  10
TORSDOF 3
ENDMDL
MODEL 3
REMARK VINA RESULT:      -6.1      1.760      2.399
REMARK  Name = 
REMARK  3 active torsions:
REMARK  status: ('A' for Active; 'I' for Inactive)
REMARK    1  A    between atoms: N_1  and  C_2
REMARK    2  A    between atoms: N_6  and  C_7
REMARK    3  A    between atoms: C_7  and  C_8
REMARK                            x       y       z     vdW  Elec       q    Type
REMARK                         _______ _______ _______ _____ _____    ______ ____
ROOT
ATOM      1  C   UNL     1       6.249   5.011  16.708  0.00  0.00    +0.000 A 
ATOM      2  C   UNL     1       5.941   6.327  17.046  0.00  0.00    +0.000 A 
ATOM      3  C   UNL     1       4.654   6.662  17.449  0.00  0.00    +0.000 A 
ATOM      4  C   UNL     1       3.678   5.678  17.509  0.00  0.00    +0.000 A 
ATOM      5  N   UNL     1       3.974   4.401  17.168  0.00  0.00    +0.000 N 
ATOM      6  C   UNL     1       5.202   4.083  16.695  0.00  0.00    +0.000 A 
ENDROOT
BRANCH   1   7
ATOM      7  N   UNL     1       7.508   4.704  16.193  0.00  0.00    +0.000 N 
ATOM      8  H   UNL     1       7.677   3.715  16.016  0.00  0.00    +0.000 HD
ATOM      9  H   UNL     1       7.855   5.279  15.429  0.00  0.00    +0.000 HD
ENDBRANCH   1   7
BRANCH   5  10
ATOM     10  C   UNL     1       2.965   3.335  17.367  0.00  0.00    +0.000 C 
BRANCH  10  11
ATOM     11  C   UNL     1       2.553   3.145  18.805  0.00  0.00    +0.000 A 
ATOM     12  C   UNL     1       1.246   3.460  19.187  0.00  0.00    +0.000 A 
ATOM     13  C   UNL     1       0.904   3.389  20.535  0.00  0.00    +0.000 A 
ATOM     14  C   UNL     1       1.860   2.992  21.460  0.00  0.00    +0.000 A 
ATOM     15  C   UNL     1       3.122   2.660  20.995  0.00  0.00    +0.000 A 
ATOM     16  N   UNL     1       3.490   2.734  19.694  0.00  0.00    +0.000 NA
ENDBRANCH  10  11
ENDBRANCH   5  10
TORSDOF 3
ENDMDL
MODEL 4
REMARK VINA RESULT:      -6.1      1.449      1.927
REMARK  Name = 
REMARK  3 active torsions:
REMARK  status: ('A' for Active; 'I' for Inactive)
REMARK    1  A    between atoms: N_1  and  C_2
REMARK    2  A    between atoms: N_6  and  C_7
REMARK    3  A    between atoms: C_7  and  C_8
REMARK                            x       y       z     vdW  Elec       q    Type
REMARK                         _______ _______ _______ _____ _____    ______ ____
ROOT
ATOM      1  C   UNL     1       7.550   5.777  19.200  0.00  0.00    +0.000 A 
ATOM      2  C   UNL     1       7.979   6.888  18.477  0.00  0.00    +0.000 A 
ATOM      3  C   UNL     1       7.251   7.331  17.379  0.00  0.00    +0.000 A 
ATOM      4  C   UNL     1       6.097   6.657  17.007  0.00  0.00    +0.000 A 
ATOM      5  N   UNL     1       5.686   5.569  17.703  0.00  0.00    +0.000 N 
ATOM      6  C   UNL     1       6.434   5.082  18.721  0.00  0.00    +0.000 A 
ENDROOT
BRANCH   1   7
ATOM      7  N   UNL     1       8.346   5.269  20.226  0.00  0.00    +0.000 N 
ATOM      8  H   UNL     1       8.982   5.939  20.655  0.00  0.00    +0.000 HD
ATOM      9  H   UNL     1       7.891   4.691  20.929  0.00  0.00    +0.000 HD
ENDBRANCH   1   7
BRANCH   5  10
ATOM     10  C   UNL     1       4.383   4.942  17.383  0.00  0.00    +0.000 C 
BRANCH  10  11
ATOM     11  C   UNL     1       3.466   4.801  18.572  0.00  0.00    +0.000 A 
ATOM     12  C   UNL     1       2.851   5.941  19.097  0.00  0.00    +0.000 A 
ATOM     13  C   UNL     1       2.096   5.822  20.260  0.00  0.00    +0.000 A 
ATOM     14  C   UNL     1       1.957   4.577  20.858  0.00  0.00    +0.000 A 
ATOM     15  C   UNL     1       2.567   3.490  20.253  0.00  0.00    +0.000 A 
ATOM     16  N   UNL     1       3.321   3.575  19.132  0.00  0.00    +0.000 NA
ENDBRANCH  10  11
ENDBRANCH   5  10
TORSDOF 3
ENDMDL
MODEL 5
REMARK VINA RESULT:      -6.1      1.274      1.842
REMARK  Name = 
REMARK  3 active torsions:
REMARK  status: ('A' for Active; 'I' for Inactive)
REMARK    1  A    between atoms: N_1  and  C_2
REMARK    2  A    between atoms: N_6  and  C_7
REMARK    3  A    between atoms: C_7  and  C_8
REMARK                            x       y       z     vdW  Elec       q    Type
REMARK                         _______ _______ _______ _____ _____    ______ ____
ROOT
ATOM      1  C   UNL     1       6.592   5.156  17.824  0.00  0.00    +0.000 A 
ATOM      2  C   UNL     1       6.519   5.815  16.599  0.00  0.00    +0.000 A 
ATOM      3  C   UNL     1       5.385   6.546  16.266  0.00  0.00    +0.000 A 
ATOM      4  C   UNL     1       4.326   6.611  17.160  0.00  0.00    +0.000 A 
ATOM      5  N   UNL     1       4.392   5.961  18.346  0.00  0.00    +0.000 N 
ATOM      6  C   UNL     1       5.458   5.179  18.642  0.00  0.00    +0.000 A 
ENDROOT
BRANCH   1   7
ATOM      7  N   UNL     1       7.681   4.331  18.103  0.00  0.00    +0.000 N 
ATOM      8  H   UNL     1       8.346   4.216  17.340  0.00  0.00    +0.000 HD
ATOM      9  H   UNL     1       8.159   4.469  18.990  0.00  0.00    +0.000 HD
ENDBRANCH   1   7
BRANCH   5  10
ATOM     10  C   UNL     1       3.318   6.149  19.348  0.00  0.00    +0.000 C 
BRANCH  10  11
ATOM     11  C   UNL     1       2.384   4.971  19.470  0.00  0.00    +0.000 A 
ATOM     12  C   UNL     1       2.016   4.524  20.742  0.00  0.00    +0.000 A 
ATOM     13  C   UNL     1       1.244   3.370  20.850  0.00  0.00    +0.000 A 
ATOM     14  C   UNL     1       0.847   2.705  19.698  0.00  0.00    +0.000 A 
ATOM     15  C   UNL     1       1.222   3.236  18.475  0.00  0.00    +0.000 A 
ATOM     16  N   UNL     1       1.984   4.346  18.336  0.00  0.00    +0.000 NA
ENDBRANCH  10  11
ENDBRANCH   5  10
TORSDOF 3
ENDMDL
MODEL 6
REMARK VINA RESULT:      -6.1      1.672      2.354
REMARK  Name = 
REMARK  3 active torsions:
REMARK  status: ('A' for Active; 'I' for Inactive)
REMARK    1  A    between atoms: N_1  and  C_2
REMARK    2  A    between atoms: N_6  and  C_7
REMARK    3  A    between atoms: C_7  and  C_8
REMARK                            x       y       z     vdW  Elec       q    Type
REMARK                         _______ _______ _______ _____ _____    ______ ____
ROOT
ATOM      1  C   UNL     1       6.842   4.986  16.500  0.00  0.00    +0.000 A 
ATOM      2  C   UNL     1       7.267   5.602  17.675  0.00  0.00    +0.000 A 
ATOM      3  C   UNL     1       6.573   5.397  18.862  0.00  0.00    +0.000 A 
ATOM      4  C   UNL     1       5.453   4.579  18.866  0.00  0.00    +0.000 A 
ATOM      5  N   UNL     1       5.033   3.989  17.721  0.00  0.00    +0.000 N 
ATOM      6  C   UNL     1       5.654   4.251  16.546  0.00  0.00    +0.000 A 
ENDROOT
BRANCH   1   7
ATOM      7  N   UNL     1       7.472   5.288  15.293  0.00  0.00    +0.000 N 
ATOM      8  H   UNL     1       8.285   5.898  15.367  0.00  0.00    +0.000 HD
ATOM      9  H   UNL     1       7.648   4.518  14.651  0.00  0.00    +0.000 HD
ENDBRANCH   1   7
BRANCH   5  10
ATOM     10  C   UNL     1       3.922   3.011  17.764  0.00  0.00    +0.000 C 
BRANCH  10  11
ATOM     11  C   UNL     1       3.061   3.119  18.998  0.00  0.00    +0.000 A 
ATOM     12  C   UNL     1       1.891   3.883  18.947  0.00  0.00    +0.000 A 
ATOM     13  C   UNL     1       1.160   4.070  20.117  0.00  0.00    +0.000 A 
ATOM     14  C   UNL     1       1.599   3.482  21.296  0.00  0.00    +0.000 A 
ATOM     15  C   UNL     1       2.748   2.710  21.253  0.00  0.00    +0.000 A 
ATOM     16  N   UNL     1       3.489   2.521  20.136  0.00  0.00    +0.000 NA
ENDBRANCH  10  11
ENDBRANCH   5  10
TORSDOF 3
ENDMDL
MODEL 7
REMARK VINA RESULT:      -6.0      1.665      5.249
REMARK  Name = 
REMARK  3 active torsions:
REMARK  status: ('A' for Active; 'I' for Inactive)
REMARK    1  A    between atoms: N_1  and  C_2
REMARK    2  A    between atoms: N_6  and  C_7
REMARK    3  A    between atoms: C_7  and  C_8
REMARK                            x       y       z     vdW  Elec       q    Type
REMARK                         _______ _______ _______ _____ _____    ______ ____
ROOT
ATOM      1  C   UNL     1       2.294   3.187  20.583  0.00  0.00    +0.000 A 
ATOM      2  C   UNL     1       1.071   3.398  19.949  0.00  0.00    +0.000 A 
ATOM      3  C   UNL     1       1.028   3.649  18.583  0.00  0.00    +0.000 A 
ATOM      4  C   UNL     1       2.209   3.692  17.857  0.00  0.00    +0.000 A 
ATOM      5  N   UNL     1       3.399   3.499  18.475  0.00  0.00    +0.000 N 
ATOM      6  C   UNL     1       3.456   3.336  19.819  0.00  0.00    +0.000 A 
ENDROOT
BRANCH   1   7
ATOM      7  N   UNL     1       2.340   3.051  21.970  0.00  0.00    +0.000 N 
ATOM      8  H   UNL     1       2.947   3.712  22.452  0.00  0.00    +0.000 HD
ATOM      9  H   UNL     1       1.455   2.940  22.460  0.00  0.00    +0.000 HD
ENDBRANCH   1   7
BRANCH   5  10
ATOM     10  C   UNL     1       4.639   3.409  17.671  0.00  0.00    +0.000 C 
BRANCH  10  11
ATOM     11  C   UNL     1       5.533   4.618  17.792  0.00  0.00    +0.000 A 
ATOM     12  C   UNL     1       5.194   5.787  17.104  0.00  0.00    +0.000 A 
ATOM     13  C   UNL     1       6.078   6.862  17.129  0.00  0.00    +0.000 A 
ATOM     14  C   UNL     1       7.261   6.753  17.847  0.00  0.00    +0.000 A 
ATOM     15  C   UNL     1       7.505   5.575  18.532  0.00  0.00    +0.000 A 
ATOM     16  N   UNL     1       6.673   4.507  18.515  0.00  0.00    +0.000 NA
ENDBRANCH  10  11
ENDBRANCH   5  10
TORSDOF 3
ENDMDL
MODEL 8
REMARK VINA RESULT:      -6.0      1.440      1.510
REMARK  Name = 
REMARK  3 active torsions:
REMARK  status: ('A' for Active; 'I' for Inactive)
REMARK    1  A    between atoms: N_1  and  C_2
REMARK    2  A    between atoms: N_6  and  C_7
REMARK    3  A    between atoms: C_7  and  C_8
REMARK                            x       y       z     vdW  Elec       q    Type
REMARK                         _______ _______ _______ _____ _____    ______ ____
ROOT
ATOM      1  C   UNL     1       6.355   6.199  16.854  0.00  0.00    +0.000 A 
ATOM      2  C   UNL     1       6.610   4.974  16.242  0.00  0.00    +0.000 A 
ATOM      3  C   UNL     1       5.633   3.987  16.222  0.00  0.00    +0.000 A 
ATOM      4  C   UNL     1       4.404   4.228  16.818  0.00  0.00    +0.000 A 
ATOM      5  N   UNL     1       4.159   5.415  17.424  0.00  0.00    +0.000 N 
ATOM      6  C   UNL     1       5.134   6.350  17.521  0.00  0.00    +0.000 A 
ENDROOT
BRANCH   1   7
ATOM      7  N   UNL     1       7.377   7.140  16.973  0.00  0.00    +0.000 N 
ATOM      8  H   UNL     1       8.315   6.790  16.787  0.00  0.00    +0.000 HD
ATOM      9  H   UNL     1       7.231   8.048  16.537  0.00  0.00    +0.000 HD
ENDBRANCH   1   7
BRANCH   5  10
ATOM     10  C   UNL     1       2.802   5.713  17.935  0.00  0.00    +0.000 C 
BRANCH  10  11
ATOM     11  C   UNL     1       2.328   4.757  19.002  0.00  0.00    +0.000 A 
ATOM     12  C   UNL     1       1.376   3.788  18.672  0.00  0.00    +0.000 A 
ATOM     13  C   UNL     1       0.861   2.982  19.684  0.00  0.00    +0.000 A 
ATOM     14  C   UNL     1       1.315   3.148  20.985  0.00  0.00    +0.000 A 
ATOM     15  C   UNL     1       2.287   4.105  21.221  0.00  0.00    +0.000 A 
ATOM     16  N   UNL     1       2.797   4.914  20.263  0.00  0.00    +0.000 NA
ENDBRANCH  10  11
ENDBRANCH   5  10
TORSDOF 3
ENDMDL
MODEL 9
REMARK VINA RESULT:      -6.0      1.178      1.328
REMARK  Name = 
REMARK  3 active torsions:
REMARK  status: ('A' for Active; 'I' for Inactive)
REMARK    1  A    between atoms: N_1  and  C_2
REMARK    2  A    between atoms: N_6  and  C_7
REMARK    3  A    between atoms: C_7  and  C_8
REMARK                            x       y       z     vdW  Elec       q    Type
REMARK                         _______ _______ _______ _____ _____    ______ ____
ROOT
ATOM      1  C   UNL     1       7.136   4.804  17.217  0.00  0.00    +0.000 A 
ATOM      2  C   UNL     1       7.148   4.809  15.824  0.00  0.00    +0.000 A 
ATOM      3  C   UNL     1       6.071   5.332  15.118  0.00  0.00    +0.000 A 
ATOM      4  C   UNL     1       4.984   5.844  15.811  0.00  0.00    +0.000 A 
ATOM      5  N   UNL     1       4.967   5.829  17.165  0.00  0.00    +0.000 N 
ATOM      6  C   UNL     1       5.974   5.246  17.858  0.00  0.00    +0.000 A 
ENDROOT
BRANCH   1   7
ATOM      7  N   UNL     1       8.165   4.175  17.916  0.00  0.00    +0.000 N 
ATOM      8  H   UNL     1       7.958   3.231  18.240  0.00  0.00    +0.000 HD
ATOM      9  H   UNL     1       9.102   4.231  17.524  0.00  0.00    +0.000 HD
ENDBRANCH   1   7
BRANCH   5  10
ATOM     10  C   UNL     1       3.867   6.502  17.894  0.00  0.00    +0.000 C 
BRANCH  10  11
ATOM     11  C   UNL     1       2.970   5.556  18.652  0.00  0.00    +0.000 A 
ATOM     12  C   UNL     1       2.246   4.590  17.947  0.00  0.00    +0.000 A 
ATOM     13  C   UNL     1       1.337   3.795  18.638  0.00  0.00    +0.000 A 
ATOM     14  C   UNL     1       1.184   3.966  20.007  0.00  0.00    +0.000 A 
ATOM     15  C   UNL     1       1.966   4.919  20.637  0.00  0.00    +0.000 A 
ATOM     16  N   UNL     1       2.847   5.719  19.992  0.00  0.00    +0.000 NA
ENDBRANCH  10  11
ENDBRANCH   5  10
TORSDOF 3
ENDMDL
