MODEL 1
REMARK VINA RESULT:      -8.4      0.000      0.000
REMARK  Name = 
REMARK  10 active torsions:
REMARK  status: ('A' for Active; 'I' for Inactive)
REMARK    1  A    between atoms: C_1  and  C_2
REMARK    2  A    between atoms: C_2  and  N_3
REMARK    3  A    between atoms: C_2  and  C_4
REMARK    4  A    between atoms: C_6  and  C_7
REMARK    5  A    between atoms: CA_13  and  C_14
REMARK    6  A    between atoms: N_16  and  CA_17
REMARK    7  A    between atoms: CA_17  and  CB_18
REMARK    8  A    between atoms: CA_17  and  C_28
REMARK    9  A    between atoms: CB_18  and  CG_19
REMARK   10  A    between atoms: C_28  and  OXT_30
REMARK                            x       y       z     vdW  Elec       q    Type
REMARK                         _______ _______ _______ _____ _____    ______ ____
ROOT
ATOM      1  C   PRO A   2       1.836   7.843  19.996  0.00  0.00    +0.000 C 
ATOM      2  O   PRO A   2       2.390   7.948  18.901  0.00  0.00    +0.000 OA
ATOM      3  N   TRP A   3       1.827   6.648  20.673  0.00  0.00    +0.000 N 
ATOM      4  H   TRP A   3       1.428   6.603  21.608  0.00  0.00    +0.000 HD
ENDROOT
BRANCH   1  11
ATOM      5  C   UNK A   1      -0.386  10.049  19.196  0.00  0.00    +0.000 C 
ATOM      6  O   UNK A   1       0.361   9.834  18.243  0.00  0.00    +0.000 OA
ATOM      7  N   PRO A   2      -0.117   9.493  20.452  0.00  0.00    +0.000 N 
ATOM      8  CD  PRO A   2      -0.803   9.862  21.690  0.00  0.00    +0.000 C 
ATOM      9  CG  PRO A   2       0.287   9.912  22.747  0.00  0.00    +0.000 C 
ATOM     10  CB  PRO A   2       1.302   8.901  22.253  0.00  0.00    +0.000 C 
ATOM     11  CA  PRO A   2       1.270   9.082  20.731  0.00  0.00    +0.000 C 
BRANCH   5  14
ATOM     12  C   UNK A   1      -3.454  11.808  18.793  0.00  0.00    +0.000 A 
ATOM     13  N   UNK A   1      -2.737  10.743  18.478  0.00  0.00    +0.000 NA
ATOM     14  C   UNK A   1      -1.501  10.994  19.069  0.00  0.00    +0.000 A 
ATOM     15  C   UNK A   1      -1.526  12.248  19.625  0.00  0.00    +0.000 A 
ATOM     16  O   UNK A   1      -2.770  12.777  19.472  0.00  0.00    +0.000 OA
BRANCH  12  18
ATOM     17  C   UNK A   1      -5.245  11.967  17.079  0.00  0.00    +0.000 C 
ATOM     18  C   UNK A   1      -4.924  12.036  18.573  0.00  0.00    +0.000 C 
BRANCH  18  19
ATOM     19  N   UNK A   1      -5.350  13.352  19.084  0.00  0.00    +0.000 NA
ATOM     20  H   UNK A   1      -4.550  13.767  19.566  0.00  0.00    +0.000 HD
ATOM     21  H   UNK A   1      -6.031  13.191  19.828  0.00  0.00    +0.000 HD
ENDBRANCH  18  19
ENDBRANCH  12  18
ENDBRANCH   5  14
ENDBRANCH   1  11
BRANCH   3  22
ATOM     22  CA  TRP A   3       2.216   5.383  20.032  0.00  0.00    +0.000 C 
BRANCH  22  23
ATOM     23  C   TRP A   3       1.627   4.217  20.840  0.00  0.00    +0.000 C 
ATOM     24  O   TRP A   3       2.145   3.741  21.842  0.00  0.00    +0.000 OA
BRANCH  23  25
ATOM     25  OXT TRP A   3       0.455   3.739  20.352  0.00  0.00    +0.000 OA
ATOM     26  HXT TRP A   3      -0.163   3.401  21.028  0.00  0.00    +0.000 HD
ENDBRANCH  23  25
ENDBRANCH  22  23
BRANCH  22  27
ATOM     27  CB  TRP A   3       3.732   5.182  19.800  0.00  0.00    +0.000 C 
BRANCH  27  28
ATOM     28  CG  TRP A   3       4.041   4.394  18.561  0.00  0.00    +0.000 A 
ATOM     29  CD1 TRP A   3       4.035   3.018  18.446  0.00  0.00    +0.000 A 
ATOM     30  NE1 TRP A   3       4.640   2.692  17.262  0.00  0.00    +0.000 N 
ATOM     31  CE2 TRP A   3       4.988   3.831  16.583  0.00  0.00    +0.000 A 
ATOM     32  CZ2 TRP A   3       5.717   3.989  15.399  0.00  0.00    +0.000 A 
ATOM     33  CH2 TRP A   3       5.897   5.288  14.917  0.00  0.00    +0.000 A 
ATOM     34  CZ3 TRP A   3       5.323   6.379  15.565  0.00  0.00    +0.000 A 
ATOM     35  CE3 TRP A   3       4.622   6.207  16.764  0.00  0.00    +0.000 A 
ATOM     36  CD2 TRP A   3       4.496   4.914  17.309  0.00  0.00    +0.000 A 
ATOM     37  HE1 TRP A   3       4.854   1.752  16.963  0.00  0.00    +0.000 HD
ENDBRANCH  27  28
ENDBRANCH  22  27
ENDBRANCH   3  22
TORSDOF 9
ENDMDL
MODEL 2
REMARK VINA RESULT:      -8.0      2.349      9.370
REMARK  Name = 
REMARK  10 active torsions:
REMARK  status: ('A' for Active; 'I' for Inactive)
REMARK    1  A    between atoms: C_1  and  C_2
REMARK    2  A    between atoms: C_2  and  N_3
REMARK    3  A    between atoms: C_2  and  C_4
REMARK    4  A    between atoms: C_6  and  C_7
REMARK    5  A    between atoms: CA_13  and  C_14
REMARK    6  A    between atoms: N_16  and  CA_17
REMARK    7  A    between atoms: CA_17  and  CB_18
REMARK    8  A    between atoms: CA_17  and  C_28
REMARK    9  A    between atoms: CB_18  and  CG_19
REMARK   10  A    between atoms: C_28  and  OXT_30
REMARK                            x       y       z     vdW  Elec       q    Type
REMARK                         _______ _______ _______ _____ _____    ______ ____
ROOT
ATOM      1  C   PRO A   2       1.779   8.069  19.281  0.00  0.00    +0.000 C 
ATOM      2  O   PRO A   2       1.873   8.579  20.399  0.00  0.00    +0.000 OA
ATOM      3  N   TRP A   3       1.325   8.794  18.207  0.00  0.00    +0.000 N 
ATOM      4  H   TRP A   3       1.327   8.375  17.280  0.00  0.00    +0.000 HD
ENDROOT
BRANCH   1  11
ATOM      5  C   UNK A   1       4.195   6.955  17.446  0.00  0.00    +0.000 C 
ATOM      6  O   UNK A   1       3.557   7.810  16.835  0.00  0.00    +0.000 OA
ATOM      7  N   PRO A   2       3.749   6.484  18.687  0.00  0.00    +0.000 N 
ATOM      8  CD  PRO A   2       4.301   5.324  19.385  0.00  0.00    +0.000 C 
ATOM      9  CG  PRO A   2       3.098   4.598  19.961  0.00  0.00    +0.000 C 
ATOM     10  CB  PRO A   2       2.096   5.710  20.195  0.00  0.00    +0.000 C 
ATOM     11  CA  PRO A   2       2.319   6.645  19.002  0.00  0.00    +0.000 C 
BRANCH   5  14
ATOM     12  C   UNK A   1       6.617   5.229  15.491  0.00  0.00    +0.000 A 
ATOM     13  N   UNK A   1       5.353   5.314  15.869  0.00  0.00    +0.000 NA
ATOM     14  C   UNK A   1       5.366   6.320  16.832  0.00  0.00    +0.000 A 
ATOM     15  C   UNK A   1       6.664   6.713  17.040  0.00  0.00    +0.000 A 
ATOM     16  O   UNK A   1       7.475   6.038  16.181  0.00  0.00    +0.000 OA
BRANCH  12  18
ATOM     17  C   UNK A   1       7.708   5.369  13.264  0.00  0.00    +0.000 C 
ATOM     18  C   UNK A   1       7.196   4.430  14.357  0.00  0.00    +0.000 C 
BRANCH  18  19
ATOM     19  N   UNK A   1       6.193   3.524  13.765  0.00  0.00    +0.000 NA
ATOM     20  H   UNK A   1       5.565   3.231  14.516  0.00  0.00    +0.000 HD
ATOM     21  H   UNK A   1       6.673   2.665  13.492  0.00  0.00    +0.000 HD
ENDBRANCH  18  19
ENDBRANCH  12  18
ENDBRANCH   5  14
ENDBRANCH   1  11
BRANCH   3  22
ATOM     22  CA  TRP A   3       0.672  10.102  18.367  0.00  0.00    +0.000 C 
BRANCH  22  23
ATOM     23  C   TRP A   3       1.743  11.151  18.706  0.00  0.00    +0.000 C 
ATOM     24  O   TRP A   3       2.619  11.517  17.933  0.00  0.00    +0.000 OA
BRANCH  23  25
ATOM     25  OXT TRP A   3       1.645  11.660  19.959  0.00  0.00    +0.000 OA
ATOM     26  HXT TRP A   3       1.063  12.439  20.041  0.00  0.00    +0.000 HD
ENDBRANCH  23  25
ENDBRANCH  22  23
BRANCH  22  27
ATOM     27  CB  TRP A   3      -0.493  10.156  19.382  0.00  0.00    +0.000 C 
BRANCH  27  28
ATOM     28  CG  TRP A   3      -1.631  11.024  18.931  0.00  0.00    +0.000 A 
ATOM     29  CD1 TRP A   3      -2.242  12.019  19.668  0.00  0.00    +0.000 A 
ATOM     30  NE1 TRP A   3      -3.397  12.370  19.024  0.00  0.00    +0.000 N 
ATOM     31  CE2 TRP A   3      -3.519  11.662  17.856  0.00  0.00    +0.000 A 
ATOM     32  CZ2 TRP A   3      -4.575  11.608  16.940  0.00  0.00    +0.000 A 
ATOM     33  CH2 TRP A   3      -4.408  10.809  15.805  0.00  0.00    +0.000 A 
ATOM     34  CZ3 TRP A   3      -3.211  10.136  15.572  0.00  0.00    +0.000 A 
ATOM     35  CE3 TRP A   3      -2.176  10.177  16.513  0.00  0.00    +0.000 A 
ATOM     36  CD2 TRP A   3      -2.354  10.914  17.702  0.00  0.00    +0.000 A 
ATOM     37  HE1 TRP A   3      -4.088  13.011  19.388  0.00  0.00    +0.000 HD
ENDBRANCH  27  28
ENDBRANCH  22  27
ENDBRANCH   3  22
TORSDOF 9
ENDMDL
MODEL 3
REMARK VINA RESULT:      -7.7      1.443      1.753
REMARK  Name = 
REMARK  10 active torsions:
REMARK  status: ('A' for Active; 'I' for Inactive)
REMARK    1  A    between atoms: C_1  and  C_2
REMARK    2  A    between atoms: C_2  and  N_3
REMARK    3  A    between atoms: C_2  and  C_4
REMARK    4  A    between atoms: C_6  and  C_7
REMARK    5  A    between atoms: CA_13  and  C_14
REMARK    6  A    between atoms: N_16  and  CA_17
REMARK    7  A    between atoms: CA_17  and  CB_18
REMARK    8  A    between atoms: CA_17  and  C_28
REMARK    9  A    between atoms: CB_18  and  CG_19
REMARK   10  A    between atoms: C_28  and  OXT_30
REMARK                            x       y       z     vdW  Elec       q    Type
REMARK                         _______ _______ _______ _____ _____    ______ ____
ROOT
ATOM      1  C   PRO A   2       2.154   7.700  19.292  0.00  0.00    +0.000 C 
ATOM      2  O   PRO A   2       2.486   7.961  18.134  0.00  0.00    +0.000 OA
ATOM      3  N   TRP A   3       2.430   6.475  19.848  0.00  0.00    +0.000 N 
ATOM      4  H   TRP A   3       2.214   6.308  20.828  0.00  0.00    +0.000 HD
ENDROOT
BRANCH   1  11
ATOM      5  C   UNK A   1      -0.083   9.990  18.850  0.00  0.00    +0.000 C 
ATOM      6  O   UNK A   1       0.680   9.951  17.887  0.00  0.00    +0.000 OA
ATOM      7  N   PRO A   2       0.174   9.227  19.996  0.00  0.00    +0.000 N 
ATOM      8  CD  PRO A   2      -0.533   9.368  21.267  0.00  0.00    +0.000 C 
ATOM      9  CG  PRO A   2       0.540   9.244  22.334  0.00  0.00    +0.000 C 
ATOM     10  CB  PRO A   2       1.575   8.345  21.689  0.00  0.00    +0.000 C 
ATOM     11  CA  PRO A   2       1.562   8.787  20.222  0.00  0.00    +0.000 C 
BRANCH   5  14
ATOM     12  C   UNK A   1      -3.176  11.749  18.767  0.00  0.00    +0.000 A 
ATOM     13  N   UNK A   1      -2.468  10.730  18.313  0.00  0.00    +0.000 NA
ATOM     14  C   UNK A   1      -1.208  10.932  18.871  0.00  0.00    +0.000 A 
ATOM     15  C   UNK A   1      -1.215  12.121  19.553  0.00  0.00    +0.000 A 
ATOM     16  O   UNK A   1      -2.468  12.650  19.512  0.00  0.00    +0.000 OA
BRANCH  12  18
ATOM     17  C   UNK A   1      -5.216  12.523  19.955  0.00  0.00    +0.000 C 
ATOM     18  C   UNK A   1      -4.656  11.984  18.638  0.00  0.00    +0.000 C 
BRANCH  18  19
ATOM     19  N   UNK A   1      -5.373  10.741  18.297  0.00  0.00    +0.000 NA
ATOM     20  H   UNK A   1      -4.748   9.960  18.501  0.00  0.00    +0.000 HD
ATOM     21  H   UNK A   1      -5.481  10.714  17.282  0.00  0.00    +0.000 HD
ENDBRANCH  18  19
ENDBRANCH  12  18
ENDBRANCH   5  14
ENDBRANCH   1  11
BRANCH   3  22
ATOM     22  CA  TRP A   3       2.871   5.330  19.038  0.00  0.00    +0.000 C 
BRANCH  22  23
ATOM     23  C   TRP A   3       1.667   4.407  18.791  0.00  0.00    +0.000 C 
ATOM     24  O   TRP A   3       0.966   3.935  19.678  0.00  0.00    +0.000 OA
BRANCH  23  25
ATOM     25  OXT TRP A   3       1.426   4.145  17.482  0.00  0.00    +0.000 OA
ATOM     26  HXT TRP A   3       1.267   4.933  16.929  0.00  0.00    +0.000 HD
ENDBRANCH  23  25
ENDBRANCH  22  23
BRANCH  22  27
ATOM     27  CB  TRP A   3       4.073   4.531  19.593  0.00  0.00    +0.000 C 
BRANCH  27  28
ATOM     28  CG  TRP A   3       5.349   4.790  18.848  0.00  0.00    +0.000 A 
ATOM     29  CD1 TRP A   3       6.482   5.399  19.353  0.00  0.00    +0.000 A 
ATOM     30  NE1 TRP A   3       7.301   5.701  18.300  0.00  0.00    +0.000 N 
ATOM     31  CE2 TRP A   3       6.749   5.251  17.128  0.00  0.00    +0.000 A 
ATOM     32  CZ2 TRP A   3       7.169   5.429  15.806  0.00  0.00    +0.000 A 
ATOM     33  CH2 TRP A   3       6.413   4.821  14.799  0.00  0.00    +0.000 A 
ATOM     34  CZ3 TRP A   3       5.313   4.024  15.110  0.00  0.00    +0.000 A 
ATOM     35  CE3 TRP A   3       4.890   3.881  16.435  0.00  0.00    +0.000 A 
ATOM     36  CD2 TRP A   3       5.592   4.549  17.459  0.00  0.00    +0.000 A 
ATOM     37  HE1 TRP A   3       8.157   6.233  18.369  0.00  0.00    +0.000 HD
ENDBRANCH  27  28
ENDBRANCH  22  27
ENDBRANCH   3  22
TORSDOF 9
ENDMDL
MODEL 4
REMARK VINA RESULT:      -7.7      3.110      9.345
REMARK  Name = 
REMARK  10 active torsions:
REMARK  status: ('A' for Active; 'I' for Inactive)
REMARK    1  A    between atoms: C_1  and  C_2
REMARK    2  A    between atoms: C_2  and  N_3
REMARK    3  A    between atoms: C_2  and  C_4
REMARK    4  A    between atoms: C_6  and  C_7
REMARK    5  A    between atoms: CA_13  and  C_14
REMARK    6  A    between atoms: N_16  and  CA_17
REMARK    7  A    between atoms: CA_17  and  CB_18
REMARK    8  A    between atoms: CA_17  and  C_28
REMARK    9  A    between atoms: CB_18  and  CG_19
REMARK   10  A    between atoms: C_28  and  OXT_30
REMARK                            x       y       z     vdW  Elec       q    Type
REMARK                         _______ _______ _______ _____ _____    ______ ____
ROOT
ATOM      1  C   PRO A   2       2.391   6.677  19.098  0.00  0.00    +0.000 C 
ATOM      2  O   PRO A   2       2.997   6.596  20.167  0.00  0.00    +0.000 OA
ATOM      3  N   TRP A   3       1.780   7.847  18.717  0.00  0.00    +0.000 N 
ATOM      4  H   TRP A   3       1.350   7.913  17.798  0.00  0.00    +0.000 HD
ENDROOT
BRANCH   1  11
ATOM      5  C   UNK A   1       4.554   5.798  16.863  0.00  0.00    +0.000 C 
ATOM      6  O   UNK A   1       4.396   7.017  16.843  0.00  0.00    +0.000 OA
ATOM      7  N   PRO A   2       3.738   4.985  17.660  0.00  0.00    +0.000 N 
ATOM      8  CD  PRO A   2       3.692   3.526  17.588  0.00  0.00    +0.000 C 
ATOM      9  CG  PRO A   2       2.222   3.168  17.717  0.00  0.00    +0.000 C 
ATOM     10  CB  PRO A   2       1.659   4.295  18.559  0.00  0.00    +0.000 C 
ATOM     11  CA  PRO A   2       2.428   5.525  18.065  0.00  0.00    +0.000 C 
BRANCH   5  14
ATOM     12  C   UNK A   1       6.405   4.285  14.227  0.00  0.00    +0.000 A 
ATOM     13  N   UNK A   1       5.219   4.493  14.771  0.00  0.00    +0.000 NA
ATOM     14  C   UNK A   1       5.515   5.158  15.959  0.00  0.00    +0.000 A 
ATOM     15  C   UNK A   1       6.878   5.222  16.098  0.00  0.00    +0.000 A 
ATOM     16  O   UNK A   1       7.464   4.684  14.994  0.00  0.00    +0.000 OA
BRANCH  12  18
ATOM     17  C   UNK A   1       7.383   4.842  12.012  0.00  0.00    +0.000 C 
ATOM     18  C   UNK A   1       6.718   3.753  12.856  0.00  0.00    +0.000 C 
BRANCH  18  19
ATOM     19  N   UNK A   1       5.500   3.298  12.160  0.00  0.00    +0.000 NA
ATOM     20  H   UNK A   1       5.332   3.941  11.384  0.00  0.00    +0.000 HD
ATOM     21  H   UNK A   1       4.708   3.453  12.787  0.00  0.00    +0.000 HD
ENDBRANCH  18  19
ENDBRANCH  12  18
ENDBRANCH   5  14
ENDBRANCH   1  11
BRANCH   3  22
ATOM     22  CA  TRP A   3       1.570   8.960  19.655  0.00  0.00    +0.000 C 
BRANCH  22  23
ATOM     23  C   TRP A   3       1.004   8.399  20.968  0.00  0.00    +0.000 C 
ATOM     24  O   TRP A   3      -0.133   7.965  21.100  0.00  0.00    +0.000 OA
BRANCH  23  25
ATOM     25  OXT TRP A   3       1.881   8.415  22.003  0.00  0.00    +0.000 OA
ATOM     26  HXT TRP A   3       2.111   7.537  22.360  0.00  0.00    +0.000 HD
ENDBRANCH  23  25
ENDBRANCH  22  23
BRANCH  22  27
ATOM     27  CB  TRP A   3       0.699  10.127  19.134  0.00  0.00    +0.000 C 
BRANCH  27  28
ATOM     28  CG  TRP A   3       0.922  11.410  19.879  0.00  0.00    +0.000 A 
ATOM     29  CD1 TRP A   3       0.378  11.750  21.102  0.00  0.00    +0.000 A 
ATOM     30  NE1 TRP A   3       0.588  13.088  21.298  0.00  0.00    +0.000 N 
ATOM     31  CE2 TRP A   3       1.305  13.611  20.253  0.00  0.00    +0.000 A 
ATOM     32  CZ2 TRP A   3       1.654  14.936  19.970  0.00  0.00    +0.000 A 
ATOM     33  CH2 TRP A   3       2.428  15.173  18.831  0.00  0.00    +0.000 A 
ATOM     34  CZ3 TRP A   3       2.878  14.120  18.038  0.00  0.00    +0.000 A 
ATOM     35  CE3 TRP A   3       2.496  12.804  18.318  0.00  0.00    +0.000 A 
ATOM     36  CD2 TRP A   3       1.652  12.550  19.417  0.00  0.00    +0.000 A 
ATOM     37  HE1 TRP A   3       0.215  13.623  22.069  0.00  0.00    +0.000 HD
ENDBRANCH  27  28
ENDBRANCH  22  27
ENDBRANCH   3  22
TORSDOF 9
ENDMDL
MODEL 5
REMARK VINA RESULT:      -7.7      2.253      2.839
REMARK  Name = 
REMARK  10 active torsions:
REMARK  status: ('A' for Active; 'I' for Inactive)
REMARK    1  A    between atoms: C_1  and  C_2
REMARK    2  A    between atoms: C_2  and  N_3
REMARK    3  A    between atoms: C_2  and  C_4
REMARK    4  A    between atoms: C_6  and  C_7
REMARK    5  A    between atoms: CA_13  and  C_14
REMARK    6  A    between atoms: N_16  and  CA_17
REMARK    7  A    between atoms: CA_17  and  CB_18
REMARK    8  A    between atoms: CA_17  and  C_28
REMARK    9  A    between atoms: CB_18  and  CG_19
REMARK   10  A    between atoms: C_28  and  OXT_30
REMARK                            x       y       z     vdW  Elec       q    Type
REMARK                         _______ _______ _______ _____ _____    ______ ____
ROOT
ATOM      1  C   PRO A   2       1.626   8.058  20.085  0.00  0.00    +0.000 C 
ATOM      2  O   PRO A   2       1.660   8.125  18.855  0.00  0.00    +0.000 OA
ATOM      3  N   TRP A   3       2.085   6.946  20.747  0.00  0.00    +0.000 N 
ATOM      4  H   TRP A   3       2.116   6.944  21.763  0.00  0.00    +0.000 HD
ENDROOT
BRANCH   1  11
ATOM      5  C   UNK A   1       1.072  11.161  19.368  0.00  0.00    +0.000 C 
ATOM      6  O   UNK A   1       2.081  10.765  18.788  0.00  0.00    +0.000 OA
ATOM      7  N   PRO A   2       0.429  10.352  20.314  0.00  0.00    +0.000 N 
ATOM      8  CD  PRO A   2      -0.630  10.804  21.214  0.00  0.00    +0.000 C 
ATOM      9  CG  PRO A   2      -0.321  10.151  22.550  0.00  0.00    +0.000 C 
ATOM     10  CB  PRO A   2       0.384   8.868  22.158  0.00  0.00    +0.000 C 
ATOM     11  CA  PRO A   2       1.222   9.281  20.943  0.00  0.00    +0.000 C 
BRANCH   5  14
ATOM     12  C   UNK A   1       0.525  14.663  19.047  0.00  0.00    +0.000 A 
ATOM     13  N   UNK A   1       1.204  13.697  19.640  0.00  0.00    +0.000 NA
ATOM     14  C   UNK A   1       0.593  12.534  19.177  0.00  0.00    +0.000 A 
ATOM     15  C   UNK A   1      -0.483  12.883  18.402  0.00  0.00    +0.000 A 
ATOM     16  O   UNK A   1      -0.534  14.238  18.295  0.00  0.00    +0.000 OA
BRANCH  12  18
ATOM     17  C   UNK A   1       2.253  16.372  18.533  0.00  0.00    +0.000 C 
ATOM     18  C   UNK A   1       0.826  16.136  19.032  0.00  0.00    +0.000 C 
BRANCH  18  19
ATOM     19  N   UNK A   1       0.695  16.730  20.375  0.00  0.00    +0.000 NA
ATOM     20  H   UNK A   1       1.219  16.140  21.023  0.00  0.00    +0.000 HD
ATOM     21  H   UNK A   1      -0.277  16.620  20.669  0.00  0.00    +0.000 HD
ENDBRANCH  18  19
ENDBRANCH  12  18
ENDBRANCH   5  14
ENDBRANCH   1  11
BRANCH   3  22
ATOM     22  CA  TRP A   3       2.374   5.685  20.048  0.00  0.00    +0.000 C 
BRANCH  22  23
ATOM     23  C   TRP A   3       1.702   4.532  20.810  0.00  0.00    +0.000 C 
ATOM     24  O   TRP A   3       2.204   3.950  21.764  0.00  0.00    +0.000 OA
BRANCH  23  25
ATOM     25  OXT TRP A   3       0.474   4.197  20.341  0.00  0.00    +0.000 OA
ATOM     26  HXT TRP A   3       0.374   3.260  20.087  0.00  0.00    +0.000 HD
ENDBRANCH  23  25
ENDBRANCH  22  23
BRANCH  22  27
ATOM     27  CB  TRP A   3       3.869   5.380  19.794  0.00  0.00    +0.000 C 
BRANCH  27  28
ATOM     28  CG  TRP A   3       4.102   4.539  18.574  0.00  0.00    +0.000 A 
ATOM     29  CD1 TRP A   3       4.044   3.161  18.507  0.00  0.00    +0.000 A 
ATOM     30  NE1 TRP A   3       4.591   2.774  17.314  0.00  0.00    +0.000 N 
ATOM     31  CE2 TRP A   3       4.950   3.877  16.581  0.00  0.00    +0.000 A 
ATOM     32  CZ2 TRP A   3       5.636   3.968  15.365  0.00  0.00    +0.000 A 
ATOM     33  CH2 TRP A   3       5.841   5.243  14.831  0.00  0.00    +0.000 A 
ATOM     34  CZ3 TRP A   3       5.330   6.375  15.462  0.00  0.00    +0.000 A 
ATOM     35  CE3 TRP A   3       4.672   6.269  16.692  0.00  0.00    +0.000 A 
ATOM     36  CD2 TRP A   3       4.524   5.000  17.287  0.00  0.00    +0.000 A 
ATOM     37  HE1 TRP A   3       4.761   1.817  17.040  0.00  0.00    +0.000 HD
ENDBRANCH  27  28
ENDBRANCH  22  27
ENDBRANCH   3  22
TORSDOF 9
ENDMDL
MODEL 6
REMARK VINA RESULT:      -7.7      3.102      9.337
REMARK  Name = 
REMARK  10 active torsions:
REMARK  status: ('A' for Active; 'I' for Inactive)
REMARK    1  A    between atoms: C_1  and  C_2
REMARK    2  A    between atoms: C_2  and  N_3
REMARK    3  A    between atoms: C_2  and  C_4
REMARK    4  A    between atoms: C_6  and  C_7
REMARK    5  A    between atoms: CA_13  and  C_14
REMARK    6  A    between atoms: N_16  and  CA_17
REMARK    7  A    between atoms: CA_17  and  CB_18
REMARK    8  A    between atoms: CA_17  and  C_28
REMARK    9  A    between atoms: CB_18  and  CG_19
REMARK   10  A    between atoms: C_28  and  OXT_30
REMARK                            x       y       z     vdW  Elec       q    Type
REMARK                         _______ _______ _______ _____ _____    ______ ____
ROOT
ATOM      1  C   PRO A   2       2.373   6.911  19.124  0.00  0.00    +0.000 C 
ATOM      2  O   PRO A   2       3.114   6.923  20.109  0.00  0.00    +0.000 OA
ATOM      3  N   TRP A   3       1.582   7.991  18.818  0.00  0.00    +0.000 N 
ATOM      4  H   TRP A   3       1.035   7.987  17.961  0.00  0.00    +0.000 HD
ENDROOT
BRANCH   1  11
ATOM      5  C   UNK A   1       4.619   5.924  17.020  0.00  0.00    +0.000 C 
ATOM      6  O   UNK A   1       4.514   7.149  16.985  0.00  0.00    +0.000 OA
ATOM      7  N   PRO A   2       3.726   5.152  17.773  0.00  0.00    +0.000 N 
ATOM      8  CD  PRO A   2       3.621   3.696  17.705  0.00  0.00    +0.000 C 
ATOM      9  CG  PRO A   2       2.132   3.402  17.753  0.00  0.00    +0.000 C 
ATOM     10  CB  PRO A   2       1.572   4.558  18.557  0.00  0.00    +0.000 C 
ATOM     11  CA  PRO A   2       2.419   5.750  18.100  0.00  0.00    +0.000 C 
BRANCH   5  14
ATOM     12  C   UNK A   1       6.593   4.403  14.479  0.00  0.00    +0.000 A 
ATOM     13  N   UNK A   1       5.381   4.726  14.897  0.00  0.00    +0.000 NA
ATOM     14  C   UNK A   1       5.601   5.238  16.174  0.00  0.00    +0.000 A 
ATOM     15  C   UNK A   1       6.931   5.100  16.479  0.00  0.00    +0.000 A 
ATOM     16  O   UNK A   1       7.583   4.583  15.403  0.00  0.00    +0.000 OA
BRANCH  12  18
ATOM     17  C   UNK A   1       7.429   5.161  12.266  0.00  0.00    +0.000 C 
ATOM     18  C   UNK A   1       7.013   3.953  13.107  0.00  0.00    +0.000 C 
BRANCH  18  19
ATOM     19  N   UNK A   1       5.920   3.250  12.410  0.00  0.00    +0.000 NA
ATOM     20  H   UNK A   1       6.051   3.398  11.407  0.00  0.00    +0.000 HD
ATOM     21  H   UNK A   1       5.050   3.741  12.621  0.00  0.00    +0.000 HD
ENDBRANCH  18  19
ENDBRANCH  12  18
ENDBRANCH   5  14
ENDBRANCH   1  11
BRANCH   3  22
ATOM     22  CA  TRP A   3       1.358   9.090  19.770  0.00  0.00    +0.000 C 
BRANCH  22  23
ATOM     23  C   TRP A   3       0.881   8.497  21.105  0.00  0.00    +0.000 C 
ATOM     24  O   TRP A   3      -0.239   8.040  21.295  0.00  0.00    +0.000 OA
BRANCH  23  25
ATOM     25  OXT TRP A   3       1.816   8.514  22.087  0.00  0.00    +0.000 OA
ATOM     26  HXT TRP A   3       2.624   9.019  21.875  0.00  0.00    +0.000 HD
ENDBRANCH  23  25
ENDBRANCH  22  23
BRANCH  22  27
ATOM     27  CB  TRP A   3       0.407  10.213  19.294  0.00  0.00    +0.000 C 
BRANCH  27  28
ATOM     28  CG  TRP A   3       1.126  11.362  18.650  0.00  0.00    +0.000 A 
ATOM     29  CD1 TRP A   3       2.312  11.294  17.947  0.00  0.00    +0.000 A 
ATOM     30  NE1 TRP A   3       2.773  12.570  17.775  0.00  0.00    +0.000 N 
ATOM     31  CE2 TRP A   3       1.882  13.468  18.304  0.00  0.00    +0.000 A 
ATOM     32  CZ2 TRP A   3       1.982  14.855  18.457  0.00  0.00    +0.000 A 
ATOM     33  CH2 TRP A   3       0.889  15.526  19.012  0.00  0.00    +0.000 A 
ATOM     34  CZ3 TRP A   3      -0.277  14.841  19.350  0.00  0.00    +0.000 A 
ATOM     35  CE3 TRP A   3      -0.349  13.450  19.218  0.00  0.00    +0.000 A 
ATOM     36  CD2 TRP A   3       0.771  12.745  18.733  0.00  0.00    +0.000 A 
ATOM     37  HE1 TRP A   3       3.668  12.811  17.373  0.00  0.00    +0.000 HD
ENDBRANCH  27  28
ENDBRANCH  22  27
ENDBRANCH   3  22
TORSDOF 9
ENDMDL
MODEL 7
REMARK VINA RESULT:      -7.7      2.168      2.813
REMARK  Name = 
REMARK  10 active torsions:
REMARK  status: ('A' for Active; 'I' for Inactive)
REMARK    1  A    between atoms: C_1  and  C_2
REMARK    2  A    between atoms: C_2  and  N_3
REMARK    3  A    between atoms: C_2  and  C_4
REMARK    4  A    between atoms: C_6  and  C_7
REMARK    5  A    between atoms: CA_13  and  C_14
REMARK    6  A    between atoms: N_16  and  CA_17
REMARK    7  A    between atoms: CA_17  and  CB_18
REMARK    8  A    between atoms: CA_17  and  C_28
REMARK    9  A    between atoms: CB_18  and  CG_19
REMARK   10  A    between atoms: C_28  and  OXT_30
REMARK                            x       y       z     vdW  Elec       q    Type
REMARK                         _______ _______ _______ _____ _____    ______ ____
ROOT
ATOM      1  C   PRO A   2       2.284   7.393  19.252  0.00  0.00    +0.000 C 
ATOM      2  O   PRO A   2       2.674   7.684  18.120  0.00  0.00    +0.000 OA
ATOM      3  N   TRP A   3       2.422   6.117  19.743  0.00  0.00    +0.000 N 
ATOM      4  H   TRP A   3       2.161   5.919  20.706  0.00  0.00    +0.000 HD
ENDROOT
BRANCH   1  11
ATOM      5  C   UNK A   1       1.078  10.358  18.805  0.00  0.00    +0.000 C 
ATOM      6  O   UNK A   1       2.061  10.187  18.086  0.00  0.00    +0.000 OA
ATOM      7  N   PRO A   2       0.723   9.404  19.767  0.00  0.00    +0.000 N 
ATOM      8  CD  PRO A   2      -0.276   9.609  20.814  0.00  0.00    +0.000 C 
ATOM      9  CG  PRO A   2       0.317   8.974  22.059  0.00  0.00    +0.000 C 
ATOM     10  CB  PRO A   2       1.191   7.866  21.506  0.00  0.00    +0.000 C 
ATOM     11  CA  PRO A   2       1.774   8.480  20.229  0.00  0.00    +0.000 C 
BRANCH   5  14
ATOM     12  C   UNK A   1      -0.140  13.702  18.756  0.00  0.00    +0.000 A 
ATOM     13  N   UNK A   1       0.786  12.866  19.192  0.00  0.00    +0.000 NA
ATOM     14  C   UNK A   1       0.334  11.621  18.760  0.00  0.00    +0.000 A 
ATOM     15  C   UNK A   1      -0.893  11.781  18.169  0.00  0.00    +0.000 A 
ATOM     16  O   UNK A   1      -1.206  13.104  18.144  0.00  0.00    +0.000 OA
BRANCH  12  18
ATOM     17  C   UNK A   1       1.176  15.700  19.424  0.00  0.00    +0.000 C 
ATOM     18  C   UNK A   1      -0.118  15.205  18.777  0.00  0.00    +0.000 C 
BRANCH  18  19
ATOM     19  N   UNK A   1      -1.260  15.753  19.533  0.00  0.00    +0.000 NA
ATOM     20  H   UNK A   1      -1.202  15.385  20.484  0.00  0.00    +0.000 HD
ATOM     21  H   UNK A   1      -2.112  15.333  19.156  0.00  0.00    +0.000 HD
ENDBRANCH  18  19
ENDBRANCH  12  18
ENDBRANCH   5  14
ENDBRANCH   1  11
BRANCH   3  22
ATOM     22  CA  TRP A   3       2.771   4.981  18.879  0.00  0.00    +0.000 C 
BRANCH  22  23
ATOM     23  C   TRP A   3       1.530   4.092  18.704  0.00  0.00    +0.000 C 
ATOM     24  O   TRP A   3       0.874   3.635  19.632  0.00  0.00    +0.000 OA
BRANCH  23  25
ATOM     25  OXT TRP A   3       1.200   3.845  17.413  0.00  0.00    +0.000 OA
ATOM     26  HXT TRP A   3       1.959   3.718  16.812  0.00  0.00    +0.000 HD
ENDBRANCH  23  25
ENDBRANCH  22  23
BRANCH  22  27
ATOM     27  CB  TRP A   3       3.992   4.142  19.325  0.00  0.00    +0.000 C 
BRANCH  27  28
ATOM     28  CG  TRP A   3       5.279   4.593  18.702  0.00  0.00    +0.000 A 
ATOM     29  CD1 TRP A   3       6.276   5.323  19.320  0.00  0.00    +0.000 A 
ATOM     30  NE1 TRP A   3       7.132   5.770  18.351  0.00  0.00    +0.000 N 
ATOM     31  CE2 TRP A   3       6.742   5.298  17.123  0.00  0.00    +0.000 A 
ATOM     32  CZ2 TRP A   3       7.242   5.581  15.848  0.00  0.00    +0.000 A 
ATOM     33  CH2 TRP A   3       6.659   4.921  14.762  0.00  0.00    +0.000 A 
ATOM     34  CZ3 TRP A   3       5.652   3.977  14.954  0.00  0.00    +0.000 A 
ATOM     35  CE3 TRP A   3       5.144   3.728  16.234  0.00  0.00    +0.000 A 
ATOM     36  CD2 TRP A   3       5.665   4.440  17.333  0.00  0.00    +0.000 A 
ATOM     37  HE1 TRP A   3       7.901   6.405  18.509  0.00  0.00    +0.000 HD
ENDBRANCH  27  28
ENDBRANCH  22  27
ENDBRANCH   3  22
TORSDOF 9
ENDMDL
MODEL 8
REMARK VINA RESULT:      -7.6      0.972      1.176
REMARK  Name = 
REMARK  10 active torsions:
REMARK  status: ('A' for Active; 'I' for Inactive)
REMARK    1  A    between atoms: C_1  and  C_2
REMARK    2  A    between atoms: C_2  and  N_3
REMARK    3  A    between atoms: C_2  and  C_4
REMARK    4  A    between atoms: C_6  and  C_7
REMARK    5  A    between atoms: CA_13  and  C_14
REMARK    6  A    between atoms: N_16  and  CA_17
REMARK    7  A    between atoms: CA_17  and  CB_18
REMARK    8  A    between atoms: CA_17  and  C_28
REMARK    9  A    between atoms: CB_18  and  CG_19
REMARK   10  A    between atoms: C_28  and  OXT_30
REMARK                            x       y       z     vdW  Elec       q    Type
REMARK                         _______ _______ _______ _____ _____    ______ ____
ROOT
ATOM      1  C   PRO A   2       2.014   7.522  19.882  0.00  0.00    +0.000 C 
ATOM      2  O   PRO A   2       2.654   7.552  18.830  0.00  0.00    +0.000 OA
ATOM      3  N   TRP A   3       1.907   6.365  20.614  0.00  0.00    +0.000 N 
ATOM      4  H   TRP A   3       1.438   6.382  21.516  0.00  0.00    +0.000 HD
ENDROOT
BRANCH   1  11
ATOM      5  C   UNK A   1      -0.028   9.778  18.794  0.00  0.00    +0.000 C 
ATOM      6  O   UNK A   1       0.788   9.488  17.921  0.00  0.00    +0.000 OA
ATOM      7  N   PRO A   2       0.105   9.271  20.092  0.00  0.00    +0.000 N 
ATOM      8  CD  PRO A   2      -0.667   9.725  21.247  0.00  0.00    +0.000 C 
ATOM      9  CG  PRO A   2       0.327   9.780  22.394  0.00  0.00    +0.000 C 
ATOM     10  CB  PRO A   2       1.335   8.706  22.035  0.00  0.00    +0.000 C 
ATOM     11  CA  PRO A   2       1.443   8.817  20.511  0.00  0.00    +0.000 C 
BRANCH   5  14
ATOM     12  C   UNK A   1      -2.987  11.645  18.138  0.00  0.00    +0.000 A 
ATOM     13  N   UNK A   1      -2.341  10.501  17.987  0.00  0.00    +0.000 NA
ATOM     14  C   UNK A   1      -1.084  10.761  18.528  0.00  0.00    +0.000 A 
ATOM     15  C   UNK A   1      -1.024  12.084  18.886  0.00  0.00    +0.000 A 
ATOM     16  O   UNK A   1      -2.235  12.661  18.659  0.00  0.00    +0.000 OA
BRANCH  12  18
ATOM     17  C   UNK A   1      -5.246  11.684  19.170  0.00  0.00    +0.000 C 
ATOM     18  C   UNK A   1      -4.443  11.929  17.892  0.00  0.00    +0.000 C 
BRANCH  18  19
ATOM     19  N   UNK A   1      -4.988  11.072  16.823  0.00  0.00    +0.000 NA
ATOM     20  H   UNK A   1      -5.578  10.366  17.267  0.00  0.00    +0.000 HD
ATOM     21  H   UNK A   1      -4.214  10.536  16.429  0.00  0.00    +0.000 HD
ENDBRANCH  18  19
ENDBRANCH  12  18
ENDBRANCH   5  14
ENDBRANCH   1  11
BRANCH   3  22
ATOM     22  CA  TRP A   3       2.295   5.056  20.067  0.00  0.00    +0.000 C 
BRANCH  22  23
ATOM     23  C   TRP A   3       1.596   3.955  20.879  0.00  0.00    +0.000 C 
ATOM     24  O   TRP A   3       0.571   3.384  20.527  0.00  0.00    +0.000 OA
BRANCH  23  25
ATOM     25  OXT TRP A   3       2.213   3.647  22.046  0.00  0.00    +0.000 OA
ATOM     26  HXT TRP A   3       2.415   2.700  22.166  0.00  0.00    +0.000 HD
ENDBRANCH  23  25
ENDBRANCH  22  23
BRANCH  22  27
ATOM     27  CB  TRP A   3       3.815   4.788  19.969  0.00  0.00    +0.000 C 
BRANCH  27  28
ATOM     28  CG  TRP A   3       4.249   4.340  18.605  0.00  0.00    +0.000 A 
ATOM     29  CD1 TRP A   3       3.895   3.161  17.980  0.00  0.00    +0.000 A 
ATOM     30  NE1 TRP A   3       4.712   2.998  16.894  0.00  0.00    +0.000 N 
ATOM     31  CE2 TRP A   3       5.551   4.075  16.771  0.00  0.00    +0.000 A 
ATOM     32  CZ2 TRP A   3       6.616   4.293  15.889  0.00  0.00    +0.000 A 
ATOM     33  CH2 TRP A   3       7.287   5.516  15.975  0.00  0.00    +0.000 A 
ATOM     34  CZ3 TRP A   3       6.873   6.501  16.869  0.00  0.00    +0.000 A 
ATOM     35  CE3 TRP A   3       5.826   6.255  17.763  0.00  0.00    +0.000 A 
ATOM     36  CD2 TRP A   3       5.186   4.999  17.747  0.00  0.00    +0.000 A 
ATOM     37  HE1 TRP A   3       4.735   2.176  16.308  0.00  0.00    +0.000 HD
ENDBRANCH  27  28
ENDBRANCH  22  27
ENDBRANCH   3  22
TORSDOF 9
ENDMDL
MODEL 9
REMARK VINA RESULT:      -7.6      3.192      9.313
REMARK  Name = 
REMARK  10 active torsions:
REMARK  status: ('A' for Active; 'I' for Inactive)
REMARK    1  A    between atoms: C_1  and  C_2
REMARK    2  A    between atoms: C_2  and  N_3
REMARK    3  A    between atoms: C_2  and  C_4
REMARK    4  A    between atoms: C_6  and  C_7
REMARK    5  A    between atoms: CA_13  and  C_14
REMARK    6  A    between atoms: N_16  and  CA_17
REMARK    7  A    between atoms: CA_17  and  CB_18
REMARK    8  A    between atoms: CA_17  and  C_28
REMARK    9  A    between atoms: CB_18  and  CG_19
REMARK   10  A    between atoms: C_28  and  OXT_30
REMARK                            x       y       z     vdW  Elec       q    Type
REMARK                         _______ _______ _______ _____ _____    ______ ____
ROOT
ATOM      1  C   PRO A   2       1.807   8.017  19.775  0.00  0.00    +0.000 C 
ATOM      2  O   PRO A   2       1.834   8.343  20.962  0.00  0.00    +0.000 OA
ATOM      3  N   TRP A   3       1.546   8.940  18.792  0.00  0.00    +0.000 N 
ATOM      4  H   TRP A   3       1.603   8.663  17.815  0.00  0.00    +0.000 HD
ENDROOT
BRANCH   1  11
ATOM      5  C   UNK A   1       4.078   6.934  17.746  0.00  0.00    +0.000 C 
ATOM      6  O   UNK A   1       3.493   7.897  17.253  0.00  0.00    +0.000 OA
ATOM      7  N   PRO A   2       3.629   6.363  18.943  0.00  0.00    +0.000 N 
ATOM      8  CD  PRO A   2       4.106   5.095  19.491  0.00  0.00    +0.000 C 
ATOM      9  CG  PRO A   2       2.865   4.402  20.027  0.00  0.00    +0.000 C 
ATOM     10  CB  PRO A   2       1.961   5.554  20.416  0.00  0.00    +0.000 C 
ATOM     11  CA  PRO A   2       2.225   6.596  19.324  0.00  0.00    +0.000 C 
BRANCH   5  14
ATOM     12  C   UNK A   1       6.282   5.166  15.581  0.00  0.00    +0.000 A 
ATOM     13  N   UNK A   1       5.064   5.262  16.087  0.00  0.00    +0.000 NA
ATOM     14  C   UNK A   1       5.178   6.284  17.026  0.00  0.00    +0.000 A 
ATOM     15  C   UNK A   1       6.491   6.675  17.092  0.00  0.00    +0.000 A 
ATOM     16  O   UNK A   1       7.209   5.983  16.166  0.00  0.00    +0.000 OA
BRANCH  12  18
ATOM     17  C   UNK A   1       7.672   5.174  13.523  0.00  0.00    +0.000 C 
ATOM     18  C   UNK A   1       6.739   4.345  14.408  0.00  0.00    +0.000 C 
BRANCH  18  19
ATOM     19  N   UNK A   1       5.600   3.889  13.590  0.00  0.00    +0.000 NA
ATOM     20  H   UNK A   1       4.816   3.723  14.222  0.00  0.00    +0.000 HD
ATOM     21  H   UNK A   1       5.829   2.961  13.229  0.00  0.00    +0.000 HD
ENDBRANCH  18  19
ENDBRANCH  12  18
ENDBRANCH   5  14
ENDBRANCH   1  11
BRANCH   3  22
ATOM     22  CA  TRP A   3       1.017  10.278  19.097  0.00  0.00    +0.000 C 
BRANCH  22  23
ATOM     23  C   TRP A   3      -0.463  10.328  18.688  0.00  0.00    +0.000 C 
ATOM     24  O   TRP A   3      -1.373  10.670  19.434  0.00  0.00    +0.000 OA
BRANCH  23  25
ATOM     25  OXT TRP A   3      -0.699   9.960  17.405  0.00  0.00    +0.000 OA
ATOM     26  HXT TRP A   3      -0.090   9.284  17.053  0.00  0.00    +0.000 HD
ENDBRANCH  23  25
ENDBRANCH  22  23
BRANCH  22  27
ATOM     27  CB  TRP A   3       1.797  11.467  18.491  0.00  0.00    +0.000 C 
BRANCH  27  28
ATOM     28  CG  TRP A   3       1.847  12.664  19.394  0.00  0.00    +0.000 A 
ATOM     29  CD1 TRP A   3       1.358  12.735  20.684  0.00  0.00    +0.000 A 
ATOM     30  NE1 TRP A   3       1.336  14.053  21.053  0.00  0.00    +0.000 N 
ATOM     31  CE2 TRP A   3       1.853  14.832  20.050  0.00  0.00    +0.000 A 
ATOM     32  CZ2 TRP A   3       1.928  16.224  19.936  0.00  0.00    +0.000 A 
ATOM     33  CH2 TRP A   3       2.543  16.749  18.796  0.00  0.00    +0.000 A 
ATOM     34  CZ3 TRP A   3       3.108  15.911  17.836  0.00  0.00    +0.000 A 
ATOM     35  CE3 TRP A   3       2.998  14.521  17.951  0.00  0.00    +0.000 A 
ATOM     36  CD2 TRP A   3       2.313  13.972  19.054  0.00  0.00    +0.000 A 
ATOM     37  HE1 TRP A   3       0.940  14.404  21.913  0.00  0.00    +0.000 HD
ENDBRANCH  27  28
ENDBRANCH  22  27
ENDBRANCH   3  22
TORSDOF 9
ENDMDL
