MODEL 1
REMARK VINA RESULT:      -7.7      0.000      0.000
REMARK  Name = 
REMARK  7 active torsions:
REMARK  status: ('A' for Active; 'I' for Inactive)
REMARK    1  A    between atoms: C_2  and  O_3
REMARK    2  A    between atoms: C_2  and  C_4
REMARK    3  A    between atoms: C_4  and  N_5
REMARK    4  A    between atoms: C_6  and  C_8
REMARK    5  A    between atoms: C_9  and  O_10
REMARK    6  A    between atoms: N_13  and  C_14
REMARK    7  A    between atoms: C_14  and  C_15
REMARK                            x       y       z     vdW  Elec       q    Type
REMARK                         _______ _______ _______ _____ _____    ______ ____
ROOT
ATOM      1  C   UNL     1       2.957   5.962  18.960  0.00  0.00    +0.000 A 
ATOM      2  C   UNL     1       2.266   4.830  19.211  0.00  0.00    +0.000 A 
ATOM      3  C   UNL     1       2.859   3.560  18.944  0.00  0.00    +0.000 A 
ATOM      4  C   UNL     1       4.119   3.452  18.530  0.00  0.00    +0.000 A 
ATOM      5  N   UNL     1       4.913   4.563  18.318  0.00  0.00    +0.000 N 
ATOM      6  C   UNL     1       4.373   5.848  18.450  0.00  0.00    +0.000 A 
ATOM      7  O   UNL     1       4.986   6.875  18.147  0.00  0.00    +0.000 OA
ATOM      8  C   UNL     1       4.443   2.029  18.271  0.00  0.00    +0.000 C 
ATOM      9  O   UNL     1       3.285   1.290  18.723  0.00  0.00    +0.000 OA
ATOM     10  C   UNL     1       2.216   2.229  18.993  0.00  0.00    +0.000 C 
ENDROOT
BRANCH   1  12
ATOM     11  N   UNL     1       2.038   7.633  20.468  0.00  0.00    +0.000 N 
ATOM     12  C   UNL     1       2.278   7.273  19.167  0.00  0.00    +0.000 C 
ATOM     13  O   UNL     1       1.972   7.985  18.213  0.00  0.00    +0.000 OA
ATOM     14  H   UNL     1       2.364   7.018  21.218  0.00  0.00    +0.000 HD
BRANCH  11  15
ATOM     15  C   UNL     1       1.495   8.940  20.832  0.00  0.00    +0.000 C 
BRANCH  15  17
ATOM     16  O   UNL     1      -0.613   8.148  21.738  0.00  0.00    +0.000 OA
ATOM     17  C   UNL     1       0.390   8.835  21.875  0.00  0.00    +0.000 C 
BRANCH  17  18
ATOM     18  O   UNL     1       0.599   9.602  22.972  0.00  0.00    +0.000 OA
ATOM     19  H   UNL     1      -0.136   9.484  23.606  0.00  0.00    +0.000 HD
ENDBRANCH  17  18
ENDBRANCH  15  17
ENDBRANCH  11  15
ENDBRANCH   1  12
BRANCH   2  20
ATOM     20  O   UNL     1       0.976   4.759  19.689  0.00  0.00    +0.000 OA
ATOM     21  H   UNL     1       0.362   5.082  18.990  0.00  0.00    +0.000 HD
ENDBRANCH   2  20
BRANCH   5  22
ATOM     22  C   UNL     1       6.280   4.438  17.802  0.00  0.00    +0.000 C 
BRANCH  22  23
ATOM     23  C   UNL     1       6.388   4.582  16.314  0.00  0.00    +0.000 A 
ATOM     24  N   UNL     1       7.286   5.290  15.651  0.00  0.00    +0.000 NA
ATOM     25  C   UNL     1       7.116   4.902  14.345  0.00  0.00    +0.000 A 
ATOM     26  C   UNL     1       7.817   5.257  13.185  0.00  0.00    +0.000 A 
ATOM     27  C   UNL     1       7.432   4.674  11.970  0.00  0.00    +0.000 A 
ATOM     28  C   UNL     1       6.371   3.762  11.913  0.00  0.00    +0.000 A 
ATOM     29  C   UNL     1       5.659   3.394  13.065  0.00  0.00    +0.000 A 
ATOM     30  C   UNL     1       6.076   3.990  14.255  0.00  0.00    +0.000 A 
ATOM     31  O   UNL     1       5.598   3.779  15.523  0.00  0.00    +0.000 OA
ENDBRANCH  22  23
ENDBRANCH   5  22
TORSDOF 7
ENDMDL
MODEL 2
REMARK VINA RESULT:      -7.6      0.952      1.096
REMARK  Name = 
REMARK  7 active torsions:
REMARK  status: ('A' for Active; 'I' for Inactive)
REMARK    1  A    between atoms: C_2  and  O_3
REMARK    2  A    between atoms: C_2  and  C_4
REMARK    3  A    between atoms: C_4  and  N_5
REMARK    4  A    between atoms: C_6  and  C_8
REMARK    5  A    between atoms: C_9  and  O_10
REMARK    6  A    between atoms: N_13  and  C_14
REMARK    7  A    between atoms: C_14  and  C_15
REMARK                            x       y       z     vdW  Elec       q    Type
REMARK                         _______ _______ _______ _____ _____    ______ ____
ROOT
ATOM      1  C   UNL     1       3.119   6.514  18.796  0.00  0.00    +0.000 A 
ATOM      2  C   UNL     1       2.542   5.524  19.510  0.00  0.00    +0.000 A 
ATOM      3  C   UNL     1       3.210   4.272  19.657  0.00  0.00    +0.000 A 
ATOM      4  C   UNL     1       4.434   4.073  19.177  0.00  0.00    +0.000 A 
ATOM      5  N   UNL     1       5.118   5.062  18.495  0.00  0.00    +0.000 N 
ATOM      6  C   UNL     1       4.491   6.282  18.211  0.00  0.00    +0.000 A 
ATOM      7  O   UNL     1       4.993   7.151  17.495  0.00  0.00    +0.000 OA
ATOM      8  C   UNL     1       4.848   2.669  19.415  0.00  0.00    +0.000 C 
ATOM      9  O   UNL     1       3.794   2.099  20.225  0.00  0.00    +0.000 OA
ATOM     10  C   UNL     1       2.681   3.025  20.251  0.00  0.00    +0.000 C 
ENDROOT
BRANCH   1  12
ATOM     11  N   UNL     1       1.769   8.323  19.700  0.00  0.00    +0.000 N 
ATOM     12  C   UNL     1       2.358   7.779  18.588  0.00  0.00    +0.000 C 
ATOM     13  O   UNL     1       2.286   8.299  17.476  0.00  0.00    +0.000 OA
ATOM     14  H   UNL     1       1.910   7.867  20.605  0.00  0.00    +0.000 HD
BRANCH  11  15
ATOM     15  C   UNL     1       1.098   9.621  19.677  0.00  0.00    +0.000 C 
BRANCH  15  17
ATOM     16  O   UNL     1       0.924  11.177  21.531  0.00  0.00    +0.000 OA
ATOM     17  C   UNL     1       0.671  10.074  21.067  0.00  0.00    +0.000 C 
BRANCH  17  18
ATOM     18  O   UNL     1       0.005   9.126  21.770  0.00  0.00    +0.000 OA
ATOM     19  H   UNL     1       0.638   8.472  22.129  0.00  0.00    +0.000 HD
ENDBRANCH  17  18
ENDBRANCH  15  17
ENDBRANCH  11  15
ENDBRANCH   1  12
BRANCH   2  20
ATOM     20  O   UNL     1       1.307   5.578  20.118  0.00  0.00    +0.000 OA
ATOM     21  H   UNL     1       1.280   6.368  20.706  0.00  0.00    +0.000 HD
ENDBRANCH   2  20
BRANCH   5  22
ATOM     22  C   UNL     1       6.442   4.815  17.915  0.00  0.00    +0.000 C 
BRANCH  22  23
ATOM     23  C   UNL     1       6.463   4.817  16.417  0.00  0.00    +0.000 A 
ATOM     24  N   UNL     1       7.353   5.409  15.639  0.00  0.00    +0.000 NA
ATOM     25  C   UNL     1       7.082   4.914  14.388  0.00  0.00    +0.000 A 
ATOM     26  C   UNL     1       7.726   5.121  13.161  0.00  0.00    +0.000 A 
ATOM     27  C   UNL     1       7.236   4.452  12.030  0.00  0.00    +0.000 A 
ATOM     28  C   UNL     1       6.129   3.600  12.121  0.00  0.00    +0.000 A 
ATOM     29  C   UNL     1       5.473   3.380  13.341  0.00  0.00    +0.000 A 
ATOM     30  C   UNL     1       5.993   4.057  14.444  0.00  0.00    +0.000 A 
ATOM     31  O   UNL     1       5.585   3.990  15.751  0.00  0.00    +0.000 OA
ENDBRANCH  22  23
ENDBRANCH   5  22
TORSDOF 7
ENDMDL
MODEL 3
REMARK VINA RESULT:      -7.6      1.468      1.959
REMARK  Name = 
REMARK  7 active torsions:
REMARK  status: ('A' for Active; 'I' for Inactive)
REMARK    1  A    between atoms: C_2  and  O_3
REMARK    2  A    between atoms: C_2  and  C_4
REMARK    3  A    between atoms: C_4  and  N_5
REMARK    4  A    between atoms: C_6  and  C_8
REMARK    5  A    between atoms: C_9  and  O_10
REMARK    6  A    between atoms: N_13  and  C_14
REMARK    7  A    between atoms: C_14  and  C_15
REMARK                            x       y       z     vdW  Elec       q    Type
REMARK                         _______ _______ _______ _____ _____    ______ ____
ROOT
ATOM      1  C   UNL     1       2.995   6.377  19.035  0.00  0.00    +0.000 A 
ATOM      2  C   UNL     1       2.450   5.239  19.517  0.00  0.00    +0.000 A 
ATOM      3  C   UNL     1       3.166   4.010  19.419  0.00  0.00    +0.000 A 
ATOM      4  C   UNL     1       4.405   3.960  18.938  0.00  0.00    +0.000 A 
ATOM      5  N   UNL     1       5.057   5.094  18.490  0.00  0.00    +0.000 N 
ATOM      6  C   UNL     1       4.385   6.321  18.448  0.00  0.00    +0.000 A 
ATOM      7  O   UNL     1       4.861   7.337  17.938  0.00  0.00    +0.000 OA
ATOM      8  C   UNL     1       4.872   2.554  18.892  0.00  0.00    +0.000 C 
ATOM      9  O   UNL     1       3.831   1.790  19.542  0.00  0.00    +0.000 OA
ATOM     10  C   UNL     1       2.680   2.648  19.732  0.00  0.00    +0.000 C 
ENDROOT
BRANCH   1  12
ATOM     11  N   UNL     1       1.998   8.266  17.875  0.00  0.00    +0.000 N 
ATOM     12  C   UNL     1       2.186   7.627  19.074  0.00  0.00    +0.000 C 
ATOM     13  O   UNL     1       1.709   8.041  20.129  0.00  0.00    +0.000 OA
ATOM     14  H   UNL     1       2.379   7.842  17.026  0.00  0.00    +0.000 HD
BRANCH  11  15
ATOM     15  C   UNL     1       1.126   9.430  17.736  0.00  0.00    +0.000 C 
BRANCH  15  17
ATOM     16  O   UNL     1       1.605  11.253  19.266  0.00  0.00    +0.000 OA
ATOM     17  C   UNL     1       1.806  10.717  18.185  0.00  0.00    +0.000 C 
BRANCH  17  18
ATOM     18  O   UNL     1       2.643  11.244  17.258  0.00  0.00    +0.000 OA
ATOM     19  H   UNL     1       2.441  10.871  16.377  0.00  0.00    +0.000 HD
ENDBRANCH  17  18
ENDBRANCH  15  17
ENDBRANCH  11  15
ENDBRANCH   1  12
BRANCH   2  20
ATOM     20  O   UNL     1       1.204   5.121  20.094  0.00  0.00    +0.000 OA
ATOM     21  H   UNL     1       1.318   4.937  21.055  0.00  0.00    +0.000 HD
ENDBRANCH   2  20
BRANCH   5  22
ATOM     22  C   UNL     1       6.400   5.021  17.903  0.00  0.00    +0.000 C 
BRANCH  22  23
ATOM     23  C   UNL     1       6.409   4.953  16.406  0.00  0.00    +0.000 A 
ATOM     24  N   UNL     1       7.297   5.504  15.595  0.00  0.00    +0.000 NA
ATOM     25  C   UNL     1       7.013   4.952  14.370  0.00  0.00    +0.000 A 
ATOM     26  C   UNL     1       7.649   5.099  13.130  0.00  0.00    +0.000 A 
ATOM     27  C   UNL     1       7.147   4.381  12.036  0.00  0.00    +0.000 A 
ATOM     28  C   UNL     1       6.035   3.542  12.174  0.00  0.00    +0.000 A 
ATOM     29  C   UNL     1       5.388   3.382  13.408  0.00  0.00    +0.000 A 
ATOM     30  C   UNL     1       5.920   4.106  14.474  0.00  0.00    +0.000 A 
ATOM     31  O   UNL     1       5.522   4.102  15.786  0.00  0.00    +0.000 OA
ENDBRANCH  22  23
ENDBRANCH   5  22
TORSDOF 7
ENDMDL
MODEL 4
REMARK VINA RESULT:      -7.5      1.587      2.016
REMARK  Name = 
REMARK  7 active torsions:
REMARK  status: ('A' for Active; 'I' for Inactive)
REMARK    1  A    between atoms: C_2  and  O_3
REMARK    2  A    between atoms: C_2  and  C_4
REMARK    3  A    between atoms: C_4  and  N_5
REMARK    4  A    between atoms: C_6  and  C_8
REMARK    5  A    between atoms: C_9  and  O_10
REMARK    6  A    between atoms: N_13  and  C_14
REMARK    7  A    between atoms: C_14  and  C_15
REMARK                            x       y       z     vdW  Elec       q    Type
REMARK                         _______ _______ _______ _____ _____    ______ ____
ROOT
ATOM      1  C   UNL     1       3.208   6.755  18.556  0.00  0.00    +0.000 A 
ATOM      2  C   UNL     1       2.548   5.839  19.296  0.00  0.00    +0.000 A 
ATOM      3  C   UNL     1       3.152   4.575  19.568  0.00  0.00    +0.000 A 
ATOM      4  C   UNL     1       4.394   4.298  19.181  0.00  0.00    +0.000 A 
ATOM      5  N   UNL     1       5.159   5.211  18.480  0.00  0.00    +0.000 N 
ATOM      6  C   UNL     1       4.602   6.431  18.077  0.00  0.00    +0.000 A 
ATOM      7  O   UNL     1       5.183   7.229  17.339  0.00  0.00    +0.000 OA
ATOM      8  C   UNL     1       4.733   2.899  19.538  0.00  0.00    +0.000 C 
ATOM      9  O   UNL     1       3.608   2.426  20.314  0.00  0.00    +0.000 OA
ATOM     10  C   UNL     1       2.535   3.393  20.208  0.00  0.00    +0.000 C 
ENDROOT
BRANCH   1  12
ATOM     11  N   UNL     1       1.984   8.731  19.268  0.00  0.00    +0.000 N 
ATOM     12  C   UNL     1       2.515   8.030  18.216  0.00  0.00    +0.000 C 
ATOM     13  O   UNL     1       2.448   8.424  17.054  0.00  0.00    +0.000 OA
ATOM     14  H   UNL     1       2.119   8.373  20.217  0.00  0.00    +0.000 HD
BRANCH  11  15
ATOM     15  C   UNL     1       1.387  10.055  19.107  0.00  0.00    +0.000 C 
BRANCH  15  17
ATOM     16  O   UNL     1      -0.988   9.983  19.602  0.00  0.00    +0.000 OA
ATOM     17  C   UNL     1      -0.096   9.981  18.765  0.00  0.00    +0.000 C 
BRANCH  17  18
ATOM     18  O   UNL     1      -0.347   9.879  17.437  0.00  0.00    +0.000 OA
ATOM     19  H   UNL     1      -1.303   9.997  17.270  0.00  0.00    +0.000 HD
ENDBRANCH  17  18
ENDBRANCH  15  17
ENDBRANCH  11  15
ENDBRANCH   1  12
BRANCH   2  20
ATOM     20  O   UNL     1       1.282   5.981  19.819  0.00  0.00    +0.000 OA
ATOM     21  H   UNL     1       1.355   6.371  20.721  0.00  0.00    +0.000 HD
ENDBRANCH   2  20
BRANCH   5  22
ATOM     22  C   UNL     1       6.505   4.875  18.004  0.00  0.00    +0.000 C 
BRANCH  22  23
ATOM     23  C   UNL     1       6.564   4.502  16.554  0.00  0.00    +0.000 A 
ATOM     24  N   UNL     1       5.687   3.769  15.890  0.00  0.00    +0.000 NA
ATOM     25  C   UNL     1       6.051   3.926  14.575  0.00  0.00    +0.000 A 
ATOM     26  C   UNL     1       5.463   3.444  13.398  0.00  0.00    +0.000 A 
ATOM     27  C   UNL     1       6.047   3.792  12.172  0.00  0.00    +0.000 A 
ATOM     28  C   UNL     1       7.192   4.596  12.122  0.00  0.00    +0.000 A 
ATOM     29  C   UNL     1       7.792   5.088  13.290  0.00  0.00    +0.000 A 
ATOM     30  C   UNL     1       7.179   4.727  14.490  0.00  0.00    +0.000 A 
ATOM     31  O   UNL     1       7.519   5.102  15.764  0.00  0.00    +0.000 OA
ENDBRANCH  22  23
ENDBRANCH   5  22
TORSDOF 7
ENDMDL
MODEL 5
REMARK VINA RESULT:      -7.5      3.932      9.395
REMARK  Name = 
REMARK  7 active torsions:
REMARK  status: ('A' for Active; 'I' for Inactive)
REMARK    1  A    between atoms: C_2  and  O_3
REMARK    2  A    between atoms: C_2  and  C_4
REMARK    3  A    between atoms: C_4  and  N_5
REMARK    4  A    between atoms: C_6  and  C_8
REMARK    5  A    between atoms: C_9  and  O_10
REMARK    6  A    between atoms: N_13  and  C_14
REMARK    7  A    between atoms: C_14  and  C_15
REMARK                            x       y       z     vdW  Elec       q    Type
REMARK                         _______ _______ _______ _____ _____    ______ ____
ROOT
ATOM      1  C   UNL     1       1.886   8.182  19.165  0.00  0.00    +0.000 A 
ATOM      2  C   UNL     1       1.651   7.982  20.479  0.00  0.00    +0.000 A 
ATOM      3  C   UNL     1       1.042   9.011  21.258  0.00  0.00    +0.000 A 
ATOM      4  C   UNL     1       0.617  10.145  20.706  0.00  0.00    +0.000 A 
ATOM      5  N   UNL     1       0.759  10.394  19.354  0.00  0.00    +0.000 N 
ATOM      6  C   UNL     1       1.445   9.483  18.540  0.00  0.00    +0.000 A 
ATOM      7  O   UNL     1       1.723   9.706  17.360  0.00  0.00    +0.000 OA
ATOM      8  C   UNL     1       0.092  11.050  21.756  0.00  0.00    +0.000 C 
ATOM      9  O   UNL     1       0.113  10.268  22.972  0.00  0.00    +0.000 OA
ATOM     10  C   UNL     1       0.854   9.050  22.725  0.00  0.00    +0.000 C 
ENDROOT
BRANCH   1  12
ATOM     11  N   UNL     1       3.621   7.545  17.585  0.00  0.00    +0.000 N 
ATOM     12  C   UNL     1       2.602   7.123  18.399  0.00  0.00    +0.000 C 
ATOM     13  O   UNL     1       2.292   5.939  18.516  0.00  0.00    +0.000 OA
ATOM     14  H   UNL     1       3.861   8.540  17.573  0.00  0.00    +0.000 HD
BRANCH  11  15
ATOM     15  C   UNL     1       4.492   6.614  16.872  0.00  0.00    +0.000 C 
BRANCH  15  17
ATOM     16  O   UNL     1       6.801   7.361  16.833  0.00  0.00    +0.000 OA
ATOM     17  C   UNL     1       5.933   6.682  17.362  0.00  0.00    +0.000 C 
BRANCH  17  18
ATOM     18  O   UNL     1       6.184   5.889  18.432  0.00  0.00    +0.000 OA
ATOM     19  H   UNL     1       6.805   5.177  18.180  0.00  0.00    +0.000 HD
ENDBRANCH  17  18
ENDBRANCH  15  17
ENDBRANCH  11  15
ENDBRANCH   1  12
BRANCH   2  20
ATOM     20  O   UNL     1       1.976   6.852  21.196  0.00  0.00    +0.000 OA
ATOM     21  H   UNL     1       2.526   7.116  21.970  0.00  0.00    +0.000 HD
ENDBRANCH   2  20
BRANCH   5  22
ATOM     22  C   UNL     1       0.345  11.671  18.764  0.00  0.00    +0.000 C 
BRANCH  22  23
ATOM     23  C   UNL     1      -1.123  11.765  18.478  0.00  0.00    +0.000 A 
ATOM     24  N   UNL     1      -1.772  11.188  17.482  0.00  0.00    +0.000 NA
ATOM     25  C   UNL     1      -3.096  11.370  17.799  0.00  0.00    +0.000 A 
ATOM     26  C   UNL     1      -4.261  10.928  17.159  0.00  0.00    +0.000 A 
ATOM     27  C   UNL     1      -5.499  11.247  17.734  0.00  0.00    +0.000 A 
ATOM     28  C   UNL     1      -5.572  11.994  18.917  0.00  0.00    +0.000 A 
ATOM     29  C   UNL     1      -4.416  12.442  19.572  0.00  0.00    +0.000 A 
ATOM     30  C   UNL     1      -3.204  12.099  18.973  0.00  0.00    +0.000 A 
ATOM     31  O   UNL     1      -1.934  12.361  19.418  0.00  0.00    +0.000 OA
ENDBRANCH  22  23
ENDBRANCH   5  22
TORSDOF 7
ENDMDL
MODEL 6
REMARK VINA RESULT:      -7.4      1.464      1.616
REMARK  Name = 
REMARK  7 active torsions:
REMARK  status: ('A' for Active; 'I' for Inactive)
REMARK    1  A    between atoms: C_2  and  O_3
REMARK    2  A    between atoms: C_2  and  C_4
REMARK    3  A    between atoms: C_4  and  N_5
REMARK    4  A    between atoms: C_6  and  C_8
REMARK    5  A    between atoms: C_9  and  O_10
REMARK    6  A    between atoms: N_13  and  C_14
REMARK    7  A    between atoms: C_14  and  C_15
REMARK                            x       y       z     vdW  Elec       q    Type
REMARK                         _______ _______ _______ _____ _____    ______ ____
ROOT
ATOM      1  C   UNL     1       3.171   6.808  18.554  0.00  0.00    +0.000 A 
ATOM      2  C   UNL     1       2.536   5.929  19.359  0.00  0.00    +0.000 A 
ATOM      3  C   UNL     1       3.123   4.658  19.628  0.00  0.00    +0.000 A 
ATOM      4  C   UNL     1       4.332   4.337  19.173  0.00  0.00    +0.000 A 
ATOM      5  N   UNL     1       5.074   5.211  18.401  0.00  0.00    +0.000 N 
ATOM      6  C   UNL     1       4.524   6.434  17.999  0.00  0.00    +0.000 A 
ATOM      7  O   UNL     1       5.077   7.197  17.204  0.00  0.00    +0.000 OA
ATOM      8  C   UNL     1       4.657   2.940  19.548  0.00  0.00    +0.000 C 
ATOM      9  O   UNL     1       3.572   2.518  20.405  0.00  0.00    +0.000 OA
ATOM     10  C   UNL     1       2.519   3.510  20.339  0.00  0.00    +0.000 C 
ENDROOT
BRANCH   1  12
ATOM     11  N   UNL     1       1.921   8.765  19.272  0.00  0.00    +0.000 N 
ATOM     12  C   UNL     1       2.490   8.091  18.222  0.00  0.00    +0.000 C 
ATOM     13  O   UNL     1       2.464   8.515  17.069  0.00  0.00    +0.000 OA
ATOM     14  H   UNL     1       2.022   8.384  20.216  0.00  0.00    +0.000 HD
BRANCH  11  15
ATOM     15  C   UNL     1       1.330  10.093  19.123  0.00  0.00    +0.000 C 
BRANCH  15  17
ATOM     16  O   UNL     1      -0.623   9.806  17.710  0.00  0.00    +0.000 OA
ATOM     17  C   UNL     1      -0.162  10.030  18.821  0.00  0.00    +0.000 C 
BRANCH  17  18
ATOM     18  O   UNL     1      -0.948  10.277  19.896  0.00  0.00    +0.000 OA
ATOM     19  H   UNL     1      -0.432  10.162  20.719  0.00  0.00    +0.000 HD
ENDBRANCH  17  18
ENDBRANCH  15  17
ENDBRANCH  11  15
ENDBRANCH   1  12
BRANCH   2  20
ATOM     20  O   UNL     1       1.308   6.120  19.955  0.00  0.00    +0.000 OA
ATOM     21  H   UNL     1       0.651   5.528  19.519  0.00  0.00    +0.000 HD
ENDBRANCH   2  20
BRANCH   5  22
ATOM     22  C   UNL     1       6.378   4.826  17.852  0.00  0.00    +0.000 C 
BRANCH  22  23
ATOM     23  C   UNL     1       6.434   4.823  16.354  0.00  0.00    +0.000 A 
ATOM     24  N   UNL     1       7.346   5.405  15.595  0.00  0.00    +0.000 NA
ATOM     25  C   UNL     1       7.100   4.908  14.340  0.00  0.00    +0.000 A 
ATOM     26  C   UNL     1       7.773   5.106  13.127  0.00  0.00    +0.000 A 
ATOM     27  C   UNL     1       7.305   4.437  11.988  0.00  0.00    +0.000 A 
ATOM     28  C   UNL     1       6.188   3.596  12.055  0.00  0.00    +0.000 A 
ATOM     29  C   UNL     1       5.503   3.384  13.261  0.00  0.00    +0.000 A 
ATOM     30  C   UNL     1       6.003   4.061  14.374  0.00  0.00    +0.000 A 
ATOM     31  O   UNL     1       5.565   4.002  15.671  0.00  0.00    +0.000 OA
ENDBRANCH  22  23
ENDBRANCH   5  22
TORSDOF 7
ENDMDL
MODEL 7
REMARK VINA RESULT:      -7.4      1.146      1.566
REMARK  Name = 
REMARK  7 active torsions:
REMARK  status: ('A' for Active; 'I' for Inactive)
REMARK    1  A    between atoms: C_2  and  O_3
REMARK    2  A    between atoms: C_2  and  C_4
REMARK    3  A    between atoms: C_4  and  N_5
REMARK    4  A    between atoms: C_6  and  C_8
REMARK    5  A    between atoms: C_9  and  O_10
REMARK    6  A    between atoms: N_13  and  C_14
REMARK    7  A    between atoms: C_14  and  C_15
REMARK                            x       y       z     vdW  Elec       q    Type
REMARK                         _______ _______ _______ _____ _____    ______ ____
ROOT
ATOM      1  C   UNL     1       3.092   6.519  18.832  0.00  0.00    +0.000 A 
ATOM      2  C   UNL     1       2.543   5.485  19.507  0.00  0.00    +0.000 A 
ATOM      3  C   UNL     1       3.266   4.263  19.646  0.00  0.00    +0.000 A 
ATOM      4  C   UNL     1       4.513   4.135  19.201  0.00  0.00    +0.000 A 
ATOM      5  N   UNL     1       5.167   5.171  18.562  0.00  0.00    +0.000 N 
ATOM      6  C   UNL     1       4.491   6.365  18.286  0.00  0.00    +0.000 A 
ATOM      7  O   UNL     1       4.971   7.274  17.605  0.00  0.00    +0.000 OA
ATOM      8  C   UNL     1       4.986   2.747  19.421  0.00  0.00    +0.000 C 
ATOM      9  O   UNL     1       3.937   2.108  20.185  0.00  0.00    +0.000 OA
ATOM     10  C   UNL     1       2.780   2.979  20.197  0.00  0.00    +0.000 C 
ENDROOT
BRANCH   1  12
ATOM     11  N   UNL     1       1.766   8.333  19.759  0.00  0.00    +0.000 N 
ATOM     12  C   UNL     1       2.277   7.749  18.628  0.00  0.00    +0.000 C 
ATOM     13  O   UNL     1       2.098   8.211  17.503  0.00  0.00    +0.000 OA
ATOM     14  H   UNL     1       1.994   7.927  20.669  0.00  0.00    +0.000 HD
BRANCH  11  15
ATOM     15  C   UNL     1       1.055   9.609  19.729  0.00  0.00    +0.000 C 
BRANCH  15  17
ATOM     16  O   UNL     1       1.013  11.311  21.460  0.00  0.00    +0.000 OA
ATOM     17  C   UNL     1       0.792  10.154  21.128  0.00  0.00    +0.000 C 
BRANCH  17  18
ATOM     18  O   UNL     1       0.315   9.228  21.994  0.00  0.00    +0.000 OA
ATOM     19  H   UNL     1       1.055   8.825  22.490  0.00  0.00    +0.000 HD
ENDBRANCH  17  18
ENDBRANCH  15  17
ENDBRANCH  11  15
ENDBRANCH   1  12
BRANCH   2  20
ATOM     20  O   UNL     1       1.289   5.466  20.077  0.00  0.00    +0.000 OA
ATOM     21  H   UNL     1       1.381   5.242  21.032  0.00  0.00    +0.000 HD
ENDBRANCH   2  20
BRANCH   5  22
ATOM     22  C   UNL     1       6.519   5.001  18.018  0.00  0.00    +0.000 C 
BRANCH  22  23
ATOM     23  C   UNL     1       6.551   4.587  16.579  0.00  0.00    +0.000 A 
ATOM     24  N   UNL     1       5.637   3.876  15.940  0.00  0.00    +0.000 NA
ATOM     25  C   UNL     1       5.998   3.981  14.620  0.00  0.00    +0.000 A 
ATOM     26  C   UNL     1       5.381   3.494  13.460  0.00  0.00    +0.000 A 
ATOM     27  C   UNL     1       5.970   3.782  12.221  0.00  0.00    +0.000 A 
ATOM     28  C   UNL     1       7.150   4.533  12.142  0.00  0.00    +0.000 A 
ATOM     29  C   UNL     1       7.780   5.030  13.293  0.00  0.00    +0.000 A 
ATOM     30  C   UNL     1       7.160   4.729  14.506  0.00  0.00    +0.000 A 
ATOM     31  O   UNL     1       7.526   5.122  15.767  0.00  0.00    +0.000 OA
ENDBRANCH  22  23
ENDBRANCH   5  22
TORSDOF 7
ENDMDL
MODEL 8
REMARK VINA RESULT:      -7.3      4.334      7.350
REMARK  Name = 
REMARK  7 active torsions:
REMARK  status: ('A' for Active; 'I' for Inactive)
REMARK    1  A    between atoms: C_2  and  O_3
REMARK    2  A    between atoms: C_2  and  C_4
REMARK    3  A    between atoms: C_4  and  N_5
REMARK    4  A    between atoms: C_6  and  C_8
REMARK    5  A    between atoms: C_9  and  O_10
REMARK    6  A    between atoms: N_13  and  C_14
REMARK    7  A    between atoms: C_14  and  C_15
REMARK                            x       y       z     vdW  Elec       q    Type
REMARK                         _______ _______ _______ _____ _____    ______ ____
ROOT
ATOM      1  C   UNL     1      -0.423  10.698  19.099  0.00  0.00    +0.000 A 
ATOM      2  C   UNL     1      -0.843  10.992  20.348  0.00  0.00    +0.000 A 
ATOM      3  C   UNL     1      -0.228  10.363  21.471  0.00  0.00    +0.000 A 
ATOM      4  C   UNL     1       0.816   9.550  21.331  0.00  0.00    +0.000 A 
ATOM      5  N   UNL     1       1.347   9.256  20.090  0.00  0.00    +0.000 N 
ATOM      6  C   UNL     1       0.733   9.743  18.929  0.00  0.00    +0.000 A 
ATOM      7  O   UNL     1       1.075   9.411  17.792  0.00  0.00    +0.000 OA
ATOM      8  C   UNL     1       1.202   8.994  22.650  0.00  0.00    +0.000 C 
ATOM      9  O   UNL     1       0.369   9.686  23.609  0.00  0.00    +0.000 OA
ATOM     10  C   UNL     1      -0.648  10.424  22.889  0.00  0.00    +0.000 C 
ENDROOT
BRANCH   1  12
ATOM     11  N   UNL     1      -1.625  10.431  17.003  0.00  0.00    +0.000 N 
ATOM     12  C   UNL     1      -1.144  11.304  17.944  0.00  0.00    +0.000 C 
ATOM     13  O   UNL     1      -1.302  12.521  17.864  0.00  0.00    +0.000 OA
ATOM     14  H   UNL     1      -1.504   9.427  17.155  0.00  0.00    +0.000 HD
BRANCH  11  15
ATOM     15  C   UNL     1      -2.458  10.865  15.883  0.00  0.00    +0.000 C 
BRANCH  15  17
ATOM     16  O   UNL     1      -4.440  10.766  17.281  0.00  0.00    +0.000 OA
ATOM     17  C   UNL     1      -3.944  10.684  16.166  0.00  0.00    +0.000 C 
BRANCH  17  18
ATOM     18  O   UNL     1      -4.678  10.389  15.065  0.00  0.00    +0.000 OA
ATOM     19  H   UNL     1      -5.629  10.381  15.292  0.00  0.00    +0.000 HD
ENDBRANCH  17  18
ENDBRANCH  15  17
ENDBRANCH  11  15
ENDBRANCH   1  12
BRANCH   2  20
ATOM     20  O   UNL     1      -1.871  11.849  20.675  0.00  0.00    +0.000 OA
ATOM     21  H   UNL     1      -1.682  12.732  20.280  0.00  0.00    +0.000 HD
ENDBRANCH   2  20
BRANCH   5  22
ATOM     22  C   UNL     1       2.458   8.310  19.938  0.00  0.00    +0.000 C 
BRANCH  22  23
ATOM     23  C   UNL     1       2.029   6.910  19.619  0.00  0.00    +0.000 A 
ATOM     24  N   UNL     1       2.154   6.291  18.457  0.00  0.00    +0.000 NA
ATOM     25  C   UNL     1       1.851   4.983  18.745  0.00  0.00    +0.000 A 
ATOM     26  C   UNL     1       1.869   3.839  17.936  0.00  0.00    +0.000 A 
ATOM     27  C   UNL     1       1.532   2.608  18.516  0.00  0.00    +0.000 A 
ATOM     28  C   UNL     1       1.180   2.522  19.869  0.00  0.00    +0.000 A 
ATOM     29  C   UNL     1       1.160   3.656  20.694  0.00  0.00    +0.000 A 
ATOM     30  C   UNL     1       1.508   4.861  20.083  0.00  0.00    +0.000 A 
ATOM     31  O   UNL     1       1.618   6.102  20.655  0.00  0.00    +0.000 OA
ENDBRANCH  22  23
ENDBRANCH   5  22
TORSDOF 7
ENDMDL
MODEL 9
REMARK VINA RESULT:      -7.3      1.388      1.681
REMARK  Name = 
REMARK  7 active torsions:
REMARK  status: ('A' for Active; 'I' for Inactive)
REMARK    1  A    between atoms: C_2  and  O_3
REMARK    2  A    between atoms: C_2  and  C_4
REMARK    3  A    between atoms: C_4  and  N_5
REMARK    4  A    between atoms: C_6  and  C_8
REMARK    5  A    between atoms: C_9  and  O_10
REMARK    6  A    between atoms: N_13  and  C_14
REMARK    7  A    between atoms: C_14  and  C_15
REMARK                            x       y       z     vdW  Elec       q    Type
REMARK                         _______ _______ _______ _____ _____    ______ ____
ROOT
ATOM      1  C   UNL     1       3.048   6.216  18.857  0.00  0.00    +0.000 A 
ATOM      2  C   UNL     1       2.241   5.156  19.078  0.00  0.00    +0.000 A 
ATOM      3  C   UNL     1       2.702   3.838  18.788  0.00  0.00    +0.000 A 
ATOM      4  C   UNL     1       3.948   3.609  18.381  0.00  0.00    +0.000 A 
ATOM      5  N   UNL     1       4.855   4.636  18.199  0.00  0.00    +0.000 N 
ATOM      6  C   UNL     1       4.449   5.967  18.354  0.00  0.00    +0.000 A 
ATOM      7  O   UNL     1       5.167   6.931  18.078  0.00  0.00    +0.000 OA
ATOM      8  C   UNL     1       4.126   2.165  18.093  0.00  0.00    +0.000 C 
ATOM      9  O   UNL     1       2.894   1.541  18.521  0.00  0.00    +0.000 OA
ATOM     10  C   UNL     1       1.925   2.579  18.804  0.00  0.00    +0.000 C 
ENDROOT
BRANCH   1  12
ATOM     11  N   UNL     1       2.516   8.431  18.009  0.00  0.00    +0.000 N 
ATOM     12  C   UNL     1       2.506   7.585  19.088  0.00  0.00    +0.000 C 
ATOM     13  O   UNL     1       2.063   7.915  20.187  0.00  0.00    +0.000 OA
ATOM     14  H   UNL     1       2.851   8.079  17.109  0.00  0.00    +0.000 HD
BRANCH  11  15
ATOM     15  C   UNL     1       1.905   9.758  18.048  0.00  0.00    +0.000 C 
BRANCH  15  17
ATOM     16  O   UNL     1      -0.158   9.853  19.324  0.00  0.00    +0.000 OA
ATOM     17  C   UNL     1       0.395   9.692  18.245  0.00  0.00    +0.000 C 
BRANCH  17  18
ATOM     18  O   UNL     1      -0.292   9.404  17.113  0.00  0.00    +0.000 OA
ATOM     19  H   UNL     1      -0.833  10.175  16.848  0.00  0.00    +0.000 HD
ENDBRANCH  17  18
ENDBRANCH  15  17
ENDBRANCH  11  15
ENDBRANCH   1  12
BRANCH   2  20
ATOM     20  O   UNL     1       0.946   5.209  19.546  0.00  0.00    +0.000 OA
ATOM     21  H   UNL     1       0.533   6.048  19.235  0.00  0.00    +0.000 HD
ENDBRANCH   2  20
BRANCH   5  22
ATOM     22  C   UNL     1       6.206   4.381  17.690  0.00  0.00    +0.000 C 
BRANCH  22  23
ATOM     23  C   UNL     1       6.342   4.544  16.206  0.00  0.00    +0.000 A 
ATOM     24  N   UNL     1       7.212   5.309  15.571  0.00  0.00    +0.000 NA
ATOM     25  C   UNL     1       7.098   4.923  14.258  0.00  0.00    +0.000 A 
ATOM     26  C   UNL     1       7.805   5.328  13.119  0.00  0.00    +0.000 A 
ATOM     27  C   UNL     1       7.485   4.733  11.890  0.00  0.00    +0.000 A 
ATOM     28  C   UNL     1       6.482   3.761  11.800  0.00  0.00    +0.000 A 
ATOM     29  C   UNL     1       5.766   3.342  12.931  0.00  0.00    +0.000 A 
ATOM     30  C   UNL     1       6.117   3.951  14.136  0.00  0.00    +0.000 A 
ATOM     31  O   UNL     1       5.621   3.702  15.389  0.00  0.00    +0.000 OA
ENDBRANCH  22  23
ENDBRANCH   5  22
TORSDOF 7
ENDMDL
