MODEL 1
REMARK VINA RESULT:      -8.3      0.000      0.000
REMARK  Name = 
REMARK  6 active torsions:
REMARK  status: ('A' for Active; 'I' for Inactive)
REMARK    1  A    between atoms: C_2  and  C_3
REMARK    2  A    between atoms: C_3  and  S_4
REMARK    3  A    between atoms: S_4  and  C_5
REMARK    4  A    between atoms: N_9  and  C_10
REMARK    5  A    between atoms: C_10  and  C_11
REMARK    6  A    between atoms: N_21  and  C_22
REMARK                            x       y       z     vdW  Elec       q    Type
REMARK                         _______ _______ _______ _____ _____    ______ ____
ROOT
ATOM      1  C   UNL     1       3.169   6.916  17.888  0.00  0.00    +0.000 A 
ATOM      2  N   UNL     1       4.251   7.523  17.532  0.00  0.00    +0.000 NA
ATOM      3  C   UNL     1       5.317   6.760  17.101  0.00  0.00    +0.000 A 
ATOM      4  O   UNL     1       6.344   7.308  16.707  0.00  0.00    +0.000 OA
ATOM      5  N   UNL     1       5.206   5.360  17.128  0.00  0.00    +0.000 N 
ATOM      6  C   UNL     1       3.995   4.770  17.404  0.00  0.00    +0.000 A 
ATOM      7  C   UNL     1       2.934   5.487  17.766  0.00  0.00    +0.000 A 
ATOM      8  C   UNL     1       1.708   4.673  17.928  0.00  0.00    +0.000 C 
ATOM      9  C   UNL     1       2.280   3.251  17.952  0.00  0.00    +0.000 C 
ATOM     10  C   UNL     1       3.662   3.320  17.288  0.00  0.00    +0.000 C 
ENDROOT
BRANCH   1  11
ATOM     11  S   UNL     1       1.877   7.822  18.634  0.00  0.00    +0.000 S 
BRANCH  11  12
ATOM     12  C   UNL     1       2.342   9.509  18.175  0.00  0.00    +0.000 C 
BRANCH  12  14
ATOM     13  O   UNL     1       1.226  11.581  18.599  0.00  0.00    +0.000 OA
ATOM     14  C   UNL     1       1.124  10.414  18.229  0.00  0.00    +0.000 C 
ATOM     15  N   UNL     1      -0.056   9.772  17.885  0.00  0.00    +0.000 N 
ATOM     16  H   UNL     1      -0.021   8.759  17.802  0.00  0.00    +0.000 HD
BRANCH  15  17
ATOM     17  C   UNL     1      -1.333  10.369  17.826  0.00  0.00    +0.000 A 
ATOM     18  C   UNL     1      -1.852  11.175  18.846  0.00  0.00    +0.000 A 
ATOM     19  C   UNL     1      -3.143  11.706  18.752  0.00  0.00    +0.000 A 
ATOM     20  C   UNL     1      -3.924  11.435  17.634  0.00  0.00    +0.000 A 
ATOM     21  C   UNL     1      -3.396  10.661  16.608  0.00  0.00    +0.000 A 
ATOM     22  F   UNL     1      -4.145  10.401  15.528  0.00  0.00    +0.000 F 
ATOM     23  C   UNL     1      -2.106  10.139  16.686  0.00  0.00    +0.000 A 
ENDBRANCH  15  17
ENDBRANCH  12  14
ENDBRANCH  11  12
ENDBRANCH   1  11
BRANCH   5  24
ATOM     24  C   UNL     1       6.386   4.559  16.804  0.00  0.00    +0.000 C 
BRANCH  24  25
ATOM     25  C   UNL     1       6.567   4.470  15.332  0.00  0.00    +0.000 A 
ATOM     26  C   UNL     1       5.892   3.797  14.334  0.00  0.00    +0.000 A 
ATOM     27  C   UNL     1       6.566   4.098  13.127  0.00  0.00    +0.000 A 
ATOM     28  C   UNL     1       7.591   4.953  13.460  0.00  0.00    +0.000 A 
ATOM     29  O   UNL     1       7.598   5.186  14.798  0.00  0.00    +0.000 OA
ENDBRANCH  24  25
ENDBRANCH   5  24
TORSDOF 6
ENDMDL
MODEL 2
REMARK VINA RESULT:      -8.3      2.419      2.702
REMARK  Name = 
REMARK  6 active torsions:
REMARK  status: ('A' for Active; 'I' for Inactive)
REMARK    1  A    between atoms: C_2  and  C_3
REMARK    2  A    between atoms: C_3  and  S_4
REMARK    3  A    between atoms: S_4  and  C_5
REMARK    4  A    between atoms: N_9  and  C_10
REMARK    5  A    between atoms: C_10  and  C_11
REMARK    6  A    between atoms: N_21  and  C_22
REMARK                            x       y       z     vdW  Elec       q    Type
REMARK                         _______ _______ _______ _____ _____    ______ ____
ROOT
ATOM      1  C   UNL     1       3.548   6.611  17.923  0.00  0.00    +0.000 A 
ATOM      2  N   UNL     1       4.591   7.289  17.580  0.00  0.00    +0.000 NA
ATOM      3  C   UNL     1       5.656   6.610  17.023  0.00  0.00    +0.000 A 
ATOM      4  O   UNL     1       6.645   7.231  16.639  0.00  0.00    +0.000 OA
ATOM      5  N   UNL     1       5.587   5.212  16.910  0.00  0.00    +0.000 N 
ATOM      6  C   UNL     1       4.410   4.555  17.180  0.00  0.00    +0.000 A 
ATOM      7  C   UNL     1       3.349   5.195  17.664  0.00  0.00    +0.000 A 
ATOM      8  C   UNL     1       2.157   4.327  17.800  0.00  0.00    +0.000 C 
ATOM      9  C   UNL     1       2.771   2.930  17.649  0.00  0.00    +0.000 C 
ATOM     10  C   UNL     1       4.115   3.114  16.930  0.00  0.00    +0.000 C 
ENDROOT
BRANCH   1  11
ATOM     11  S   UNL     1       2.268   7.391  18.819  0.00  0.00    +0.000 S 
BRANCH  11  12
ATOM     12  C   UNL     1       2.036   8.891  17.835  0.00  0.00    +0.000 C 
BRANCH  12  14
ATOM     13  O   UNL     1      -0.166   9.820  17.755  0.00  0.00    +0.000 OA
ATOM     14  C   UNL     1       0.878   9.700  18.391  0.00  0.00    +0.000 C 
ATOM     15  N   UNL     1       1.160  10.302  19.609  0.00  0.00    +0.000 N 
ATOM     16  H   UNL     1       2.129  10.287  19.915  0.00  0.00    +0.000 HD
BRANCH  15  17
ATOM     17  C   UNL     1       0.267  11.090  20.364  0.00  0.00    +0.000 A 
ATOM     18  C   UNL     1      -0.112  12.387  19.998  0.00  0.00    +0.000 A 
ATOM     19  C   UNL     1      -0.967  13.140  20.809  0.00  0.00    +0.000 A 
ATOM     20  C   UNL     1      -1.451  12.599  21.995  0.00  0.00    +0.000 A 
ATOM     21  C   UNL     1      -1.099  11.300  22.342  0.00  0.00    +0.000 A 
ATOM     22  F   UNL     1      -1.567  10.775  23.482  0.00  0.00    +0.000 F 
ATOM     23  C   UNL     1      -0.259  10.538  21.534  0.00  0.00    +0.000 A 
ENDBRANCH  15  17
ENDBRANCH  12  14
ENDBRANCH  11  12
ENDBRANCH   1  11
BRANCH   5  24
ATOM     24  C   UNL     1       6.773   4.490  16.448  0.00  0.00    +0.000 C 
BRANCH  24  25
ATOM     25  C   UNL     1       6.827   4.471  14.964  0.00  0.00    +0.000 A 
ATOM     26  C   UNL     1       6.126   3.778  13.999  0.00  0.00    +0.000 A 
ATOM     27  C   UNL     1       6.659   4.182  12.753  0.00  0.00    +0.000 A 
ATOM     28  C   UNL     1       7.633   5.113  13.034  0.00  0.00    +0.000 A 
ATOM     29  O   UNL     1       7.740   5.296  14.375  0.00  0.00    +0.000 OA
ENDBRANCH  24  25
ENDBRANCH   5  24
TORSDOF 6
ENDMDL
MODEL 3
REMARK VINA RESULT:      -8.3      2.550      2.904
REMARK  Name = 
REMARK  6 active torsions:
REMARK  status: ('A' for Active; 'I' for Inactive)
REMARK    1  A    between atoms: C_2  and  C_3
REMARK    2  A    between atoms: C_3  and  S_4
REMARK    3  A    between atoms: S_4  and  C_5
REMARK    4  A    between atoms: N_9  and  C_10
REMARK    5  A    between atoms: C_10  and  C_11
REMARK    6  A    between atoms: N_21  and  C_22
REMARK                            x       y       z     vdW  Elec       q    Type
REMARK                         _______ _______ _______ _____ _____    ______ ____
ROOT
ATOM      1  C   UNL     1       3.579   6.505  18.045  0.00  0.00    +0.000 A 
ATOM      2  N   UNL     1       4.594   7.226  17.704  0.00  0.00    +0.000 NA
ATOM      3  C   UNL     1       5.670   6.598  17.110  0.00  0.00    +0.000 A 
ATOM      4  O   UNL     1       6.632   7.261  16.728  0.00  0.00    +0.000 OA
ATOM      5  N   UNL     1       5.645   5.202  16.959  0.00  0.00    +0.000 N 
ATOM      6  C   UNL     1       4.494   4.500  17.230  0.00  0.00    +0.000 A 
ATOM      7  C   UNL     1       3.421   5.091  17.750  0.00  0.00    +0.000 A 
ATOM      8  C   UNL     1       2.260   4.181  17.881  0.00  0.00    +0.000 C 
ATOM      9  C   UNL     1       2.916   2.810  17.680  0.00  0.00    +0.000 C 
ATOM     10  C   UNL     1       4.241   3.058  16.945  0.00  0.00    +0.000 C 
ENDROOT
BRANCH   1  11
ATOM     11  S   UNL     1       2.292   7.218  18.984  0.00  0.00    +0.000 S 
BRANCH  11  12
ATOM     12  C   UNL     1       1.923   8.683  17.990  0.00  0.00    +0.000 C 
BRANCH  12  14
ATOM     13  O   UNL     1       0.170  10.302  18.151  0.00  0.00    +0.000 OA
ATOM     14  C   UNL     1       0.982   9.601  18.750  0.00  0.00    +0.000 C 
ATOM     15  N   UNL     1       1.190   9.591  20.121  0.00  0.00    +0.000 N 
ATOM     16  H   UNL     1       2.029   9.124  20.456  0.00  0.00    +0.000 HD
BRANCH  15  17
ATOM     17  C   UNL     1       0.452  10.326  21.072  0.00  0.00    +0.000 A 
ATOM     18  C   UNL     1      -0.245   9.731  22.131  0.00  0.00    +0.000 A 
ATOM     19  C   UNL     1      -0.997  10.507  23.019  0.00  0.00    +0.000 A 
ATOM     20  C   UNL     1      -1.056  11.887  22.855  0.00  0.00    +0.000 A 
ATOM     21  C   UNL     1      -0.339  12.479  21.823  0.00  0.00    +0.000 A 
ATOM     22  F   UNL     1      -0.391  13.808  21.664  0.00  0.00    +0.000 F 
ATOM     23  C   UNL     1       0.424  11.716  20.941  0.00  0.00    +0.000 A 
ENDBRANCH  15  17
ENDBRANCH  12  14
ENDBRANCH  11  12
ENDBRANCH   1  11
BRANCH   5  24
ATOM     24  C   UNL     1       6.844   4.531  16.457  0.00  0.00    +0.000 C 
BRANCH  24  25
ATOM     25  C   UNL     1       6.847   4.511  14.972  0.00  0.00    +0.000 A 
ATOM     26  C   UNL     1       6.087   3.845  14.033  0.00  0.00    +0.000 A 
ATOM     27  C   UNL     1       6.593   4.228  12.768  0.00  0.00    +0.000 A 
ATOM     28  C   UNL     1       7.611   5.121  13.015  0.00  0.00    +0.000 A 
ATOM     29  O   UNL     1       7.771   5.300  14.351  0.00  0.00    +0.000 OA
ENDBRANCH  24  25
ENDBRANCH   5  24
TORSDOF 6
ENDMDL
MODEL 4
REMARK VINA RESULT:      -8.0      3.661      9.095
REMARK  Name = 
REMARK  6 active torsions:
REMARK  status: ('A' for Active; 'I' for Inactive)
REMARK    1  A    between atoms: C_2  and  C_3
REMARK    2  A    between atoms: C_3  and  S_4
REMARK    3  A    between atoms: S_4  and  C_5
REMARK    4  A    between atoms: N_9  and  C_10
REMARK    5  A    between atoms: C_10  and  C_11
REMARK    6  A    between atoms: N_21  and  C_22
REMARK                            x       y       z     vdW  Elec       q    Type
REMARK                         _______ _______ _______ _____ _____    ______ ____
ROOT
ATOM      1  C   UNL     1       1.568   7.945  20.375  0.00  0.00    +0.000 A 
ATOM      2  N   UNL     1       1.930   8.155  19.154  0.00  0.00    +0.000 NA
ATOM      3  C   UNL     1       1.494   9.307  18.532  0.00  0.00    +0.000 A 
ATOM      4  O   UNL     1       1.861   9.563  17.387  0.00  0.00    +0.000 OA
ATOM      5  N   UNL     1       0.626  10.167  19.226  0.00  0.00    +0.000 N 
ATOM      6  C   UNL     1       0.367   9.957  20.560  0.00  0.00    +0.000 A 
ATOM      7  C   UNL     1       0.825   8.884  21.199  0.00  0.00    +0.000 A 
ATOM      8  C   UNL     1       0.513   8.891  22.647  0.00  0.00    +0.000 C 
ATOM      9  C   UNL     1      -0.542   9.999  22.731  0.00  0.00    +0.000 C 
ATOM     10  C   UNL     1      -0.368  10.872  21.480  0.00  0.00    +0.000 C 
ENDROOT
BRANCH   1  11
ATOM     11  S   UNL     1       1.921   6.410  21.127  0.00  0.00    +0.000 S 
BRANCH  11  12
ATOM     12  C   UNL     1       1.633   5.283  19.742  0.00  0.00    +0.000 C 
BRANCH  12  14
ATOM     13  O   UNL     1       3.195   3.481  19.558  0.00  0.00    +0.000 OA
ATOM     14  C   UNL     1       2.944   4.657  19.304  0.00  0.00    +0.000 C 
ATOM     15  N   UNL     1       3.797   5.549  18.670  0.00  0.00    +0.000 N 
ATOM     16  H   UNL     1       3.547   6.534  18.714  0.00  0.00    +0.000 HD
BRANCH  15  17
ATOM     17  C   UNL     1       5.067   5.240  18.140  0.00  0.00    +0.000 A 
ATOM     18  C   UNL     1       5.256   4.696  16.864  0.00  0.00    +0.000 A 
ATOM     19  C   UNL     1       6.536   4.369  16.407  0.00  0.00    +0.000 A 
ATOM     20  C   UNL     1       7.640   4.585  17.224  0.00  0.00    +0.000 A 
ATOM     21  C   UNL     1       7.455   5.155  18.478  0.00  0.00    +0.000 A 
ATOM     22  F   UNL     1       8.517   5.368  19.266  0.00  0.00    +0.000 F 
ATOM     23  C   UNL     1       6.185   5.497  18.937  0.00  0.00    +0.000 A 
ENDBRANCH  15  17
ENDBRANCH  12  14
ENDBRANCH  11  12
ENDBRANCH   1  11
BRANCH   5  24
ATOM     24  C   UNL     1       0.059  11.311  18.511  0.00  0.00    +0.000 C 
BRANCH  24  25
ATOM     25  C   UNL     1      -1.322  11.008  18.056  0.00  0.00    +0.000 A 
ATOM     26  C   UNL     1      -1.859  10.032  17.242  0.00  0.00    +0.000 A 
ATOM     27  C   UNL     1      -3.248  10.291  17.174  0.00  0.00    +0.000 A 
ATOM     28  C   UNL     1      -3.474  11.392  17.968  0.00  0.00    +0.000 A 
ATOM     29  O   UNL     1      -2.310  11.833  18.510  0.00  0.00    +0.000 OA
ENDBRANCH  24  25
ENDBRANCH   5  24
TORSDOF 6
ENDMDL
MODEL 5
REMARK VINA RESULT:      -8.0      1.720      2.066
REMARK  Name = 
REMARK  6 active torsions:
REMARK  status: ('A' for Active; 'I' for Inactive)
REMARK    1  A    between atoms: C_2  and  C_3
REMARK    2  A    between atoms: C_3  and  S_4
REMARK    3  A    between atoms: S_4  and  C_5
REMARK    4  A    between atoms: N_9  and  C_10
REMARK    5  A    between atoms: C_10  and  C_11
REMARK    6  A    between atoms: N_21  and  C_22
REMARK                            x       y       z     vdW  Elec       q    Type
REMARK                         _______ _______ _______ _____ _____    ______ ____
ROOT
ATOM      1  C   UNL     1       3.497   6.500  17.965  0.00  0.00    +0.000 A 
ATOM      2  N   UNL     1       4.506   7.229  17.624  0.00  0.00    +0.000 NA
ATOM      3  C   UNL     1       5.598   6.606  17.056  0.00  0.00    +0.000 A 
ATOM      4  O   UNL     1       6.556   7.275  16.673  0.00  0.00    +0.000 OA
ATOM      5  N   UNL     1       5.594   5.206  16.930  0.00  0.00    +0.000 N 
ATOM      6  C   UNL     1       4.450   4.494  17.199  0.00  0.00    +0.000 A 
ATOM      7  C   UNL     1       3.362   5.079  17.694  0.00  0.00    +0.000 A 
ATOM      8  C   UNL     1       2.212   4.155  17.826  0.00  0.00    +0.000 C 
ATOM      9  C   UNL     1       2.889   2.790  17.659  0.00  0.00    +0.000 C 
ATOM     10  C   UNL     1       4.220   3.043  16.936  0.00  0.00    +0.000 C 
ENDROOT
BRANCH   1  11
ATOM     11  S   UNL     1       2.187   7.212  18.874  0.00  0.00    +0.000 S 
BRANCH  11  12
ATOM     12  C   UNL     1       1.961   8.766  17.977  0.00  0.00    +0.000 C 
BRANCH  12  14
ATOM     13  O   UNL     1       1.151   9.586  20.071  0.00  0.00    +0.000 OA
ATOM     14  C   UNL     1       1.258   9.778  18.863  0.00  0.00    +0.000 C 
ATOM     15  N   UNL     1       0.728  10.851  18.162  0.00  0.00    +0.000 N 
ATOM     16  H   UNL     1       0.711  10.775  17.148  0.00  0.00    +0.000 HD
BRANCH  15  17
ATOM     17  C   UNL     1       0.044  11.948  18.726  0.00  0.00    +0.000 A 
ATOM     18  C   UNL     1       0.599  13.229  18.832  0.00  0.00    +0.000 A 
ATOM     19  C   UNL     1      -0.110  14.269  19.442  0.00  0.00    +0.000 A 
ATOM     20  C   UNL     1      -1.383  14.035  19.950  0.00  0.00    +0.000 A 
ATOM     21  C   UNL     1      -1.946  12.771  19.816  0.00  0.00    +0.000 A 
ATOM     22  F   UNL     1      -3.174  12.544  20.301  0.00  0.00    +0.000 F 
ATOM     23  C   UNL     1      -1.253  11.732  19.198  0.00  0.00    +0.000 A 
ENDBRANCH  15  17
ENDBRANCH  12  14
ENDBRANCH  11  12
ENDBRANCH   1  11
BRANCH   5  24
ATOM     24  C   UNL     1       6.810   4.544  16.456  0.00  0.00    +0.000 C 
BRANCH  24  25
ATOM     25  C   UNL     1       6.842   4.515  14.972  0.00  0.00    +0.000 A 
ATOM     26  C   UNL     1       6.114   3.831  14.021  0.00  0.00    +0.000 A 
ATOM     27  C   UNL     1       6.638   4.216  12.765  0.00  0.00    +0.000 A 
ATOM     28  C   UNL     1       7.634   5.129  13.026  0.00  0.00    +0.000 A 
ATOM     29  O   UNL     1       7.764   5.318  14.364  0.00  0.00    +0.000 OA
ENDBRANCH  24  25
ENDBRANCH   5  24
TORSDOF 6
ENDMDL
MODEL 6
REMARK VINA RESULT:      -8.0      3.809      4.617
REMARK  Name = 
REMARK  6 active torsions:
REMARK  status: ('A' for Active; 'I' for Inactive)
REMARK    1  A    between atoms: C_2  and  C_3
REMARK    2  A    between atoms: C_3  and  S_4
REMARK    3  A    between atoms: S_4  and  C_5
REMARK    4  A    between atoms: N_9  and  C_10
REMARK    5  A    between atoms: C_10  and  C_11
REMARK    6  A    between atoms: N_21  and  C_22
REMARK                            x       y       z     vdW  Elec       q    Type
REMARK                         _______ _______ _______ _____ _____    ______ ____
ROOT
ATOM      1  C   UNL     1       1.752   7.435  20.062  0.00  0.00    +0.000 A 
ATOM      2  N   UNL     1       2.032   8.260  19.110  0.00  0.00    +0.000 NA
ATOM      3  C   UNL     1       2.821   7.814  18.070  0.00  0.00    +0.000 A 
ATOM      4  O   UNL     1       3.065   8.558  17.122  0.00  0.00    +0.000 OA
ATOM      5  N   UNL     1       3.337   6.508  18.120  0.00  0.00    +0.000 N 
ATOM      6  C   UNL     1       2.913   5.636  19.094  0.00  0.00    +0.000 A 
ATOM      7  C   UNL     1       2.106   6.025  20.077  0.00  0.00    +0.000 A 
ATOM      8  C   UNL     1       1.695   4.917  20.968  0.00  0.00    +0.000 C 
ATOM      9  C   UNL     1       2.688   3.817  20.574  0.00  0.00    +0.000 C 
ATOM     10  C   UNL     1       3.212   4.176  19.176  0.00  0.00    +0.000 C 
ENDROOT
BRANCH   1  11
ATOM     11  S   UNL     1       0.937   8.014  21.493  0.00  0.00    +0.000 S 
BRANCH  11  12
ATOM     12  C   UNL     1       0.559   9.713  21.001  0.00  0.00    +0.000 C 
BRANCH  12  14
ATOM     13  O   UNL     1       0.140  10.094  23.324  0.00  0.00    +0.000 OA
ATOM     14  C   UNL     1      -0.051  10.466  22.169  0.00  0.00    +0.000 C 
ATOM     15  N   UNL     1      -0.854  11.529  21.780  0.00  0.00    +0.000 N 
ATOM     16  H   UNL     1      -1.087  11.592  20.793  0.00  0.00    +0.000 HD
BRANCH  15  17
ATOM     17  C   UNL     1      -1.527  12.413  22.649  0.00  0.00    +0.000 A 
ATOM     18  C   UNL     1      -1.034  13.678  22.993  0.00  0.00    +0.000 A 
ATOM     19  C   UNL     1      -1.723  14.495  23.894  0.00  0.00    +0.000 A 
ATOM     20  C   UNL     1      -2.915  14.054  24.457  0.00  0.00    +0.000 A 
ATOM     21  C   UNL     1      -3.420  12.812  24.091  0.00  0.00    +0.000 A 
ATOM     22  F   UNL     1      -4.570  12.385  24.630  0.00  0.00    +0.000 F 
ATOM     23  C   UNL     1      -2.748  11.996  23.184  0.00  0.00    +0.000 A 
ENDBRANCH  15  17
ENDBRANCH  12  14
ENDBRANCH  11  12
ENDBRANCH   1  11
BRANCH   5  24
ATOM     24  C   UNL     1       4.284   6.091  17.085  0.00  0.00    +0.000 C 
BRANCH  24  25
ATOM     25  C   UNL     1       5.680   6.337  17.526  0.00  0.00    +0.000 A 
ATOM     26  C   UNL     1       6.515   5.703  18.423  0.00  0.00    +0.000 A 
ATOM     27  C   UNL     1       7.728   6.432  18.421  0.00  0.00    +0.000 A 
ATOM     28  C   UNL     1       7.566   7.447  17.506  0.00  0.00    +0.000 A 
ATOM     29  O   UNL     1       6.325   7.396  16.956  0.00  0.00    +0.000 OA
ENDBRANCH  24  25
ENDBRANCH   5  24
TORSDOF 6
ENDMDL
MODEL 7
REMARK VINA RESULT:      -8.0      3.357      8.788
REMARK  Name = 
REMARK  6 active torsions:
REMARK  status: ('A' for Active; 'I' for Inactive)
REMARK    1  A    between atoms: C_2  and  C_3
REMARK    2  A    between atoms: C_3  and  S_4
REMARK    3  A    between atoms: S_4  and  C_5
REMARK    4  A    between atoms: N_9  and  C_10
REMARK    5  A    between atoms: C_10  and  C_11
REMARK    6  A    between atoms: N_21  and  C_22
REMARK                            x       y       z     vdW  Elec       q    Type
REMARK                         _______ _______ _______ _____ _____    ______ ____
ROOT
ATOM      1  C   UNL     1       1.614   7.804  20.277  0.00  0.00    +0.000 A 
ATOM      2  N   UNL     1       1.987   8.037  19.064  0.00  0.00    +0.000 NA
ATOM      3  C   UNL     1       1.575   9.211  18.468  0.00  0.00    +0.000 A 
ATOM      4  O   UNL     1       1.954   9.487  17.331  0.00  0.00    +0.000 OA
ATOM      5  N   UNL     1       0.719  10.070  19.177  0.00  0.00    +0.000 N 
ATOM      6  C   UNL     1       0.449   9.832  20.504  0.00  0.00    +0.000 A 
ATOM      7  C   UNL     1       0.883   8.736  21.120  0.00  0.00    +0.000 A 
ATOM      8  C   UNL     1       0.564   8.714  22.565  0.00  0.00    +0.000 C 
ATOM      9  C   UNL     1      -0.472   9.839  22.672  0.00  0.00    +0.000 C 
ATOM     10  C   UNL     1      -0.275  10.738  21.443  0.00  0.00    +0.000 C 
ENDROOT
BRANCH   1  11
ATOM     11  S   UNL     1       1.935   6.245  20.994  0.00  0.00    +0.000 S 
BRANCH  11  12
ATOM     12  C   UNL     1       1.798   5.173  19.544  0.00  0.00    +0.000 C 
BRANCH  12  14
ATOM     13  O   UNL     1       3.956   4.157  19.697  0.00  0.00    +0.000 OA
ATOM     14  C   UNL     1       3.180   4.829  19.022  0.00  0.00    +0.000 C 
ATOM     15  N   UNL     1       3.459   5.390  17.784  0.00  0.00    +0.000 N 
ATOM     16  H   UNL     1       2.806   6.089  17.440  0.00  0.00    +0.000 HD
BRANCH  15  17
ATOM     17  C   UNL     1       4.653   5.221  17.052  0.00  0.00    +0.000 A 
ATOM     18  C   UNL     1       4.850   4.184  16.133  0.00  0.00    +0.000 A 
ATOM     19  C   UNL     1       6.072   4.040  15.468  0.00  0.00    +0.000 A 
ATOM     20  C   UNL     1       7.107   4.935  15.717  0.00  0.00    +0.000 A 
ATOM     21  C   UNL     1       6.899   5.982  16.606  0.00  0.00    +0.000 A 
ATOM     22  F   UNL     1       7.892   6.848  16.845  0.00  0.00    +0.000 F 
ATOM     23  C   UNL     1       5.681   6.142  17.264  0.00  0.00    +0.000 A 
ENDBRANCH  15  17
ENDBRANCH  12  14
ENDBRANCH  11  12
ENDBRANCH   1  11
BRANCH   5  24
ATOM     24  C   UNL     1       0.177  11.241  18.488  0.00  0.00    +0.000 C 
BRANCH  24  25
ATOM     25  C   UNL     1      -1.235  11.005  18.092  0.00  0.00    +0.000 A 
ATOM     26  C   UNL     1      -2.424  11.633  18.401  0.00  0.00    +0.000 A 
ATOM     27  C   UNL     1      -3.439  10.918  17.724  0.00  0.00    +0.000 A 
ATOM     28  C   UNL     1      -2.806   9.916  17.026  0.00  0.00    +0.000 A 
ATOM     29  O   UNL     1      -1.466   9.962  17.242  0.00  0.00    +0.000 OA
ENDBRANCH  24  25
ENDBRANCH   5  24
TORSDOF 6
ENDMDL
MODEL 8
REMARK VINA RESULT:      -8.0      2.187      2.524
REMARK  Name = 
REMARK  6 active torsions:
REMARK  status: ('A' for Active; 'I' for Inactive)
REMARK    1  A    between atoms: C_2  and  C_3
REMARK    2  A    between atoms: C_3  and  S_4
REMARK    3  A    between atoms: S_4  and  C_5
REMARK    4  A    between atoms: N_9  and  C_10
REMARK    5  A    between atoms: C_10  and  C_11
REMARK    6  A    between atoms: N_21  and  C_22
REMARK                            x       y       z     vdW  Elec       q    Type
REMARK                         _______ _______ _______ _____ _____    ______ ____
ROOT
ATOM      1  C   UNL     1       3.472   6.540  17.962  0.00  0.00    +0.000 A 
ATOM      2  N   UNL     1       4.494   7.248  17.615  0.00  0.00    +0.000 NA
ATOM      3  C   UNL     1       5.576   6.600  17.054  0.00  0.00    +0.000 A 
ATOM      4  O   UNL     1       6.545   7.248  16.666  0.00  0.00    +0.000 OA
ATOM      5  N   UNL     1       5.548   5.199  16.944  0.00  0.00    +0.000 N 
ATOM      6  C   UNL     1       4.391   4.509  17.220  0.00  0.00    +0.000 A 
ATOM      7  C   UNL     1       3.314   5.119  17.707  0.00  0.00    +0.000 A 
ATOM      8  C   UNL     1       2.148   4.217  17.848  0.00  0.00    +0.000 C 
ATOM      9  C   UNL     1       2.802   2.839  17.698  0.00  0.00    +0.000 C 
ATOM     10  C   UNL     1       4.137   3.060  16.974  0.00  0.00    +0.000 C 
ENDROOT
BRANCH   1  11
ATOM     11  S   UNL     1       2.174   7.285  18.862  0.00  0.00    +0.000 S 
BRANCH  11  12
ATOM     12  C   UNL     1       1.944   8.811  17.918  0.00  0.00    +0.000 C 
BRANCH  12  14
ATOM     13  O   UNL     1       1.153   9.678  20.001  0.00  0.00    +0.000 OA
ATOM     14  C   UNL     1       1.314   9.874  18.799  0.00  0.00    +0.000 C 
ATOM     15  N   UNL     1       0.914  11.004  18.101  0.00  0.00    +0.000 N 
ATOM     16  H   UNL     1       0.920  10.943  17.086  0.00  0.00    +0.000 HD
BRANCH  15  17
ATOM     17  C   UNL     1       0.322  12.154  18.663  0.00  0.00    +0.000 A 
ATOM     18  C   UNL     1      -0.915  12.140  19.318  0.00  0.00    +0.000 A 
ATOM     19  C   UNL     1      -1.474  13.321  19.819  0.00  0.00    +0.000 A 
ATOM     20  C   UNL     1      -0.797  14.526  19.668  0.00  0.00    +0.000 A 
ATOM     21  C   UNL     1       0.446  14.534  19.046  0.00  0.00    +0.000 A 
ATOM     22  F   UNL     1       1.102  15.693  18.903  0.00  0.00    +0.000 F 
ATOM     23  C   UNL     1       1.017  13.361  18.556  0.00  0.00    +0.000 A 
ENDBRANCH  15  17
ENDBRANCH  12  14
ENDBRANCH  11  12
ENDBRANCH   1  11
BRANCH   5  24
ATOM     24  C   UNL     1       6.752   4.511  16.479  0.00  0.00    +0.000 C 
BRANCH  24  25
ATOM     25  C   UNL     1       6.800   4.490  14.995  0.00  0.00    +0.000 A 
ATOM     26  C   UNL     1       6.074   3.819  14.033  0.00  0.00    +0.000 A 
ATOM     27  C   UNL     1       6.615   4.205  12.784  0.00  0.00    +0.000 A 
ATOM     28  C   UNL     1       7.619   5.104  13.061  0.00  0.00    +0.000 A 
ATOM     29  O   UNL     1       7.738   5.285  14.402  0.00  0.00    +0.000 OA
ENDBRANCH  24  25
ENDBRANCH   5  24
TORSDOF 6
ENDMDL
MODEL 9
REMARK VINA RESULT:      -8.0      3.368      8.825
REMARK  Name = 
REMARK  6 active torsions:
REMARK  status: ('A' for Active; 'I' for Inactive)
REMARK    1  A    between atoms: C_2  and  C_3
REMARK    2  A    between atoms: C_3  and  S_4
REMARK    3  A    between atoms: S_4  and  C_5
REMARK    4  A    between atoms: N_9  and  C_10
REMARK    5  A    between atoms: C_10  and  C_11
REMARK    6  A    between atoms: N_21  and  C_22
REMARK                            x       y       z     vdW  Elec       q    Type
REMARK                         _______ _______ _______ _____ _____    ______ ____
ROOT
ATOM      1  C   UNL     1       1.706   7.668  20.217  0.00  0.00    +0.000 A 
ATOM      2  N   UNL     1       2.065   7.914  19.002  0.00  0.00    +0.000 NA
ATOM      3  C   UNL     1       1.657   9.100  18.428  0.00  0.00    +0.000 A 
ATOM      4  O   UNL     1       2.022   9.388  17.290  0.00  0.00    +0.000 OA
ATOM      5  N   UNL     1       0.820   9.958  19.161  0.00  0.00    +0.000 N 
ATOM      6  C   UNL     1       0.566   9.705  20.488  0.00  0.00    +0.000 A 
ATOM      7  C   UNL     1       0.997   8.596  21.083  0.00  0.00    +0.000 A 
ATOM      8  C   UNL     1       0.697   8.557  22.533  0.00  0.00    +0.000 C 
ATOM      9  C   UNL     1      -0.325   9.691  22.668  0.00  0.00    +0.000 C 
ATOM     10  C   UNL     1      -0.135  10.605  21.449  0.00  0.00    +0.000 C 
ENDROOT
BRANCH   1  11
ATOM     11  S   UNL     1       2.021   6.096  20.909  0.00  0.00    +0.000 S 
BRANCH  11  12
ATOM     12  C   UNL     1       1.718   5.033  19.477  0.00  0.00    +0.000 C 
BRANCH  12  14
ATOM     13  O   UNL     1       3.407   3.341  19.431  0.00  0.00    +0.000 OA
ATOM     14  C   UNL     1       3.024   4.426  18.999  0.00  0.00    +0.000 C 
ATOM     15  N   UNL     1       3.716   5.235  18.110  0.00  0.00    +0.000 N 
ATOM     16  H   UNL     1       3.384   6.190  18.003  0.00  0.00    +0.000 HD
BRANCH  15  17
ATOM     17  C   UNL     1       4.942   4.917  17.489  0.00  0.00    +0.000 A 
ATOM     18  C   UNL     1       6.188   5.149  18.084  0.00  0.00    +0.000 A 
ATOM     19  C   UNL     1       7.373   4.854  17.402  0.00  0.00    +0.000 A 
ATOM     20  C   UNL     1       7.321   4.322  16.118  0.00  0.00    +0.000 A 
ATOM     21  C   UNL     1       6.083   4.063  15.541  0.00  0.00    +0.000 A 
ATOM     22  F   UNL     1       6.029   3.548  14.306  0.00  0.00    +0.000 F 
ATOM     23  C   UNL     1       4.897   4.341  16.217  0.00  0.00    +0.000 A 
ENDBRANCH  15  17
ENDBRANCH  12  14
ENDBRANCH  11  12
ENDBRANCH   1  11
BRANCH   5  24
ATOM     24  C   UNL     1       0.280  11.144  18.495  0.00  0.00    +0.000 C 
BRANCH  24  25
ATOM     25  C   UNL     1      -1.142  10.931  18.124  0.00  0.00    +0.000 A 
ATOM     26  C   UNL     1      -2.314  11.583  18.447  0.00  0.00    +0.000 A 
ATOM     27  C   UNL     1      -3.353  10.882  17.790  0.00  0.00    +0.000 A 
ATOM     28  C   UNL     1      -2.748   9.864  17.090  0.00  0.00    +0.000 A 
ATOM     29  O   UNL     1      -1.404   9.887  17.285  0.00  0.00    +0.000 OA
ENDBRANCH  24  25
ENDBRANCH   5  24
TORSDOF 6
ENDMDL
