MODEL 1
REMARK VINA RESULT:      -7.8      0.000      0.000
REMARK  Name = 
REMARK  17 active torsions:
REMARK  status: ('A' for Active; 'I' for Inactive)
REMARK    1  A    between atoms: C_1  and  C_2
REMARK    2  A    between atoms: C_3  and  C_4
REMARK    3  A    between atoms: C_7  and  O_8
REMARK    4  A    between atoms: O_8  and  C_9
REMARK    5  A    between atoms: C_9  and  C_10
REMARK    6  A    between atoms: N_12  and  C_13
REMARK    7  A    between atoms: C_13  and  C_14
REMARK    8  A    between atoms: C_14  and  O_15
REMARK    9  A    between atoms: C_14  and  C_16
REMARK   10  A    between atoms: C_16  and  N_17
REMARK   11  A    between atoms: C_18  and  C_20
REMARK   12  A    between atoms: C_22  and  C_23
REMARK   13  A    between atoms: C_22  and  C_24
REMARK   14  A    between atoms: C_26  and  C_27
REMARK   15  A    between atoms: C_26  and  C_28
REMARK   16  A    between atoms: C_29  and  O_30
REMARK   17  A    between atoms: O_30  and  C_31
REMARK                            x       y       z     vdW  Elec       q    Type
REMARK                         _______ _______ _______ _____ _____    ______ ____
ROOT
ATOM      1  C   UNL     1       1.365   8.863  21.394  0.00  0.00    +0.000 C 
ENDROOT
BRANCH   1   4
ATOM      2  C   UNL     1       2.151   7.625  19.433  0.00  0.00    +0.000 C 
ATOM      3  O   UNL     1       2.326   8.671  18.809  0.00  0.00    +0.000 OA
ATOM      4  N   UNL     1       1.663   7.609  20.723  0.00  0.00    +0.000 N 
ATOM      5  H   UNL     1       1.786   6.773  21.285  0.00  0.00    +0.000 HD
BRANCH   2   6
ATOM      6  C   UNL     1       2.373   6.254  18.797  0.00  0.00    +0.000 C 
BRANCH   6   7
ATOM      7  O   UNL     1       3.685   5.736  18.978  0.00  0.00    +0.000 OA
BRANCH   7  11
ATOM      8  C   UNL     1       5.676   4.608  15.447  0.00  0.00    +0.000 A 
ATOM      9  C   UNL     1       5.396   5.950  15.683  0.00  0.00    +0.000 A 
ATOM     10  C   UNL     1       4.742   6.341  16.853  0.00  0.00    +0.000 A 
ATOM     11  C   UNL     1       4.348   5.398  17.814  0.00  0.00    +0.000 A 
ATOM     12  C   UNL     1       4.673   4.042  17.609  0.00  0.00    +0.000 A 
ATOM     13  C   UNL     1       5.330   3.667  16.427  0.00  0.00    +0.000 A 
BRANCH   8  16
ATOM     14  C   UNL     1       6.561   3.268  11.933  0.00  0.00    +0.000 C 
ATOM     15  C   UNL     1       5.803   3.711  13.140  0.00  0.00    +0.000 C 
ATOM     16  C   UNL     1       6.400   4.224  14.228  0.00  0.00    +0.000 C 
ENDBRANCH   8  16
BRANCH  12  17
ATOM     17  O   UNL     1       4.318   3.149  18.592  0.00  0.00    +0.000 OA
ATOM     18  C   UNL     1       3.428   2.098  18.213  0.00  0.00    +0.000 C 
ENDBRANCH  12  17
ENDBRANCH   7  11
ENDBRANCH   6   7
ENDBRANCH   2   6
ENDBRANCH   1   4
BRANCH   1  19
ATOM     19  C   UNL     1      -0.098   9.295  21.227  0.00  0.00    +0.000 C 
BRANCH  19  20
ATOM     20  O   UNL     1      -0.604   9.757  22.494  0.00  0.00    +0.000 OA
ATOM     21  H   UNL     1      -1.491   9.376  22.615  0.00  0.00    +0.000 HD
ENDBRANCH  19  20
BRANCH  19  22
ATOM     22  C   UNL     1      -0.202  10.423  20.186  0.00  0.00    +0.000 C 
BRANCH  22  23
ATOM     23  N   UNL     1      -1.512  10.513  19.576  0.00  0.00    +0.000 N 
ATOM     24  C   UNL     1      -1.947  11.651  18.952  0.00  0.00    +0.000 C 
ATOM     25  O   UNL     1      -1.293  12.684  18.903  0.00  0.00    +0.000 OA
ATOM     26  H   UNL     1      -2.067   9.668  19.526  0.00  0.00    +0.000 HD
BRANCH  24  27
ATOM     27  C   UNL     1      -3.315  11.576  18.385  0.00  0.00    +0.000 C 
ATOM     28  C   UNL     1      -4.437  12.093  18.907  0.00  0.00    +0.000 C 
ATOM     29  C   UNL     1      -5.619  11.791  18.045  0.00  0.00    +0.000 C 
ATOM     30  C   UNL     1      -6.431  13.056  17.748  0.00  0.00    +0.000 C 
ATOM     31  C   UNL     1      -6.535  10.747  18.697  0.00  0.00    +0.000 C 
ATOM     32  N   UNL     1      -5.035  11.234  16.797  0.00  0.00    +0.000 NA
ATOM     33  C   UNL     1      -3.620  10.836  17.110  0.00  0.00    +0.000 C 
ATOM     34  C   UNL     1      -3.585   9.309  17.284  0.00  0.00    +0.000 C 
ATOM     35  C   UNL     1      -2.714  11.231  15.935  0.00  0.00    +0.000 C 
ATOM     36  H   UNL     1      -5.002  11.980  16.101  0.00  0.00    +0.000 HD
ENDBRANCH  24  27
ENDBRANCH  22  23
ENDBRANCH  19  22
ENDBRANCH   1  19
TORSDOF 11
ENDMDL
MODEL 2
REMARK VINA RESULT:      -7.7      3.733      9.767
REMARK  Name = 
REMARK  17 active torsions:
REMARK  status: ('A' for Active; 'I' for Inactive)
REMARK    1  A    between atoms: C_1  and  C_2
REMARK    2  A    between atoms: C_3  and  C_4
REMARK    3  A    between atoms: C_7  and  O_8
REMARK    4  A    between atoms: O_8  and  C_9
REMARK    5  A    between atoms: C_9  and  C_10
REMARK    6  A    between atoms: N_12  and  C_13
REMARK    7  A    between atoms: C_13  and  C_14
REMARK    8  A    between atoms: C_14  and  O_15
REMARK    9  A    between atoms: C_14  and  C_16
REMARK   10  A    between atoms: C_16  and  N_17
REMARK   11  A    between atoms: C_18  and  C_20
REMARK   12  A    between atoms: C_22  and  C_23
REMARK   13  A    between atoms: C_22  and  C_24
REMARK   14  A    between atoms: C_26  and  C_27
REMARK   15  A    between atoms: C_26  and  C_28
REMARK   16  A    between atoms: C_29  and  O_30
REMARK   17  A    between atoms: O_30  and  C_31
REMARK                            x       y       z     vdW  Elec       q    Type
REMARK                         _______ _______ _______ _____ _____    ______ ____
ROOT
ATOM      1  C   UNL     1       1.358   2.504  20.558  0.00  0.00    +0.000 C 
ENDROOT
BRANCH   1   4
ATOM      2  C   UNL     1       1.684   4.927  20.674  0.00  0.00    +0.000 C 
ATOM      3  O   UNL     1       2.810   4.781  21.149  0.00  0.00    +0.000 OA
ATOM      4  N   UNL     1       0.873   3.858  20.356  0.00  0.00    +0.000 N 
ATOM      5  H   UNL     1       0.086   4.006  19.732  0.00  0.00    +0.000 HD
BRANCH   2   6
ATOM      6  C   UNL     1       1.059   6.307  20.483  0.00  0.00    +0.000 C 
BRANCH   6   7
ATOM      7  O   UNL     1       1.999   7.374  20.465  0.00  0.00    +0.000 OA
BRANCH   7  11
ATOM      8  C   UNL     1       0.462  11.127  19.345  0.00  0.00    +0.000 A 
ATOM      9  C   UNL     1       0.967  10.270  18.372  0.00  0.00    +0.000 A 
ATOM     10  C   UNL     1       1.474   9.019  18.727  0.00  0.00    +0.000 A 
ATOM     11  C   UNL     1       1.493   8.596  20.065  0.00  0.00    +0.000 A 
ATOM     12  C   UNL     1       0.937   9.435  21.051  0.00  0.00    +0.000 A 
ATOM     13  C   UNL     1       0.432  10.690  20.676  0.00  0.00    +0.000 A 
BRANCH   8  16
ATOM     14  C   UNL     1      -0.107  14.910  18.802  0.00  0.00    +0.000 C 
ATOM     15  C   UNL     1       0.509  13.598  19.159  0.00  0.00    +0.000 C 
ATOM     16  C   UNL     1      -0.102  12.423  18.943  0.00  0.00    +0.000 C 
ENDBRANCH   8  16
BRANCH  12  17
ATOM     17  O   UNL     1       0.924   8.972  22.345  0.00  0.00    +0.000 OA
ATOM     18  C   UNL     1      -0.047   9.545  23.222  0.00  0.00    +0.000 C 
ENDBRANCH  12  17
ENDBRANCH   7  11
ENDBRANCH   6   7
ENDBRANCH   2   6
ENDBRANCH   1   4
BRANCH   1  19
ATOM     19  C   UNL     1       1.922   1.875  19.278  0.00  0.00    +0.000 C 
BRANCH  19  20
ATOM     20  O   UNL     1       1.362   2.546  18.132  0.00  0.00    +0.000 OA
ATOM     21  H   UNL     1       2.093   2.756  17.526  0.00  0.00    +0.000 HD
ENDBRANCH  19  20
BRANCH  19  22
ATOM     22  C   UNL     1       3.454   2.004  19.255  0.00  0.00    +0.000 C 
BRANCH  22  23
ATOM     23  N   UNL     1       3.945   2.732  18.103  0.00  0.00    +0.000 N 
ATOM     24  C   UNL     1       4.922   3.685  18.208  0.00  0.00    +0.000 C 
ATOM     25  O   UNL     1       5.417   4.029  19.273  0.00  0.00    +0.000 OA
ATOM     26  H   UNL     1       3.622   2.441  17.190  0.00  0.00    +0.000 HD
BRANCH  24  27
ATOM     27  C   UNL     1       5.304   4.338  16.933  0.00  0.00    +0.000 C 
ATOM     28  C   UNL     1       5.719   3.738  15.808  0.00  0.00    +0.000 C 
ATOM     29  C   UNL     1       6.024   4.742  14.744  0.00  0.00    +0.000 C 
ATOM     30  C   UNL     1       5.330   4.385  13.425  0.00  0.00    +0.000 C 
ATOM     31  C   UNL     1       7.535   4.859  14.502  0.00  0.00    +0.000 C 
ATOM     32  N   UNL     1       5.503   6.024  15.284  0.00  0.00    +0.000 NA
ATOM     33  C   UNL     1       5.307   5.834  16.762  0.00  0.00    +0.000 C 
ATOM     34  C   UNL     1       6.479   6.515  17.486  0.00  0.00    +0.000 C 
ATOM     35  C   UNL     1       3.993   6.507  17.186  0.00  0.00    +0.000 C 
ATOM     36  H   UNL     1       4.587   6.195  14.868  0.00  0.00    +0.000 HD
ENDBRANCH  24  27
ENDBRANCH  22  23
ENDBRANCH  19  22
ENDBRANCH   1  19
TORSDOF 11
ENDMDL
MODEL 3
REMARK VINA RESULT:      -7.6      2.474     10.122
REMARK  Name = 
REMARK  17 active torsions:
REMARK  status: ('A' for Active; 'I' for Inactive)
REMARK    1  A    between atoms: C_1  and  C_2
REMARK    2  A    between atoms: C_3  and  C_4
REMARK    3  A    between atoms: C_7  and  O_8
REMARK    4  A    between atoms: O_8  and  C_9
REMARK    5  A    between atoms: C_9  and  C_10
REMARK    6  A    between atoms: N_12  and  C_13
REMARK    7  A    between atoms: C_13  and  C_14
REMARK    8  A    between atoms: C_14  and  O_15
REMARK    9  A    between atoms: C_14  and  C_16
REMARK   10  A    between atoms: C_16  and  N_17
REMARK   11  A    between atoms: C_18  and  C_20
REMARK   12  A    between atoms: C_22  and  C_23
REMARK   13  A    between atoms: C_22  and  C_24
REMARK   14  A    between atoms: C_26  and  C_27
REMARK   15  A    between atoms: C_26  and  C_28
REMARK   16  A    between atoms: C_29  and  O_30
REMARK   17  A    between atoms: O_30  and  C_31
REMARK                            x       y       z     vdW  Elec       q    Type
REMARK                         _______ _______ _______ _____ _____    ______ ____
ROOT
ATOM      1  C   UNL     1       2.252   5.460  21.044  0.00  0.00    +0.000 C 
ENDROOT
BRANCH   1   4
ATOM      2  C   UNL     1       1.679   7.727  20.321  0.00  0.00    +0.000 C 
ATOM      3  O   UNL     1       1.102   7.950  21.385  0.00  0.00    +0.000 OA
ATOM      4  N   UNL     1       2.274   6.515  20.045  0.00  0.00    +0.000 N 
ATOM      5  H   UNL     1       2.955   6.460  19.294  0.00  0.00    +0.000 HD
BRANCH   2   6
ATOM      6  C   UNL     1       1.704   8.746  19.184  0.00  0.00    +0.000 C 
BRANCH   6   7
ATOM      7  O   UNL     1       1.197  10.026  19.540  0.00  0.00    +0.000 OA
BRANCH   7  11
ATOM      8  C   UNL     1      -2.571  11.058  17.978  0.00  0.00    +0.000 A 
ATOM      9  C   UNL     1      -1.797  10.097  17.334  0.00  0.00    +0.000 A 
ATOM     10  C   UNL     1      -0.548   9.739  17.844  0.00  0.00    +0.000 A 
ATOM     11  C   UNL     1      -0.040  10.337  19.008  0.00  0.00    +0.000 A 
ATOM     12  C   UNL     1      -0.838  11.274  19.695  0.00  0.00    +0.000 A 
ATOM     13  C   UNL     1      -2.092  11.622  19.168  0.00  0.00    +0.000 A 
BRANCH   8  16
ATOM     14  C   UNL     1      -6.314  11.964  17.661  0.00  0.00    +0.000 C 
ATOM     15  C   UNL     1      -4.956  11.692  18.216  0.00  0.00    +0.000 C 
ATOM     16  C   UNL     1      -3.900  11.390  17.445  0.00  0.00    +0.000 C 
ENDBRANCH   8  16
BRANCH  12  17
ATOM     17  O   UNL     1      -0.334  11.804  20.859  0.00  0.00    +0.000 OA
ATOM     18  C   UNL     1      -0.189  13.224  20.906  0.00  0.00    +0.000 C 
ENDBRANCH  12  17
ENDBRANCH   7  11
ENDBRANCH   6   7
ENDBRANCH   2   6
ENDBRANCH   1   4
BRANCH   1  19
ATOM     19  C   UNL     1       2.020   4.070  20.438  0.00  0.00    +0.000 C 
BRANCH  19  20
ATOM     20  O   UNL     1       1.163   4.191  19.285  0.00  0.00    +0.000 OA
ATOM     21  H   UNL     1       0.849   5.111  19.246  0.00  0.00    +0.000 HD
ENDBRANCH  19  20
BRANCH  19  22
ATOM     22  C   UNL     1       3.361   3.442  20.022  0.00  0.00    +0.000 C 
BRANCH  22  23
ATOM     23  N   UNL     1       3.821   3.894  18.724  0.00  0.00    +0.000 N 
ATOM     24  C   UNL     1       5.125   4.245  18.497  0.00  0.00    +0.000 C 
ATOM     25  O   UNL     1       5.983   4.251  19.369  0.00  0.00    +0.000 OA
ATOM     26  H   UNL     1       3.171   3.844  17.951  0.00  0.00    +0.000 HD
BRANCH  24  27
ATOM     27  C   UNL     1       5.425   4.690  17.115  0.00  0.00    +0.000 C 
ATOM     28  C   UNL     1       5.709   3.916  16.058  0.00  0.00    +0.000 C 
ATOM     29  C   UNL     1       5.968   4.742  14.841  0.00  0.00    +0.000 C 
ATOM     30  C   UNL     1       5.145   4.250  13.646  0.00  0.00    +0.000 C 
ATOM     31  C   UNL     1       7.456   4.732  14.464  0.00  0.00    +0.000 C 
ATOM     32  N   UNL     1       5.561   6.116  15.231  0.00  0.00    +0.000 NA
ATOM     33  C   UNL     1       5.486   6.145  16.733  0.00  0.00    +0.000 C 
ATOM     34  C   UNL     1       6.749   6.847  17.256  0.00  0.00    +0.000 C 
ATOM     35  C   UNL     1       4.249   6.949  17.159  0.00  0.00    +0.000 C 
ATOM     36  H   UNL     1       4.621   6.284  14.870  0.00  0.00    +0.000 HD
ENDBRANCH  24  27
ENDBRANCH  22  23
ENDBRANCH  19  22
ENDBRANCH   1  19
TORSDOF 11
ENDMDL
MODEL 4
REMARK VINA RESULT:      -7.5      5.627     10.297
REMARK  Name = 
REMARK  17 active torsions:
REMARK  status: ('A' for Active; 'I' for Inactive)
REMARK    1  A    between atoms: C_1  and  C_2
REMARK    2  A    between atoms: C_3  and  C_4
REMARK    3  A    between atoms: C_7  and  O_8
REMARK    4  A    between atoms: O_8  and  C_9
REMARK    5  A    between atoms: C_9  and  C_10
REMARK    6  A    between atoms: N_12  and  C_13
REMARK    7  A    between atoms: C_13  and  C_14
REMARK    8  A    between atoms: C_14  and  O_15
REMARK    9  A    between atoms: C_14  and  C_16
REMARK   10  A    between atoms: C_16  and  N_17
REMARK   11  A    between atoms: C_18  and  C_20
REMARK   12  A    between atoms: C_22  and  C_23
REMARK   13  A    between atoms: C_22  and  C_24
REMARK   14  A    between atoms: C_26  and  C_27
REMARK   15  A    between atoms: C_26  and  C_28
REMARK   16  A    between atoms: C_29  and  O_30
REMARK   17  A    between atoms: O_30  and  C_31
REMARK                            x       y       z     vdW  Elec       q    Type
REMARK                         _______ _______ _______ _____ _____    ______ ____
ROOT
ATOM      1  C   UNL     1       7.511   6.148  17.032  0.00  0.00    +0.000 C 
ENDROOT
BRANCH   1   4
ATOM      2  C   UNL     1       5.450   4.833  16.916  0.00  0.00    +0.000 C 
ATOM      3  O   UNL     1       5.290   5.137  15.734  0.00  0.00    +0.000 OA
ATOM      4  N   UNL     1       6.517   5.294  17.658  0.00  0.00    +0.000 N 
ATOM      5  H   UNL     1       6.757   4.818  18.522  0.00  0.00    +0.000 HD
BRANCH   2   6
ATOM      6  C   UNL     1       4.430   3.994  17.682  0.00  0.00    +0.000 C 
BRANCH   6   7
ATOM      7  O   UNL     1       3.084   4.428  17.523  0.00  0.00    +0.000 OA
BRANCH   7  11
ATOM      8  C   UNL     1       1.808   7.255  20.365  0.00  0.00    +0.000 A 
ATOM      9  C   UNL     1       2.267   7.684  19.123  0.00  0.00    +0.000 A 
ATOM     10  C   UNL     1       2.687   6.757  18.167  0.00  0.00    +0.000 A 
ATOM     11  C   UNL     1       2.664   5.380  18.431  0.00  0.00    +0.000 A 
ATOM     12  C   UNL     1       2.153   4.933  19.667  0.00  0.00    +0.000 A 
ATOM     13  C   UNL     1       1.734   5.879  20.616  0.00  0.00    +0.000 A 
BRANCH   8  16
ATOM     14  C   UNL     1      -0.401   9.687  22.398  0.00  0.00    +0.000 C 
ATOM     15  C   UNL     1       0.053   8.633  21.445  0.00  0.00    +0.000 C 
ATOM     16  C   UNL     1       1.334   8.246  21.341  0.00  0.00    +0.000 C 
ENDBRANCH   8  16
BRANCH  12  17
ATOM     17  O   UNL     1       2.095   3.576  19.876  0.00  0.00    +0.000 OA
ATOM     18  C   UNL     1       0.860   2.930  19.563  0.00  0.00    +0.000 C 
ENDBRANCH  12  17
ENDBRANCH   7  11
ENDBRANCH   6   7
ENDBRANCH   2   6
ENDBRANCH   1   4
BRANCH   1  19
ATOM     19  C   UNL     1       7.235   7.642  17.249  0.00  0.00    +0.000 C 
BRANCH  19  20
ATOM     20  O   UNL     1       5.859   7.819  17.636  0.00  0.00    +0.000 OA
ATOM     21  H   UNL     1       5.702   7.273  18.426  0.00  0.00    +0.000 HD
ENDBRANCH  19  20
BRANCH  19  22
ATOM     22  C   UNL     1       8.157   8.197  18.347  0.00  0.00    +0.000 C 
BRANCH  22  23
ATOM     23  N   UNL     1       8.775   9.457  17.986  0.00  0.00    +0.000 N 
ATOM     24  C   UNL     1       9.229  10.341  18.928  0.00  0.00    +0.000 C 
ATOM     25  O   UNL     1       9.107  10.163  20.132  0.00  0.00    +0.000 OA
ATOM     26  H   UNL     1       8.963   9.625  17.006  0.00  0.00    +0.000 HD
BRANCH  24  27
ATOM     27  C   UNL     1       9.829  11.584  18.388  0.00  0.00    +0.000 C 
ATOM     28  C   UNL     1      11.125  11.814  18.134  0.00  0.00    +0.000 C 
ATOM     29  C   UNL     1      11.333  13.197  17.609  0.00  0.00    +0.000 C 
ATOM     30  C   UNL     1      12.172  13.188  16.327  0.00  0.00    +0.000 C 
ATOM     31  C   UNL     1      12.017  14.093  18.651  0.00  0.00    +0.000 C 
ATOM     32  N   UNL     1       9.962  13.701  17.339  0.00  0.00    +0.000 NA
ATOM     33  C   UNL     1       9.008  12.809  18.084  0.00  0.00    +0.000 C 
ATOM     34  C   UNL     1       8.555  13.553  19.350  0.00  0.00    +0.000 C 
ATOM     35  C   UNL     1       7.785  12.530  17.198  0.00  0.00    +0.000 C 
ATOM     36  H   UNL     1       9.774  13.593  16.342  0.00  0.00    +0.000 HD
ENDBRANCH  24  27
ENDBRANCH  22  23
ENDBRANCH  19  22
ENDBRANCH   1  19
TORSDOF 11
ENDMDL
MODEL 5
REMARK VINA RESULT:      -7.5      3.753     10.405
REMARK  Name = 
REMARK  17 active torsions:
REMARK  status: ('A' for Active; 'I' for Inactive)
REMARK    1  A    between atoms: C_1  and  C_2
REMARK    2  A    between atoms: C_3  and  C_4
REMARK    3  A    between atoms: C_7  and  O_8
REMARK    4  A    between atoms: O_8  and  C_9
REMARK    5  A    between atoms: C_9  and  C_10
REMARK    6  A    between atoms: N_12  and  C_13
REMARK    7  A    between atoms: C_13  and  C_14
REMARK    8  A    between atoms: C_14  and  O_15
REMARK    9  A    between atoms: C_14  and  C_16
REMARK   10  A    between atoms: C_16  and  N_17
REMARK   11  A    between atoms: C_18  and  C_20
REMARK   12  A    between atoms: C_22  and  C_23
REMARK   13  A    between atoms: C_22  and  C_24
REMARK   14  A    between atoms: C_26  and  C_27
REMARK   15  A    between atoms: C_26  and  C_28
REMARK   16  A    between atoms: C_29  and  O_30
REMARK   17  A    between atoms: O_30  and  C_31
REMARK                            x       y       z     vdW  Elec       q    Type
REMARK                         _______ _______ _______ _____ _____    ______ ____
ROOT
ATOM      1  C   UNL     1       2.123   3.092  20.774  0.00  0.00    +0.000 C 
ENDROOT
BRANCH   1   4
ATOM      2  C   UNL     1       1.891   5.521  20.572  0.00  0.00    +0.000 C 
ATOM      3  O   UNL     1       3.110   5.655  20.466  0.00  0.00    +0.000 OA
ATOM      4  N   UNL     1       1.298   4.288  20.742  0.00  0.00    +0.000 N 
ATOM      5  H   UNL     1       0.305   4.190  20.556  0.00  0.00    +0.000 HD
BRANCH   2   6
ATOM      6  C   UNL     1       0.944   6.718  20.615  0.00  0.00    +0.000 C 
BRANCH   6   7
ATOM      7  O   UNL     1       1.600   7.974  20.731  0.00  0.00    +0.000 OA
BRANCH   7  11
ATOM      8  C   UNL     1      -0.695  11.063  22.431  0.00  0.00    +0.000 A 
ATOM      9  C   UNL     1      -0.403   9.927  23.181  0.00  0.00    +0.000 A 
ATOM     10  C   UNL     1       0.363   8.897  22.633  0.00  0.00    +0.000 A 
ATOM     11  C   UNL     1       0.852   8.975  21.320  0.00  0.00    +0.000 A 
ATOM     12  C   UNL     1       0.604  10.143  20.570  0.00  0.00    +0.000 A 
ATOM     13  C   UNL     1      -0.168  11.169  21.137  0.00  0.00    +0.000 A 
BRANCH   8  16
ATOM     14  C   UNL     1      -1.851  14.520  23.711  0.00  0.00    +0.000 C 
ATOM     15  C   UNL     1      -1.084  13.436  23.031  0.00  0.00    +0.000 C 
ATOM     16  C   UNL     1      -1.471  12.151  23.042  0.00  0.00    +0.000 C 
ENDBRANCH   8  16
BRANCH  12  17
ATOM     17  O   UNL     1       1.138  10.210  19.306  0.00  0.00    +0.000 OA
ATOM     18  C   UNL     1       0.255   9.928  18.220  0.00  0.00    +0.000 C 
ENDBRANCH  12  17
ENDBRANCH   7  11
ENDBRANCH   6   7
ENDBRANCH   2   6
ENDBRANCH   1   4
BRANCH   1  19
ATOM     19  C   UNL     1       1.995   2.245  19.501  0.00  0.00    +0.000 C 
BRANCH  19  20
ATOM     20  O   UNL     1       1.371   3.032  18.468  0.00  0.00    +0.000 OA
ATOM     21  H   UNL     1       2.015   3.701  18.177  0.00  0.00    +0.000 HD
ENDBRANCH  19  20
BRANCH  19  22
ATOM     22  C   UNL     1       3.384   1.782  19.032  0.00  0.00    +0.000 C 
BRANCH  22  23
ATOM     23  N   UNL     1       3.895   2.557  17.919  0.00  0.00    +0.000 N 
ATOM     24  C   UNL     1       4.879   3.495  18.077  0.00  0.00    +0.000 C 
ATOM     25  O   UNL     1       5.365   3.785  19.161  0.00  0.00    +0.000 OA
ATOM     26  H   UNL     1       3.578   2.311  16.990  0.00  0.00    +0.000 HD
BRANCH  24  27
ATOM     27  C   UNL     1       5.281   4.201  16.837  0.00  0.00    +0.000 C 
ATOM     28  C   UNL     1       5.725   3.649  15.698  0.00  0.00    +0.000 C 
ATOM     29  C   UNL     1       6.042   4.697  14.681  0.00  0.00    +0.000 C 
ATOM     30  C   UNL     1       5.380   4.386  13.335  0.00  0.00    +0.000 C 
ATOM     31  C   UNL     1       7.556   4.837  14.476  0.00  0.00    +0.000 C 
ATOM     32  N   UNL     1       5.497   5.952  15.259  0.00  0.00    +0.000 NA
ATOM     33  C   UNL     1       5.271   5.702  16.725  0.00  0.00    +0.000 C 
ATOM     34  C   UNL     1       6.421   6.365  17.500  0.00  0.00    +0.000 C 
ATOM     35  C   UNL     1       3.942   6.345  17.146  0.00  0.00    +0.000 C 
ATOM     36  H   UNL     1       4.588   6.131  14.832  0.00  0.00    +0.000 HD
ENDBRANCH  24  27
ENDBRANCH  22  23
ENDBRANCH  19  22
ENDBRANCH   1  19
TORSDOF 11
ENDMDL
MODEL 6
REMARK VINA RESULT:      -7.4      2.322      3.229
REMARK  Name = 
REMARK  17 active torsions:
REMARK  status: ('A' for Active; 'I' for Inactive)
REMARK    1  A    between atoms: C_1  and  C_2
REMARK    2  A    between atoms: C_3  and  C_4
REMARK    3  A    between atoms: C_7  and  O_8
REMARK    4  A    between atoms: O_8  and  C_9
REMARK    5  A    between atoms: C_9  and  C_10
REMARK    6  A    between atoms: N_12  and  C_13
REMARK    7  A    between atoms: C_13  and  C_14
REMARK    8  A    between atoms: C_14  and  O_15
REMARK    9  A    between atoms: C_14  and  C_16
REMARK   10  A    between atoms: C_16  and  N_17
REMARK   11  A    between atoms: C_18  and  C_20
REMARK   12  A    between atoms: C_22  and  C_23
REMARK   13  A    between atoms: C_22  and  C_24
REMARK   14  A    between atoms: C_26  and  C_27
REMARK   15  A    between atoms: C_26  and  C_28
REMARK   16  A    between atoms: C_29  and  O_30
REMARK   17  A    between atoms: O_30  and  C_31
REMARK                            x       y       z     vdW  Elec       q    Type
REMARK                         _______ _______ _______ _____ _____    ______ ____
ROOT
ATOM      1  C   UNL     1      -0.136  10.192  18.634  0.00  0.00    +0.000 C 
ENDROOT
BRANCH   1   4
ATOM      2  C   UNL     1       1.804   8.701  18.546  0.00  0.00    +0.000 C 
ATOM      3  O   UNL     1       1.655   8.393  19.728  0.00  0.00    +0.000 OA
ATOM      4  N   UNL     1       0.974   9.599  17.908  0.00  0.00    +0.000 N 
ATOM      5  H   UNL     1       0.959   9.620  16.893  0.00  0.00    +0.000 HD
BRANCH   2   6
ATOM      6  C   UNL     1       2.975   8.183  17.714  0.00  0.00    +0.000 C 
BRANCH   6   7
ATOM      7  O   UNL     1       3.523   6.957  18.183  0.00  0.00    +0.000 OA
BRANCH   7  11
ATOM      8  C   UNL     1       5.424   4.567  15.288  0.00  0.00    +0.000 A 
ATOM      9  C   UNL     1       5.618   5.945  15.281  0.00  0.00    +0.000 A 
ATOM     10  C   UNL     1       5.000   6.750  16.239  0.00  0.00    +0.000 A 
ATOM     11  C   UNL     1       4.168   6.199  17.225  0.00  0.00    +0.000 A 
ATOM     12  C   UNL     1       4.006   4.799  17.272  0.00  0.00    +0.000 A 
ATOM     13  C   UNL     1       4.635   4.004  16.301  0.00  0.00    +0.000 A 
BRANCH   8  16
ATOM     14  C   UNL     1       6.456   2.804  12.009  0.00  0.00    +0.000 C 
ATOM     15  C   UNL     1       5.785   3.702  12.994  0.00  0.00    +0.000 C 
ATOM     16  C   UNL     1       6.116   3.736  14.294  0.00  0.00    +0.000 C 
ENDBRANCH   8  16
BRANCH  12  17
ATOM     17  O   UNL     1       3.226   4.284  18.280  0.00  0.00    +0.000 OA
ATOM     18  C   UNL     1       1.916   3.846  17.917  0.00  0.00    +0.000 C 
ENDBRANCH  12  17
ENDBRANCH   7  11
ENDBRANCH   6   7
ENDBRANCH   2   6
ENDBRANCH   1   4
BRANCH   1  19
ATOM     19  C   UNL     1       0.028  11.703  18.843  0.00  0.00    +0.000 C 
BRANCH  19  20
ATOM     20  O   UNL     1       1.258  12.137  18.229  0.00  0.00    +0.000 OA
ATOM     21  H   UNL     1       1.969  11.559  18.554  0.00  0.00    +0.000 HD
ENDBRANCH  19  20
BRANCH  19  22
ATOM     22  C   UNL     1      -1.157  12.456  18.215  0.00  0.00    +0.000 C 
BRANCH  22  23
ATOM     23  N   UNL     1      -2.368  12.368  19.005  0.00  0.00    +0.000 N 
ATOM     24  C   UNL     1      -2.625  13.225  20.041  0.00  0.00    +0.000 C 
ATOM     25  O   UNL     1      -1.842  14.090  20.410  0.00  0.00    +0.000 OA
ATOM     26  H   UNL     1      -3.081  11.717  18.702  0.00  0.00    +0.000 HD
BRANCH  24  27
ATOM     27  C   UNL     1      -3.907  12.992  20.748  0.00  0.00    +0.000 C 
ATOM     28  C   UNL     1      -5.105  12.752  20.195  0.00  0.00    +0.000 C 
ATOM     29  C   UNL     1      -6.157  12.585  21.242  0.00  0.00    +0.000 C 
ATOM     30  C   UNL     1      -6.974  11.309  21.015  0.00  0.00    +0.000 C 
ATOM     31  C   UNL     1      -7.107  13.790  21.278  0.00  0.00    +0.000 C 
ATOM     32  N   UNL     1      -5.401  12.506  22.518  0.00  0.00    +0.000 NA
ATOM     33  C   UNL     1      -4.021  13.040  22.248  0.00  0.00    +0.000 C 
ATOM     34  C   UNL     1      -3.949  14.470  22.806  0.00  0.00    +0.000 C 
ATOM     35  C   UNL     1      -2.991  12.163  22.975  0.00  0.00    +0.000 C 
ATOM     36  H   UNL     1      -5.309  11.523  22.774  0.00  0.00    +0.000 HD
ENDBRANCH  24  27
ENDBRANCH  22  23
ENDBRANCH  19  22
ENDBRANCH   1  19
TORSDOF 11
ENDMDL
MODEL 7
REMARK VINA RESULT:      -7.3      2.590      4.350
REMARK  Name = 
REMARK  17 active torsions:
REMARK  status: ('A' for Active; 'I' for Inactive)
REMARK    1  A    between atoms: C_1  and  C_2
REMARK    2  A    between atoms: C_3  and  C_4
REMARK    3  A    between atoms: C_7  and  O_8
REMARK    4  A    between atoms: O_8  and  C_9
REMARK    5  A    between atoms: C_9  and  C_10
REMARK    6  A    between atoms: N_12  and  C_13
REMARK    7  A    between atoms: C_13  and  C_14
REMARK    8  A    between atoms: C_14  and  O_15
REMARK    9  A    between atoms: C_14  and  C_16
REMARK   10  A    between atoms: C_16  and  N_17
REMARK   11  A    between atoms: C_18  and  C_20
REMARK   12  A    between atoms: C_22  and  C_23
REMARK   13  A    between atoms: C_22  and  C_24
REMARK   14  A    between atoms: C_26  and  C_27
REMARK   15  A    between atoms: C_26  and  C_28
REMARK   16  A    between atoms: C_29  and  O_30
REMARK   17  A    between atoms: O_30  and  C_31
REMARK                            x       y       z     vdW  Elec       q    Type
REMARK                         _______ _______ _______ _____ _____    ______ ____
ROOT
ATOM      1  C   UNL     1       2.709   5.977  20.193  0.00  0.00    +0.000 C 
ENDROOT
BRANCH   1   4
ATOM      2  C   UNL     1       3.350   4.342  18.488  0.00  0.00    +0.000 C 
ATOM      3  O   UNL     1       3.198   3.414  19.281  0.00  0.00    +0.000 OA
ATOM      4  N   UNL     1       3.145   5.659  18.845  0.00  0.00    +0.000 N 
ATOM      5  H   UNL     1       3.018   6.352  18.115  0.00  0.00    +0.000 HD
BRANCH   2   6
ATOM      6  C   UNL     1       3.867   4.119  17.068  0.00  0.00    +0.000 C 
BRANCH   6   7
ATOM      7  O   UNL     1       5.263   3.857  16.993  0.00  0.00    +0.000 OA
BRANCH   7  11
ATOM      8  C   UNL     1       7.713   7.081  18.137  0.00  0.00    +0.000 A 
ATOM      9  C   UNL     1       7.429   6.071  19.052  0.00  0.00    +0.000 A 
ATOM     10  C   UNL     1       6.624   4.992  18.685  0.00  0.00    +0.000 A 
ATOM     11  C   UNL     1       6.078   4.897  17.396  0.00  0.00    +0.000 A 
ATOM     12  C   UNL     1       6.401   5.889  16.447  0.00  0.00    +0.000 A 
ATOM     13  C   UNL     1       7.212   6.967  16.833  0.00  0.00    +0.000 A 
BRANCH   8  16
ATOM     14  C   UNL     1       9.357  10.558  18.501  0.00  0.00    +0.000 C 
ATOM     15  C   UNL     1       8.415   9.458  18.141  0.00  0.00    +0.000 C 
ATOM     16  C   UNL     1       8.595   8.187  18.533  0.00  0.00    +0.000 C 
ENDBRANCH   8  16
BRANCH  12  17
ATOM     17  O   UNL     1       5.892   5.743  15.178  0.00  0.00    +0.000 OA
ATOM     18  C   UNL     1       6.625   4.903  14.286  0.00  0.00    +0.000 C 
ENDBRANCH  12  17
ENDBRANCH   7  11
ENDBRANCH   6   7
ENDBRANCH   2   6
ENDBRANCH   1   4
BRANCH   1  19
ATOM     19  C   UNL     1       1.725   7.153  20.240  0.00  0.00    +0.000 C 
BRANCH  19  20
ATOM     20  O   UNL     1       1.838   7.817  21.514  0.00  0.00    +0.000 OA
ATOM     21  H   UNL     1       1.980   7.134  22.191  0.00  0.00    +0.000 HD
ENDBRANCH  19  20
BRANCH  19  22
ATOM     22  C   UNL     1       2.033   8.147  19.109  0.00  0.00    +0.000 C 
BRANCH  22  23
ATOM     23  N   UNL     1       0.861   8.865  18.649  0.00  0.00    +0.000 N 
ATOM     24  C   UNL     1       0.400   9.987  19.285  0.00  0.00    +0.000 C 
ATOM     25  O   UNL     1       0.902  10.438  20.305  0.00  0.00    +0.000 OA
ATOM     26  H   UNL     1       0.447   8.578  17.772  0.00  0.00    +0.000 HD
BRANCH  24  27
ATOM     27  C   UNL     1      -0.813  10.595  18.687  0.00  0.00    +0.000 C 
ATOM     28  C   UNL     1      -1.711   9.997  17.890  0.00  0.00    +0.000 C 
ATOM     29  C   UNL     1      -2.786  10.950  17.482  0.00  0.00    +0.000 C 
ATOM     30  C   UNL     1      -4.178  10.358  17.725  0.00  0.00    +0.000 C 
ATOM     31  C   UNL     1      -2.656  11.340  16.004  0.00  0.00    +0.000 C 
ATOM     32  N   UNL     1      -2.566  12.145  18.336  0.00  0.00    +0.000 NA
ATOM     33  C   UNL     1      -1.172  12.043  18.889  0.00  0.00    +0.000 C 
ATOM     34  C   UNL     1      -0.273  12.997  18.087  0.00  0.00    +0.000 C 
ATOM     35  C   UNL     1      -1.181  12.478  20.362  0.00  0.00    +0.000 C 
ATOM     36  H   UNL     1      -3.216  12.100  19.121  0.00  0.00    +0.000 HD
ENDBRANCH  24  27
ENDBRANCH  22  23
ENDBRANCH  19  22
ENDBRANCH   1  19
TORSDOF 11
ENDMDL
MODEL 8
REMARK VINA RESULT:      -7.2      3.419      5.728
REMARK  Name = 
REMARK  17 active torsions:
REMARK  status: ('A' for Active; 'I' for Inactive)
REMARK    1  A    between atoms: C_1  and  C_2
REMARK    2  A    between atoms: C_3  and  C_4
REMARK    3  A    between atoms: C_7  and  O_8
REMARK    4  A    between atoms: O_8  and  C_9
REMARK    5  A    between atoms: C_9  and  C_10
REMARK    6  A    between atoms: N_12  and  C_13
REMARK    7  A    between atoms: C_13  and  C_14
REMARK    8  A    between atoms: C_14  and  O_15
REMARK    9  A    between atoms: C_14  and  C_16
REMARK   10  A    between atoms: C_16  and  N_17
REMARK   11  A    between atoms: C_18  and  C_20
REMARK   12  A    between atoms: C_22  and  C_23
REMARK   13  A    between atoms: C_22  and  C_24
REMARK   14  A    between atoms: C_26  and  C_27
REMARK   15  A    between atoms: C_26  and  C_28
REMARK   16  A    between atoms: C_29  and  O_30
REMARK   17  A    between atoms: O_30  and  C_31
REMARK                            x       y       z     vdW  Elec       q    Type
REMARK                         _______ _______ _______ _____ _____    ______ ____
ROOT
ATOM      1  C   UNL     1       1.372   2.687  20.123  0.00  0.00    +0.000 C 
ENDROOT
BRANCH   1   4
ATOM      2  C   UNL     1       2.770   2.881  18.123  0.00  0.00    +0.000 C 
ATOM      3  O   UNL     1       1.873   3.468  17.519  0.00  0.00    +0.000 OA
ATOM      4  N   UNL     1       2.619   2.438  19.420  0.00  0.00    +0.000 N 
ATOM      5  H   UNL     1       3.447   2.209  19.961  0.00  0.00    +0.000 HD
BRANCH   2   6
ATOM      6  C   UNL     1       4.093   2.515  17.453  0.00  0.00    +0.000 C 
BRANCH   6   7
ATOM      7  O   UNL     1       4.540   3.465  16.493  0.00  0.00    +0.000 OA
BRANCH   7  11
ATOM      8  C   UNL     1       7.150   6.457  17.884  0.00  0.00    +0.000 A 
ATOM      9  C   UNL     1       6.591   5.556  18.785  0.00  0.00    +0.000 A 
ATOM     10  C   UNL     1       5.729   4.553  18.337  0.00  0.00    +0.000 A 
ATOM     11  C   UNL     1       5.400   4.430  16.979  0.00  0.00    +0.000 A 
ATOM     12  C   UNL     1       6.001   5.306  16.052  0.00  0.00    +0.000 A 
ATOM     13  C   UNL     1       6.866   6.309  16.520  0.00  0.00    +0.000 A 
BRANCH   8  16
ATOM     14  C   UNL     1       9.024   9.785  18.471  0.00  0.00    +0.000 C 
ATOM     15  C   UNL     1       8.027   8.772  18.015  0.00  0.00    +0.000 C 
ATOM     16  C   UNL     1       8.086   7.479  18.373  0.00  0.00    +0.000 C 
ENDBRANCH   8  16
BRANCH  12  17
ATOM     17  O   UNL     1       5.699   5.130  14.723  0.00  0.00    +0.000 OA
ATOM     18  C   UNL     1       6.731   4.588  13.897  0.00  0.00    +0.000 C 
ENDBRANCH  12  17
ENDBRANCH   7  11
ENDBRANCH   6   7
ENDBRANCH   2   6
ENDBRANCH   1   4
BRANCH   1  19
ATOM     19  C   UNL     1       1.507   3.755  21.215  0.00  0.00    +0.000 C 
BRANCH  19  20
ATOM     20  O   UNL     1       1.884   3.123  22.454  0.00  0.00    +0.000 OA
ATOM     21  H   UNL     1       1.786   2.162  22.337  0.00  0.00    +0.000 HD
ENDBRANCH  19  20
BRANCH  19  22
ATOM     22  C   UNL     1       2.572   4.789  20.817  0.00  0.00    +0.000 C 
BRANCH  22  23
ATOM     23  N   UNL     1       2.047   6.136  20.716  0.00  0.00    +0.000 N 
ATOM     24  C   UNL     1       2.231   6.906  19.599  0.00  0.00    +0.000 C 
ATOM     25  O   UNL     1       2.886   6.543  18.631  0.00  0.00    +0.000 OA
ATOM     26  H   UNL     1       1.440   6.461  21.457  0.00  0.00    +0.000 HD
BRANCH  24  27
ATOM     27  C   UNL     1       1.633   8.261  19.662  0.00  0.00    +0.000 C 
ATOM     28  C   UNL     1       1.053   8.841  20.723  0.00  0.00    +0.000 C 
ATOM     29  C   UNL     1       0.559  10.210  20.383  0.00  0.00    +0.000 C 
ATOM     30  C   UNL     1       1.035  11.245  21.407  0.00  0.00    +0.000 C 
ATOM     31  C   UNL     1      -0.973  10.248  20.305  0.00  0.00    +0.000 C 
ATOM     32  N   UNL     1       1.135  10.490  19.043  0.00  0.00    +0.000 NA
ATOM     33  C   UNL     1       1.573   9.172  18.466  0.00  0.00    +0.000 C 
ATOM     34  C   UNL     1       0.521   8.734  17.435  0.00  0.00    +0.000 C 
ATOM     35  C   UNL     1       2.925   9.357  17.760  0.00  0.00    +0.000 C 
ATOM     36  H   UNL     1       1.968  11.066  19.168  0.00  0.00    +0.000 HD
ENDBRANCH  24  27
ENDBRANCH  22  23
ENDBRANCH  19  22
ENDBRANCH   1  19
TORSDOF 11
ENDMDL
MODEL 9
REMARK VINA RESULT:      -7.2      3.712     10.591
REMARK  Name = 
REMARK  17 active torsions:
REMARK  status: ('A' for Active; 'I' for Inactive)
REMARK    1  A    between atoms: C_1  and  C_2
REMARK    2  A    between atoms: C_3  and  C_4
REMARK    3  A    between atoms: C_7  and  O_8
REMARK    4  A    between atoms: O_8  and  C_9
REMARK    5  A    between atoms: C_9  and  C_10
REMARK    6  A    between atoms: N_12  and  C_13
REMARK    7  A    between atoms: C_13  and  C_14
REMARK    8  A    between atoms: C_14  and  O_15
REMARK    9  A    between atoms: C_14  and  C_16
REMARK   10  A    between atoms: C_16  and  N_17
REMARK   11  A    between atoms: C_18  and  C_20
REMARK   12  A    between atoms: C_22  and  C_23
REMARK   13  A    between atoms: C_22  and  C_24
REMARK   14  A    between atoms: C_26  and  C_27
REMARK   15  A    between atoms: C_26  and  C_28
REMARK   16  A    between atoms: C_29  and  O_30
REMARK   17  A    between atoms: O_30  and  C_31
REMARK                            x       y       z     vdW  Elec       q    Type
REMARK                         _______ _______ _______ _____ _____    ______ ____
ROOT
ATOM      1  C   UNL     1       2.230   4.116  20.427  0.00  0.00    +0.000 C 
ENDROOT
BRANCH   1   4
ATOM      2  C   UNL     1       1.719   6.510  20.453  0.00  0.00    +0.000 C 
ATOM      3  O   UNL     1       2.815   6.776  19.959  0.00  0.00    +0.000 OA
ATOM      4  N   UNL     1       1.335   5.217  20.738  0.00  0.00    +0.000 N 
ATOM      5  H   UNL     1       0.350   5.018  20.885  0.00  0.00    +0.000 HD
BRANCH   2   6
ATOM      6  C   UNL     1       0.734   7.597  20.875  0.00  0.00    +0.000 C 
BRANCH   6   7
ATOM      7  O   UNL     1       1.337   8.701  21.540  0.00  0.00    +0.000 OA
BRANCH   7  11
ATOM      8  C   UNL     1      -1.282  11.865  22.455  0.00  0.00    +0.000 A 
ATOM      9  C   UNL     1      -1.200  10.768  23.307  0.00  0.00    +0.000 A 
ATOM     10  C   UNL     1      -0.331   9.714  23.021  0.00  0.00    +0.000 A 
ATOM     11  C   UNL     1       0.475   9.728  21.872  0.00  0.00    +0.000 A 
ATOM     12  C   UNL     1       0.436  10.857  21.029  0.00  0.00    +0.000 A 
ATOM     13  C   UNL     1      -0.443  11.908  21.333  0.00  0.00    +0.000 A 
BRANCH   8  16
ATOM     14  C   UNL     1      -4.142  13.998  23.936  0.00  0.00    +0.000 C 
ATOM     15  C   UNL     1      -3.207  12.872  23.649  0.00  0.00    +0.000 C 
ATOM     16  C   UNL     1      -2.175  12.980  22.797  0.00  0.00    +0.000 C 
ENDBRANCH   8  16
BRANCH  12  17
ATOM     17  O   UNL     1       1.274  10.864  19.939  0.00  0.00    +0.000 OA
ATOM     18  C   UNL     1       0.831  11.596  18.795  0.00  0.00    +0.000 C 
ENDBRANCH  12  17
ENDBRANCH   7  11
ENDBRANCH   6   7
ENDBRANCH   2   6
ENDBRANCH   1   4
BRANCH   1  19
ATOM     19  C   UNL     1       1.675   3.184  19.342  0.00  0.00    +0.000 C 
BRANCH  19  20
ATOM     20  O   UNL     1       0.295   2.888  19.631  0.00  0.00    +0.000 OA
ATOM     21  H   UNL     1       0.131   1.964  19.373  0.00  0.00    +0.000 HD
ENDBRANCH  19  20
BRANCH  19  22
ATOM     22  C   UNL     1       1.783   3.854  17.963  0.00  0.00    +0.000 C 
BRANCH  22  23
ATOM     23  N   UNL     1       3.003   4.615  17.795  0.00  0.00    +0.000 N 
ATOM     24  C   UNL     1       4.180   4.029  17.413  0.00  0.00    +0.000 C 
ATOM     25  O   UNL     1       4.306   2.825  17.235  0.00  0.00    +0.000 OA
ATOM     26  H   UNL     1       2.942   5.623  17.863  0.00  0.00    +0.000 HD
BRANCH  24  27
ATOM     27  C   UNL     1       5.334   4.952  17.294  0.00  0.00    +0.000 C 
ATOM     28  C   UNL     1       5.825   5.761  18.244  0.00  0.00    +0.000 C 
ATOM     29  C   UNL     1       6.987   6.548  17.731  0.00  0.00    +0.000 C 
ATOM     30  C   UNL     1       8.188   6.451  18.678  0.00  0.00    +0.000 C 
ATOM     31  C   UNL     1       6.620   8.025  17.534  0.00  0.00    +0.000 C 
ATOM     32  N   UNL     1       7.302   5.931  16.417  0.00  0.00    +0.000 NA
ATOM     33  C   UNL     1       6.103   5.120  16.011  0.00  0.00    +0.000 C 
ATOM     34  C   UNL     1       5.327   5.920  14.952  0.00  0.00    +0.000 C 
ATOM     35  C   UNL     1       6.576   3.795  15.395  0.00  0.00    +0.000 C 
ATOM     36  H   UNL     1       8.083   5.286  16.546  0.00  0.00    +0.000 HD
ENDBRANCH  24  27
ENDBRANCH  22  23
ENDBRANCH  19  22
ENDBRANCH   1  19
TORSDOF 11
ENDMDL
