MODEL 1
REMARK VINA RESULT:      -7.6      0.000      0.000
REMARK  Name = 
REMARK  2 active torsions:
REMARK  status: ('A' for Active; 'I' for Inactive)
REMARK    1  A    between atoms: N_1  and  C_2
REMARK    2  A    between atoms: C_6  and  N_7
REMARK                            x       y       z     vdW  Elec       q    Type
REMARK                         _______ _______ _______ _____ _____    ______ ____
ROOT
ATOM      1  N   UNL     1       3.021   6.791  17.913  0.00  0.00    +0.000 N 
ATOM      2  C   UNL     1       2.301   7.729  18.662  0.00  0.00    +0.000 A 
ATOM      3  N   UNL     1       2.090   7.516  19.988  0.00  0.00    +0.000 NA
ATOM      4  N   UNL     1       1.343   8.382  20.731  0.00  0.00    +0.000 NA
ATOM      5  C   UNL     1       0.841   9.449  20.100  0.00  0.00    +0.000 A 
ATOM      6  C   UNL     1      -0.004  10.402  20.830  0.00  0.00    +0.000 A 
ATOM      7  O   UNL     1      -0.288  10.270  22.013  0.00  0.00    +0.000 OA
ATOM      8  N   UNL     1      -0.477  11.462  20.089  0.00  0.00    +0.000 N 
ATOM      9  C   UNL     1      -0.240  11.684  18.759  0.00  0.00    +0.000 A 
ATOM     10  O   UNL     1      -0.717  12.647  18.170  0.00  0.00    +0.000 OA
ATOM     11  N   UNL     1       0.548  10.772  18.125  0.00  0.00    +0.000 N 
ATOM     12  C   UNL     1       1.090   9.657  18.761  0.00  0.00    +0.000 A 
ATOM     13  N   UNL     1       1.827   8.810  18.013  0.00  0.00    +0.000 NA
ATOM     14  H   UNL     1       2.947   7.033  16.931  0.00  0.00    +0.000 HD
ATOM     15  H   UNL     1      -1.070  12.127  20.565  0.00  0.00    +0.000 HD
ATOM     16  H   UNL     1       0.739  10.904  17.141  0.00  0.00    +0.000 HD
ENDROOT
BRANCH   1  21
ATOM     17  C   UNL     1       4.070   3.339  18.915  0.00  0.00    +0.000 A 
ATOM     18  C   UNL     1       2.905   2.636  18.609  0.00  0.00    +0.000 A 
ATOM     19  C   UNL     1       1.808   3.291  18.049  0.00  0.00    +0.000 A 
ATOM     20  C   UNL     1       1.854   4.668  17.820  0.00  0.00    +0.000 A 
ATOM     21  C   UNL     1       3.004   5.398  18.133  0.00  0.00    +0.000 A 
ATOM     22  C   UNL     1       4.082   4.724  18.730  0.00  0.00    +0.000 A 
BRANCH  17  23
ATOM     23  N   UNL     1       5.115   2.714  19.610  0.00  0.00    +0.000 N 
ATOM     24  H   UNL     1       6.029   2.881  19.200  0.00  0.00    +0.000 HD
ATOM     25  H   UNL     1       5.109   2.912  20.607  0.00  0.00    +0.000 HD
ENDBRANCH  17  23
ENDBRANCH   1  21
TORSDOF 2
ENDMDL
MODEL 2
REMARK VINA RESULT:      -7.4      2.158      3.355
REMARK  Name = 
REMARK  2 active torsions:
REMARK  status: ('A' for Active; 'I' for Inactive)
REMARK    1  A    between atoms: N_1  and  C_2
REMARK    2  A    between atoms: C_6  and  N_7
REMARK                            x       y       z     vdW  Elec       q    Type
REMARK                         _______ _______ _______ _____ _____    ______ ____
ROOT
ATOM      1  N   UNL     1       3.310   5.513  18.644  0.00  0.00    +0.000 N 
ATOM      2  C   UNL     1       2.629   6.703  18.932  0.00  0.00    +0.000 A 
ATOM      3  N   UNL     1       2.362   7.586  17.935  0.00  0.00    +0.000 NA
ATOM      4  N   UNL     1       1.753   8.779  18.195  0.00  0.00    +0.000 NA
ATOM      5  C   UNL     1       1.424   9.030  19.466  0.00  0.00    +0.000 A 
ATOM      6  C   UNL     1       0.800  10.311  19.823  0.00  0.00    +0.000 A 
ATOM      7  O   UNL     1       0.562  11.187  19.003  0.00  0.00    +0.000 OA
ATOM      8  N   UNL     1       0.506  10.473  21.158  0.00  0.00    +0.000 N 
ATOM      9  C   UNL     1       0.755   9.568  22.154  0.00  0.00    +0.000 A 
ATOM     10  O   UNL     1       0.477   9.803  23.324  0.00  0.00    +0.000 OA
ATOM     11  N   UNL     1       1.336   8.397  21.775  0.00  0.00    +0.000 N 
ATOM     12  C   UNL     1       1.682   8.107  20.456  0.00  0.00    +0.000 A 
ATOM     13  N   UNL     1       2.283   6.924  20.215  0.00  0.00    +0.000 NA
ATOM     14  H   UNL     1       3.555   5.058  19.517  0.00  0.00    +0.000 HD
ATOM     15  H   UNL     1       0.086  11.350  21.432  0.00  0.00    +0.000 HD
ATOM     16  H   UNL     1       1.539   7.708  22.487  0.00  0.00    +0.000 HD
ENDROOT
BRANCH   1  21
ATOM     17  C   UNL     1       6.411   6.083  16.623  0.00  0.00    +0.000 A 
ATOM     18  C   UNL     1       6.305   5.027  15.718  0.00  0.00    +0.000 A 
ATOM     19  C   UNL     1       5.208   4.165  15.759  0.00  0.00    +0.000 A 
ATOM     20  C   UNL     1       4.219   4.334  16.731  0.00  0.00    +0.000 A 
ATOM     21  C   UNL     1       4.310   5.375  17.659  0.00  0.00    +0.000 A 
ATOM     22  C   UNL     1       5.442   6.206  17.622  0.00  0.00    +0.000 A 
BRANCH  17  23
ATOM     23  N   UNL     1       7.579   6.857  16.679  0.00  0.00    +0.000 N 
ATOM     24  H   UNL     1       7.791   7.330  15.806  0.00  0.00    +0.000 HD
ATOM     25  H   UNL     1       7.598   7.497  17.468  0.00  0.00    +0.000 HD
ENDBRANCH  17  23
ENDBRANCH   1  21
TORSDOF 2
ENDMDL
MODEL 3
REMARK VINA RESULT:      -7.3      7.403      9.360
REMARK  Name = 
REMARK  2 active torsions:
REMARK  status: ('A' for Active; 'I' for Inactive)
REMARK    1  A    between atoms: N_1  and  C_2
REMARK    2  A    between atoms: C_6  and  N_7
REMARK                            x       y       z     vdW  Elec       q    Type
REMARK                         _______ _______ _______ _____ _____    ______ ____
ROOT
ATOM      1  N   UNL     1       8.147  10.314  18.205  0.00  0.00    +0.000 N 
ATOM      2  C   UNL     1       7.928   8.936  18.085  0.00  0.00    +0.000 A 
ATOM      3  N   UNL     1       8.577   8.074  18.912  0.00  0.00    +0.000 NA
ATOM      4  N   UNL     1       8.429   6.725  18.780  0.00  0.00    +0.000 NA
ATOM      5  C   UNL     1       7.612   6.294  17.814  0.00  0.00    +0.000 A 
ATOM      6  C   UNL     1       7.435   4.853  17.592  0.00  0.00    +0.000 A 
ATOM      7  O   UNL     1       8.013   4.001  18.254  0.00  0.00    +0.000 OA
ATOM      8  N   UNL     1       6.579   4.513  16.569  0.00  0.00    +0.000 N 
ATOM      9  C   UNL     1       5.909   5.386  15.755  0.00  0.00    +0.000 A 
ATOM     10  O   UNL     1       5.177   4.996  14.852  0.00  0.00    +0.000 OA
ATOM     11  N   UNL     1       6.105   6.711  15.999  0.00  0.00    +0.000 N 
ATOM     12  C   UNL     1       6.945   7.186  17.005  0.00  0.00    +0.000 A 
ATOM     13  N   UNL     1       7.081   8.524  17.122  0.00  0.00    +0.000 NA
ATOM     14  H   UNL     1       7.708  10.783  17.420  0.00  0.00    +0.000 HD
ATOM     15  H   UNL     1       6.448   3.527  16.387  0.00  0.00    +0.000 HD
ATOM     16  H   UNL     1       5.629   7.383  15.413  0.00  0.00    +0.000 HD
ENDROOT
BRANCH   1  21
ATOM     17  C   UNL     1      11.503  11.965  18.007  0.00  0.00    +0.000 A 
ATOM     18  C   UNL     1      11.768  12.131  19.366  0.00  0.00    +0.000 A 
ATOM     19  C   UNL     1      10.866  11.673  20.326  0.00  0.00    +0.000 A 
ATOM     20  C   UNL     1       9.669  11.071  19.934  0.00  0.00    +0.000 A 
ATOM     21  C   UNL     1       9.372  10.906  18.578  0.00  0.00    +0.000 A 
ATOM     22  C   UNL     1      10.277  11.409  17.630  0.00  0.00    +0.000 A 
BRANCH  17  23
ATOM     23  N   UNL     1      12.333  12.552  17.042  0.00  0.00    +0.000 N 
ATOM     24  H   UNL     1      12.688  11.891  16.358  0.00  0.00    +0.000 HD
ATOM     25  H   UNL     1      11.919  13.367  16.598  0.00  0.00    +0.000 HD
ENDBRANCH  17  23
ENDBRANCH   1  21
TORSDOF 2
ENDMDL
MODEL 4
REMARK VINA RESULT:      -7.2      2.322      3.675
REMARK  Name = 
REMARK  2 active torsions:
REMARK  status: ('A' for Active; 'I' for Inactive)
REMARK    1  A    between atoms: N_1  and  C_2
REMARK    2  A    between atoms: C_6  and  N_7
REMARK                            x       y       z     vdW  Elec       q    Type
REMARK                         _______ _______ _______ _____ _____    ______ ____
ROOT
ATOM      1  N   UNL     1       3.865   4.894  18.710  0.00  0.00    +0.000 N 
ATOM      2  C   UNL     1       3.153   6.093  18.834  0.00  0.00    +0.000 A 
ATOM      3  N   UNL     1       3.105   6.961  17.789  0.00  0.00    +0.000 NA
ATOM      4  N   UNL     1       2.469   8.163  17.900  0.00  0.00    +0.000 NA
ATOM      5  C   UNL     1       1.890   8.439  19.073  0.00  0.00    +0.000 A 
ATOM      6  C   UNL     1       1.221   9.731  19.275  0.00  0.00    +0.000 A 
ATOM      7  O   UNL     1       1.166  10.594  18.409  0.00  0.00    +0.000 OA
ATOM      8  N   UNL     1       0.663   9.920  20.519  0.00  0.00    +0.000 N 
ATOM      9  C   UNL     1       0.694   9.031  21.559  0.00  0.00    +0.000 A 
ATOM     10  O   UNL     1       0.185   9.289  22.644  0.00  0.00    +0.000 OA
ATOM     11  N   UNL     1       1.326   7.848  21.325  0.00  0.00    +0.000 N 
ATOM     12  C   UNL     1       1.930   7.533  20.110  0.00  0.00    +0.000 A 
ATOM     13  N   UNL     1       2.555   6.340  20.015  0.00  0.00    +0.000 NA
ATOM     14  H   UNL     1       3.921   4.453  19.621  0.00  0.00    +0.000 HD
ATOM     15  H   UNL     1       0.205  10.805  20.687  0.00  0.00    +0.000 HD
ATOM     16  H   UNL     1       1.371   7.171  22.074  0.00  0.00    +0.000 HD
ENDROOT
BRANCH   1  21
ATOM     17  C   UNL     1       6.200   4.031  15.912  0.00  0.00    +0.000 A 
ATOM     18  C   UNL     1       7.403   4.477  16.457  0.00  0.00    +0.000 A 
ATOM     19  C   UNL     1       7.441   5.021  17.742  0.00  0.00    +0.000 A 
ATOM     20  C   UNL     1       6.265   5.155  18.483  0.00  0.00    +0.000 A 
ATOM     21  C   UNL     1       5.044   4.730  17.952  0.00  0.00    +0.000 A 
ATOM     22  C   UNL     1       5.024   4.220  16.644  0.00  0.00    +0.000 A 
BRANCH  17  23
ATOM     23  N   UNL     1       6.134   3.620  14.573  0.00  0.00    +0.000 N 
ATOM     24  H   UNL     1       6.314   4.369  13.912  0.00  0.00    +0.000 HD
ATOM     25  H   UNL     1       6.702   2.801  14.376  0.00  0.00    +0.000 HD
ENDBRANCH  17  23
ENDBRANCH   1  21
TORSDOF 2
ENDMDL
MODEL 5
REMARK VINA RESULT:      -7.2      3.685      6.991
REMARK  Name = 
REMARK  2 active torsions:
REMARK  status: ('A' for Active; 'I' for Inactive)
REMARK    1  A    between atoms: N_1  and  C_2
REMARK    2  A    between atoms: C_6  and  N_7
REMARK                            x       y       z     vdW  Elec       q    Type
REMARK                         _______ _______ _______ _____ _____    ______ ____
ROOT
ATOM      1  N   UNL     1       2.056   8.430  17.914  0.00  0.00    +0.000 N 
ATOM      2  C   UNL     1       2.806   7.269  18.142  0.00  0.00    +0.000 A 
ATOM      3  N   UNL     1       2.348   6.329  19.011  0.00  0.00    +0.000 NA
ATOM      4  N   UNL     1       3.084   5.217  19.297  0.00  0.00    +0.000 NA
ATOM      5  C   UNL     1       4.262   5.091  18.678  0.00  0.00    +0.000 A 
ATOM      6  C   UNL     1       5.123   3.937  18.968  0.00  0.00    +0.000 A 
ATOM      7  O   UNL     1       4.818   3.063  19.769  0.00  0.00    +0.000 OA
ATOM      8  N   UNL     1       6.317   3.903  18.285  0.00  0.00    +0.000 N 
ATOM      9  C   UNL     1       6.761   4.841  17.392  0.00  0.00    +0.000 A 
ATOM     10  O   UNL     1       7.851   4.742  16.840  0.00  0.00    +0.000 OA
ATOM     11  N   UNL     1       5.930   5.893  17.157  0.00  0.00    +0.000 N 
ATOM     12  C   UNL     1       4.693   6.044  17.782  0.00  0.00    +0.000 A 
ATOM     13  N   UNL     1       3.977   7.150  17.489  0.00  0.00    +0.000 NA
ATOM     14  H   UNL     1       2.614   9.076  17.368  0.00  0.00    +0.000 HD
ATOM     15  H   UNL     1       6.933   3.125  18.474  0.00  0.00    +0.000 HD
ATOM     16  H   UNL     1       6.229   6.606  16.507  0.00  0.00    +0.000 HD
ENDROOT
BRANCH   1  21
ATOM     17  C   UNL     1       0.607   9.469  21.208  0.00  0.00    +0.000 A 
ATOM     18  C   UNL     1      -0.297  10.439  20.777  0.00  0.00    +0.000 A 
ATOM     19  C   UNL     1      -0.445  10.717  19.417  0.00  0.00    +0.000 A 
ATOM     20  C   UNL     1       0.338  10.046  18.475  0.00  0.00    +0.000 A 
ATOM     21  C   UNL     1       1.262   9.080  18.883  0.00  0.00    +0.000 A 
ATOM     22  C   UNL     1       1.420   8.844  20.258  0.00  0.00    +0.000 A 
BRANCH  17  23
ATOM     23  N   UNL     1       0.863   9.292  22.575  0.00  0.00    +0.000 N 
ATOM     24  H   UNL     1       1.616   9.876  22.924  0.00  0.00    +0.000 HD
ATOM     25  H   UNL     1       0.030   9.368  23.152  0.00  0.00    +0.000 HD
ENDBRANCH  17  23
ENDBRANCH   1  21
TORSDOF 2
ENDMDL
MODEL 6
REMARK VINA RESULT:      -7.0      1.106      1.191
REMARK  Name = 
REMARK  2 active torsions:
REMARK  status: ('A' for Active; 'I' for Inactive)
REMARK    1  A    between atoms: N_1  and  C_2
REMARK    2  A    between atoms: C_6  and  N_7
REMARK                            x       y       z     vdW  Elec       q    Type
REMARK                         _______ _______ _______ _____ _____    ______ ____
ROOT
ATOM      1  N   UNL     1       2.595   7.431  18.210  0.00  0.00    +0.000 N 
ATOM      2  C   UNL     1       1.941   8.138  19.227  0.00  0.00    +0.000 A 
ATOM      3  N   UNL     1       2.045   7.719  20.516  0.00  0.00    +0.000 NA
ATOM      4  N   UNL     1       1.371   8.351  21.519  0.00  0.00    +0.000 NA
ATOM      5  C   UNL     1       0.620   9.403  21.178  0.00  0.00    +0.000 A 
ATOM      6  C   UNL     1      -0.162  10.108  22.202  0.00  0.00    +0.000 A 
ATOM      7  O   UNL     1      -0.169   9.777  23.380  0.00  0.00    +0.000 OA
ATOM      8  N   UNL     1      -0.908  11.172  21.748  0.00  0.00    +0.000 N 
ATOM      9  C   UNL     1      -0.988  11.605  20.451  0.00  0.00    +0.000 A 
ATOM     10  O   UNL     1      -1.694  12.554  20.130  0.00  0.00    +0.000 OA
ATOM     11  N   UNL     1      -0.247  10.919  19.538  0.00  0.00    +0.000 N 
ATOM     12  C   UNL     1       0.551   9.825  19.869  0.00  0.00    +0.000 A 
ATOM     13  N   UNL     1       1.210   9.210  18.865  0.00  0.00    +0.000 NA
ATOM     14  H   UNL     1       2.286   7.788  17.314  0.00  0.00    +0.000 HD
ATOM     15  H   UNL     1      -1.463  11.669  22.430  0.00  0.00    +0.000 HD
ATOM     16  H   UNL     1      -0.287  11.210  18.571  0.00  0.00    +0.000 HD
ENDROOT
BRANCH   1  21
ATOM     17  C   UNL     1       4.227   4.073  18.513  0.00  0.00    +0.000 A 
ATOM     18  C   UNL     1       3.138   3.251  18.224  0.00  0.00    +0.000 A 
ATOM     19  C   UNL     1       1.898   3.803  17.902  0.00  0.00    +0.000 A 
ATOM     20  C   UNL     1       1.726   5.189  17.898  0.00  0.00    +0.000 A 
ATOM     21  C   UNL     1       2.797   6.035  18.200  0.00  0.00    +0.000 A 
ATOM     22  C   UNL     1       4.026   5.456  18.558  0.00  0.00    +0.000 A 
BRANCH  17  23
ATOM     23  N   UNL     1       5.430   3.524  18.979  0.00  0.00    +0.000 N 
ATOM     24  H   UNL     1       5.298   2.736  19.605  0.00  0.00    +0.000 HD
ATOM     25  H   UNL     1       6.086   3.306  18.234  0.00  0.00    +0.000 HD
ENDBRANCH  17  23
ENDBRANCH   1  21
TORSDOF 2
ENDMDL
MODEL 7
REMARK VINA RESULT:      -7.0      3.623      7.217
REMARK  Name = 
REMARK  2 active torsions:
REMARK  status: ('A' for Active; 'I' for Inactive)
REMARK    1  A    between atoms: N_1  and  C_2
REMARK    2  A    between atoms: C_6  and  N_7
REMARK                            x       y       z     vdW  Elec       q    Type
REMARK                         _______ _______ _______ _____ _____    ______ ____
ROOT
ATOM      1  N   UNL     1       2.076   8.456  17.909  0.00  0.00    +0.000 N 
ATOM      2  C   UNL     1       2.819   7.291  18.139  0.00  0.00    +0.000 A 
ATOM      3  N   UNL     1       2.350   6.350  19.001  0.00  0.00    +0.000 NA
ATOM      4  N   UNL     1       3.078   5.234  19.290  0.00  0.00    +0.000 NA
ATOM      5  C   UNL     1       4.260   5.104  18.679  0.00  0.00    +0.000 A 
ATOM      6  C   UNL     1       5.114   3.945  18.972  0.00  0.00    +0.000 A 
ATOM      7  O   UNL     1       4.799   3.071  19.769  0.00  0.00    +0.000 OA
ATOM      8  N   UNL     1       6.313   3.908  18.298  0.00  0.00    +0.000 N 
ATOM      9  C   UNL     1       6.768   4.846  17.411  0.00  0.00    +0.000 A 
ATOM     10  O   UNL     1       7.861   4.744  16.866  0.00  0.00    +0.000 OA
ATOM     11  N   UNL     1       5.943   5.903  17.173  0.00  0.00    +0.000 N 
ATOM     12  C   UNL     1       4.703   6.058  17.790  0.00  0.00    +0.000 A 
ATOM     13  N   UNL     1       3.994   7.168  17.494  0.00  0.00    +0.000 NA
ATOM     14  H   UNL     1       2.641   9.101  17.368  0.00  0.00    +0.000 HD
ATOM     15  H   UNL     1       6.924   3.126  18.489  0.00  0.00    +0.000 HD
ATOM     16  H   UNL     1       6.251   6.616  16.527  0.00  0.00    +0.000 HD
ENDROOT
BRANCH   1  21
ATOM     17  C   UNL     1      -0.499  10.676  19.479  0.00  0.00    +0.000 A 
ATOM     18  C   UNL     1      -0.326  10.334  20.819  0.00  0.00    +0.000 A 
ATOM     19  C   UNL     1       0.651   9.411  21.195  0.00  0.00    +0.000 A 
ATOM     20  C   UNL     1       1.443   8.793  20.225  0.00  0.00    +0.000 A 
ATOM     21  C   UNL     1       1.278   9.107  18.873  0.00  0.00    +0.000 A 
ATOM     22  C   UNL     1       0.265  10.011  18.516  0.00  0.00    +0.000 A 
BRANCH  17  23
ATOM     23  N   UNL     1      -1.572  11.489  19.085  0.00  0.00    +0.000 N 
ATOM     24  H   UNL     1      -2.255  11.640  19.820  0.00  0.00    +0.000 HD
ATOM     25  H   UNL     1      -1.277  12.364  18.660  0.00  0.00    +0.000 HD
ENDBRANCH  17  23
ENDBRANCH   1  21
TORSDOF 2
ENDMDL
MODEL 8
REMARK VINA RESULT:      -7.0      3.774      7.271
REMARK  Name = 
REMARK  2 active torsions:
REMARK  status: ('A' for Active; 'I' for Inactive)
REMARK    1  A    between atoms: N_1  and  C_2
REMARK    2  A    between atoms: C_6  and  N_7
REMARK                            x       y       z     vdW  Elec       q    Type
REMARK                         _______ _______ _______ _____ _____    ______ ____
ROOT
ATOM      1  N   UNL     1       2.491   8.683  18.041  0.00  0.00    +0.000 N 
ATOM      2  C   UNL     1       2.990   7.398  17.796  0.00  0.00    +0.000 A 
ATOM      3  N   UNL     1       2.203   6.313  18.026  0.00  0.00    +0.000 NA
ATOM      4  N   UNL     1       2.681   5.048  17.854  0.00  0.00    +0.000 NA
ATOM      5  C   UNL     1       3.946   4.926  17.439  0.00  0.00    +0.000 A 
ATOM      6  C   UNL     1       4.537   3.592  17.268  0.00  0.00    +0.000 A 
ATOM      7  O   UNL     1       3.923   2.558  17.496  0.00  0.00    +0.000 OA
ATOM      8  N   UNL     1       5.846   3.575  16.845  0.00  0.00    +0.000 N 
ATOM      9  C   UNL     1       6.625   4.672  16.590  0.00  0.00    +0.000 A 
ATOM     10  O   UNL     1       7.793   4.566  16.232  0.00  0.00    +0.000 OA
ATOM     11  N   UNL     1       6.034   5.886  16.764  0.00  0.00    +0.000 N 
ATOM     12  C   UNL     1       4.715   6.040  17.187  0.00  0.00    +0.000 A 
ATOM     13  N   UNL     1       4.258   7.299  17.354  0.00  0.00    +0.000 NA
ATOM     14  H   UNL     1       3.252   9.348  17.963  0.00  0.00    +0.000 HD
ATOM     15  H   UNL     1       6.280   2.670  16.729  0.00  0.00    +0.000 HD
ATOM     16  H   UNL     1       6.583   6.716  16.589  0.00  0.00    +0.000 HD
ENDROOT
BRANCH   1  21
ATOM     17  C   UNL     1      -0.316  10.305  19.916  0.00  0.00    +0.000 A 
ATOM     18  C   UNL     1      -0.243   9.598  21.116  0.00  0.00    +0.000 A 
ATOM     19  C   UNL     1       0.741   8.627  21.308  0.00  0.00    +0.000 A 
ATOM     20  C   UNL     1       1.644   8.330  20.285  0.00  0.00    +0.000 A 
ATOM     21  C   UNL     1       1.582   9.014  19.068  0.00  0.00    +0.000 A 
ATOM     22  C   UNL     1       0.560   9.960  18.884  0.00  0.00    +0.000 A 
BRANCH  17  23
ATOM     23  N   UNL     1      -1.388  11.173  19.666  0.00  0.00    +0.000 N 
ATOM     24  H   UNL     1      -2.275  10.694  19.542  0.00  0.00    +0.000 HD
ATOM     25  H   UNL     1      -1.460  11.927  20.343  0.00  0.00    +0.000 HD
ENDBRANCH  17  23
ENDBRANCH   1  21
TORSDOF 2
ENDMDL
MODEL 9
REMARK VINA RESULT:      -7.0      0.964      1.057
REMARK  Name = 
REMARK  2 active torsions:
REMARK  status: ('A' for Active; 'I' for Inactive)
REMARK    1  A    between atoms: N_1  and  C_2
REMARK    2  A    between atoms: C_6  and  N_7
REMARK                            x       y       z     vdW  Elec       q    Type
REMARK                         _______ _______ _______ _____ _____    ______ ____
ROOT
ATOM      1  N   UNL     1       3.289   7.531  17.538  0.00  0.00    +0.000 N 
ATOM      2  C   UNL     1       2.382   8.259  18.318  0.00  0.00    +0.000 A 
ATOM      3  N   UNL     1       2.259   7.984  19.644  0.00  0.00    +0.000 NA
ATOM      4  N   UNL     1       1.342   8.634  20.416  0.00  0.00    +0.000 NA
ATOM      5  C   UNL     1       0.585   9.557  19.814  0.00  0.00    +0.000 A 
ATOM      6  C   UNL     1      -0.448  10.269  20.577  0.00  0.00    +0.000 A 
ATOM      7  O   UNL     1      -0.665  10.058  21.763  0.00  0.00    +0.000 OA
ATOM      8  N   UNL     1      -1.178  11.194  19.865  0.00  0.00    +0.000 N 
ATOM      9  C   UNL     1      -1.032  11.484  18.535  0.00  0.00    +0.000 A 
ATOM     10  O   UNL     1      -1.740  12.312  17.973  0.00  0.00    +0.000 OA
ATOM     11  N   UNL     1      -0.063  10.797  17.869  0.00  0.00    +0.000 N 
ATOM     12  C   UNL     1       0.745   9.837  18.475  0.00  0.00    +0.000 A 
ATOM     13  N   UNL     1       1.647   9.201  17.698  0.00  0.00    +0.000 NA
ATOM     14  H   UNL     1       3.137   7.761  16.562  0.00  0.00    +0.000 HD
ATOM     15  H   UNL     1      -1.903  11.691  20.363  0.00  0.00    +0.000 HD
ATOM     16  H   UNL     1       0.068  10.984  16.885  0.00  0.00    +0.000 HD
ENDROOT
BRANCH   1  21
ATOM     17  C   UNL     1       5.244   4.393  18.135  0.00  0.00    +0.000 A 
ATOM     18  C   UNL     1       4.204   3.466  18.177  0.00  0.00    +0.000 A 
ATOM     19  C   UNL     1       2.884   3.873  17.976  0.00  0.00    +0.000 A 
ATOM     20  C   UNL     1       2.589   5.221  17.763  0.00  0.00    +0.000 A 
ATOM     21  C   UNL     1       3.613   6.172  17.733  0.00  0.00    +0.000 A 
ATOM     22  C   UNL     1       4.928   5.745  17.975  0.00  0.00    +0.000 A 
BRANCH  17  23
ATOM     23  N   UNL     1       6.549   4.014  18.481  0.00  0.00    +0.000 N 
ATOM     24  H   UNL     1       7.217   4.777  18.435  0.00  0.00    +0.000 HD
ATOM     25  H   UNL     1       6.602   3.521  19.368  0.00  0.00    +0.000 HD
ENDBRANCH  17  23
ENDBRANCH   1  21
TORSDOF 2
ENDMDL
