MODEL 1
REMARK VINA RESULT:      -7.9      0.000      0.000
REMARK  Name = 
REMARK  4 active torsions:
REMARK  status: ('A' for Active; 'I' for Inactive)
REMARK    1  A    between atoms: C_1  and  S_2
REMARK    2  A    between atoms: S_2  and  C_3
REMARK    3  A    between atoms: C_9  and  C_10
REMARK    4  A    between atoms: C_25  and  C_26
REMARK                            x       y       z     vdW  Elec       q    Type
REMARK                         _______ _______ _______ _____ _____    ______ ____
ROOT
ATOM      1  C   UNL     1      -1.750  13.269  22.479  0.00  0.00    +0.000 C 
ATOM      2  N   UNL     1      -2.648  13.143  21.562  0.00  0.00    +0.000 NA
ATOM      3  C   UNL     1      -2.329  12.355  20.452  0.00  0.00    +0.000 A 
ATOM      4  N   UNL     1      -3.308  12.360  19.540  0.00  0.00    +0.000 NA
ATOM      5  C   UNL     1      -3.216  11.558  18.463  0.00  0.00    +0.000 A 
ATOM      6  C   UNL     1      -2.120  10.699  18.273  0.00  0.00    +0.000 A 
ATOM      7  C   UNL     1      -1.044  10.694  19.229  0.00  0.00    +0.000 A 
ATOM      8  C   UNL     1      -1.169  11.591  20.344  0.00  0.00    +0.000 A 
ATOM      9  C   UNL     1      -0.167  11.752  21.462  0.00  0.00    +0.000 C 
ATOM     10 CL   UNL     1       1.425  12.292  20.898  0.00  0.00    +0.000 Cl
ATOM     11  N   UNL     1      -0.518  12.735  22.437  0.00  0.00    +0.000 N 
ATOM     12  C   UNL     1      -2.101   9.844  17.017  0.00  0.00    +0.000 C 
ATOM     13  C   UNL     1      -3.425   9.680  16.291  0.00  0.00    +0.000 C 
ATOM     14  C   UNL     1      -4.061  11.043  16.122  0.00  0.00    +0.000 C 
ATOM     15  C   UNL     1      -4.334  11.642  17.480  0.00  0.00    +0.000 C 
ATOM     16  C   UNL     1      -5.561  12.164  17.690  0.00  0.00    +0.000 C 
ATOM     17  H   UNL     1       0.003  12.723  23.305  0.00  0.00    +0.000 HD
ENDROOT
BRANCH   7  18
ATOM     18  C   UNL     1       0.148   9.774  19.067  0.00  0.00    +0.000 A 
ATOM     19  C   UNL     1       0.512   8.824  20.041  0.00  0.00    +0.000 A 
ATOM     20  C   UNL     1       1.649   8.013  19.927  0.00  0.00    +0.000 A 
ATOM     21  C   UNL     1       2.374   8.018  18.752  0.00  0.00    +0.000 A 
ATOM     22 CL   UNL     1       3.713   6.958  18.558  0.00  0.00    +0.000 Cl
ATOM     23  C   UNL     1       2.022   8.887  17.735  0.00  0.00    +0.000 A 
ATOM     24  C   UNL     1       0.980   9.803  17.932  0.00  0.00    +0.000 A 
ENDBRANCH   7  18
BRANCH  16  25
ATOM     25  C   UNL     1      -6.103  12.766  18.905  0.00  0.00    +0.000 A 
ATOM     26  C   UNL     1      -6.532  11.951  19.960  0.00  0.00    +0.000 A 
ATOM     27  C   UNL     1      -6.950  12.525  21.159  0.00  0.00    +0.000 A 
ATOM     28  C   UNL     1      -6.930  13.911  21.305  0.00  0.00    +0.000 A 
ATOM     29 CL   UNL     1      -7.383  14.618  22.807  0.00  0.00    +0.000 Cl
ATOM     30  C   UNL     1      -6.528  14.731  20.250  0.00  0.00    +0.000 A 
ATOM     31  C   UNL     1      -6.122  14.156  19.045  0.00  0.00    +0.000 A 
ENDBRANCH  16  25
BRANCH   1  33
ATOM     32  C   UNL     1      -3.709  13.552  24.343  0.00  0.00    +0.000 C 
ATOM     33  S   UNL     1      -2.059  14.158  23.943  0.00  0.00    +0.000 S 
ENDBRANCH   1  33
TORSDOF 3
ENDMDL
MODEL 2
REMARK VINA RESULT:      -7.7      0.389      1.261
REMARK  Name = 
REMARK  4 active torsions:
REMARK  status: ('A' for Active; 'I' for Inactive)
REMARK    1  A    between atoms: C_1  and  S_2
REMARK    2  A    between atoms: S_2  and  C_3
REMARK    3  A    between atoms: C_9  and  C_10
REMARK    4  A    between atoms: C_25  and  C_26
REMARK                            x       y       z     vdW  Elec       q    Type
REMARK                         _______ _______ _______ _____ _____    ______ ____
ROOT
ATOM      1  C   UNL     1      -1.469  13.592  22.516  0.00  0.00    +0.000 C 
ATOM      2  N   UNL     1      -2.439  13.439  21.679  0.00  0.00    +0.000 NA
ATOM      3  C   UNL     1      -2.224  12.588  20.592  0.00  0.00    +0.000 A 
ATOM      4  N   UNL     1      -3.273  12.569  19.760  0.00  0.00    +0.000 NA
ATOM      5  C   UNL     1      -3.281  11.710  18.723  0.00  0.00    +0.000 A 
ATOM      6  C   UNL     1      -2.221  10.818  18.494  0.00  0.00    +0.000 A 
ATOM      7  C   UNL     1      -1.072  10.838  19.362  0.00  0.00    +0.000 A 
ATOM      8  C   UNL     1      -1.091  11.793  20.434  0.00  0.00    +0.000 A 
ATOM      9  C   UNL     1      -0.001  11.989  21.460  0.00  0.00    +0.000 C 
ATOM     10 CL   UNL     1       1.551  12.462  20.745  0.00  0.00    +0.000 Cl
ATOM     11  N   UNL     1      -0.255  13.028  22.405  0.00  0.00    +0.000 N 
ATOM     12  C   UNL     1      -2.318   9.899  17.287  0.00  0.00    +0.000 C 
ATOM     13  C   UNL     1      -3.697   9.729  16.677  0.00  0.00    +0.000 C 
ATOM     14  C   UNL     1      -4.319  11.096  16.486  0.00  0.00    +0.000 C 
ATOM     15  C   UNL     1      -4.473  11.770  17.827  0.00  0.00    +0.000 C 
ATOM     16  C   UNL     1      -5.668  12.330  18.105  0.00  0.00    +0.000 C 
ATOM     17  H   UNL     1       0.333  13.049  23.229  0.00  0.00    +0.000 HD
ENDROOT
BRANCH   7  18
ATOM     18  C   UNL     1       0.086   9.884  19.156  0.00  0.00    +0.000 A 
ATOM     19  C   UNL     1       0.825   9.832  17.959  0.00  0.00    +0.000 A 
ATOM     20  C   UNL     1       1.856   8.910  17.739  0.00  0.00    +0.000 A 
ATOM     21  C   UNL     1       2.288   8.109  18.778  0.00  0.00    +0.000 A 
ATOM     22 CL   UNL     1       3.617   7.043  18.554  0.00  0.00    +0.000 Cl
ATOM     23  C   UNL     1       1.639   8.166  19.998  0.00  0.00    +0.000 A 
ATOM     24  C   UNL     1       0.507   8.977  20.148  0.00  0.00    +0.000 A 
ENDBRANCH   7  18
BRANCH  16  25
ATOM     25  C   UNL     1      -6.101  13.006  19.325  0.00  0.00    +0.000 A 
ATOM     26  C   UNL     1      -6.130  14.405  19.377  0.00  0.00    +0.000 A 
ATOM     27  C   UNL     1      -6.643  15.050  20.502  0.00  0.00    +0.000 A 
ATOM     28  C   UNL     1      -7.134  14.296  21.566  0.00  0.00    +0.000 A 
ATOM     29 CL   UNL     1      -7.827  15.090  22.927  0.00  0.00    +0.000 Cl
ATOM     30  C   UNL     1      -7.086  12.902  21.531  0.00  0.00    +0.000 A 
ATOM     31  C   UNL     1      -6.560  12.257  20.411  0.00  0.00    +0.000 A 
ENDBRANCH  16  25
BRANCH   1  33
ATOM     32  C   UNL     1      -3.316  14.103  24.444  0.00  0.00    +0.000 C 
ATOM     33  S   UNL     1      -1.644  14.562  23.950  0.00  0.00    +0.000 S 
ENDBRANCH   1  33
TORSDOF 3
ENDMDL
MODEL 3
REMARK VINA RESULT:      -7.4      1.026      1.384
REMARK  Name = 
REMARK  4 active torsions:
REMARK  status: ('A' for Active; 'I' for Inactive)
REMARK    1  A    between atoms: C_1  and  S_2
REMARK    2  A    between atoms: S_2  and  C_3
REMARK    3  A    between atoms: C_9  and  C_10
REMARK    4  A    between atoms: C_25  and  C_26
REMARK                            x       y       z     vdW  Elec       q    Type
REMARK                         _______ _______ _______ _____ _____    ______ ____
ROOT
ATOM      1  C   UNL     1      -0.781  14.276  22.205  0.00  0.00    +0.000 C 
ATOM      2  N   UNL     1      -1.878  14.031  21.573  0.00  0.00    +0.000 NA
ATOM      3  C   UNL     1      -1.853  13.023  20.605  0.00  0.00    +0.000 A 
ATOM      4  N   UNL     1      -3.027  12.913  19.971  0.00  0.00    +0.000 NA
ATOM      5  C   UNL     1      -3.213  11.911  19.090  0.00  0.00    +0.000 A 
ATOM      6  C   UNL     1      -2.211  10.964  18.826  0.00  0.00    +0.000 A 
ATOM      7  C   UNL     1      -0.933  11.076  19.478  0.00  0.00    +0.000 A 
ATOM      8  C   UNL     1      -0.767  12.180  20.383  0.00  0.00    +0.000 A 
ATOM      9  C   UNL     1       0.481  12.491  21.174  0.00  0.00    +0.000 C 
ATOM     10 CL   UNL     1       1.894  12.807  20.149  0.00  0.00    +0.000 Cl
ATOM     11  N   UNL     1       0.395  13.666  21.981  0.00  0.00    +0.000 N 
ATOM     12  C   UNL     1      -2.514   9.881  17.803  0.00  0.00    +0.000 C 
ATOM     13  C   UNL     1      -3.977   9.664  17.462  0.00  0.00    +0.000 C 
ATOM     14  C   UNL     1      -4.616  11.005  17.174  0.00  0.00    +0.000 C 
ATOM     15  C   UNL     1      -4.538  11.874  18.405  0.00  0.00    +0.000 C 
ATOM     16  C   UNL     1      -5.667  12.505  18.790  0.00  0.00    +0.000 C 
ATOM     17  H   UNL     1       1.113  13.790  22.684  0.00  0.00    +0.000 HD
ENDROOT
BRANCH   7  18
ATOM     18  C   UNL     1       0.170  10.068  19.230  0.00  0.00    +0.000 A 
ATOM     19  C   UNL     1       0.580   9.136  20.202  0.00  0.00    +0.000 A 
ATOM     20  C   UNL     1       1.640   8.243  20.002  0.00  0.00    +0.000 A 
ATOM     21  C   UNL     1       2.224   8.147  18.754  0.00  0.00    +0.000 A 
ATOM     22 CL   UNL     1       3.459   6.987  18.465  0.00  0.00    +0.000 Cl
ATOM     23  C   UNL     1       1.814   8.995  17.742  0.00  0.00    +0.000 A 
ATOM     24  C   UNL     1       0.865   9.990  18.009  0.00  0.00    +0.000 A 
ENDBRANCH   7  18
BRANCH  16  25
ATOM     25  C   UNL     1      -5.886  13.366  19.949  0.00  0.00    +0.000 A 
ATOM     26  C   UNL     1      -5.943  14.755  19.788  0.00  0.00    +0.000 A 
ATOM     27  C   UNL     1      -6.257  15.571  20.874  0.00  0.00    +0.000 A 
ATOM     28  C   UNL     1      -6.522  14.995  22.115  0.00  0.00    +0.000 A 
ATOM     29 CL   UNL     1      -6.973  15.995  23.441  0.00  0.00    +0.000 Cl
ATOM     30  C   UNL     1      -6.442  13.613  22.289  0.00  0.00    +0.000 A 
ATOM     31  C   UNL     1      -6.115  12.798  21.205  0.00  0.00    +0.000 A 
ENDBRANCH  16  25
BRANCH   1  33
ATOM     32  C   UNL     1      -1.992  14.813  24.579  0.00  0.00    +0.000 C 
ATOM     33  S   UNL     1      -0.708  15.451  23.486  0.00  0.00    +0.000 S 
ENDBRANCH   1  33
TORSDOF 3
ENDMDL
MODEL 4
REMARK VINA RESULT:      -7.3      0.916      1.328
REMARK  Name = 
REMARK  4 active torsions:
REMARK  status: ('A' for Active; 'I' for Inactive)
REMARK    1  A    between atoms: C_1  and  S_2
REMARK    2  A    between atoms: S_2  and  C_3
REMARK    3  A    between atoms: C_9  and  C_10
REMARK    4  A    between atoms: C_25  and  C_26
REMARK                            x       y       z     vdW  Elec       q    Type
REMARK                         _______ _______ _______ _____ _____    ______ ____
ROOT
ATOM      1  C   UNL     1      -1.173  13.890  22.469  0.00  0.00    +0.000 C 
ATOM      2  N   UNL     1      -2.208  13.703  21.722  0.00  0.00    +0.000 NA
ATOM      3  C   UNL     1      -2.086  12.793  20.668  0.00  0.00    +0.000 A 
ATOM      4  N   UNL     1      -3.198  12.741  19.924  0.00  0.00    +0.000 NA
ATOM      5  C   UNL     1      -3.294  11.828  18.939  0.00  0.00    +0.000 A 
ATOM      6  C   UNL     1      -2.261  10.914  18.675  0.00  0.00    +0.000 A 
ATOM      7  C   UNL     1      -1.047  10.967  19.447  0.00  0.00    +0.000 A 
ATOM      8  C   UNL     1      -0.974  11.979  20.464  0.00  0.00    +0.000 A 
ATOM      9  C   UNL     1       0.196  12.217  21.389  0.00  0.00    +0.000 C 
ATOM     10 CL   UNL     1       1.689  12.634  20.528  0.00  0.00    +0.000 Cl
ATOM     11  N   UNL     1       0.024  13.308  22.294  0.00  0.00    +0.000 N 
ATOM     12  C   UNL     1      -2.460   9.933  17.531  0.00  0.00    +0.000 C 
ATOM     13  C   UNL     1      -3.884   9.746  17.042  0.00  0.00    +0.000 C 
ATOM     14  C   UNL     1      -4.511  11.106  16.827  0.00  0.00    +0.000 C 
ATOM     15  C   UNL     1      -4.553  11.853  18.138  0.00  0.00    +0.000 C 
ATOM     16  C   UNL     1      -5.719  12.440  18.479  0.00  0.00    +0.000 C 
ATOM     17  H   UNL     1       0.676  13.366  23.066  0.00  0.00    +0.000 HD
ENDROOT
BRANCH   7  18
ATOM     18  C   UNL     1       0.085   9.991  19.202  0.00  0.00    +0.000 A 
ATOM     19  C   UNL     1       0.805   9.950  17.993  0.00  0.00    +0.000 A 
ATOM     20  C   UNL     1       1.810   9.009  17.736  0.00  0.00    +0.000 A 
ATOM     21  C   UNL     1       2.238   8.175  18.750  0.00  0.00    +0.000 A 
ATOM     22 CL   UNL     1       3.537   7.083  18.481  0.00  0.00    +0.000 Cl
ATOM     23  C   UNL     1       1.608   8.218  19.981  0.00  0.00    +0.000 A 
ATOM     24  C   UNL     1       0.499   9.052  20.166  0.00  0.00    +0.000 A 
ENDBRANCH   7  18
BRANCH  16  25
ATOM     25  C   UNL     1      -6.049  13.185  19.691  0.00  0.00    +0.000 A 
ATOM     26  C   UNL     1      -6.367  12.499  20.870  0.00  0.00    +0.000 A 
ATOM     27  C   UNL     1      -6.578  13.207  22.053  0.00  0.00    +0.000 A 
ATOM     28  C   UNL     1      -6.461  14.595  22.056  0.00  0.00    +0.000 A 
ATOM     29 CL   UNL     1      -6.656  15.464  23.529  0.00  0.00    +0.000 Cl
ATOM     30  C   UNL     1      -6.169  15.287  20.880  0.00  0.00    +0.000 A 
ATOM     31  C   UNL     1      -5.971  14.580  19.694  0.00  0.00    +0.000 A 
ENDBRANCH  16  25
BRANCH   1  33
ATOM     32  C   UNL     1      -1.161  16.546  23.049  0.00  0.00    +0.000 C 
ATOM     33  S   UNL     1      -1.228  14.937  23.858  0.00  0.00    +0.000 S 
ENDBRANCH   1  33
TORSDOF 3
ENDMDL
MODEL 5
REMARK VINA RESULT:      -7.2      1.377      1.911
REMARK  Name = 
REMARK  4 active torsions:
REMARK  status: ('A' for Active; 'I' for Inactive)
REMARK    1  A    between atoms: C_1  and  S_2
REMARK    2  A    between atoms: S_2  and  C_3
REMARK    3  A    between atoms: C_9  and  C_10
REMARK    4  A    between atoms: C_25  and  C_26
REMARK                            x       y       z     vdW  Elec       q    Type
REMARK                         _______ _______ _______ _____ _____    ______ ____
ROOT
ATOM      1  C   UNL     1      -0.239  14.429  21.918  0.00  0.00    +0.000 C 
ATOM      2  N   UNL     1      -1.392  14.174  21.399  0.00  0.00    +0.000 NA
ATOM      3  C   UNL     1      -1.471  13.110  20.496  0.00  0.00    +0.000 A 
ATOM      4  N   UNL     1      -2.697  12.991  19.973  0.00  0.00    +0.000 NA
ATOM      5  C   UNL     1      -2.979  11.944  19.174  0.00  0.00    +0.000 A 
ATOM      6  C   UNL     1      -2.021  10.959  18.882  0.00  0.00    +0.000 A 
ATOM      7  C   UNL     1      -0.689  11.079  19.414  0.00  0.00    +0.000 A 
ATOM      8  C   UNL     1      -0.424  12.230  20.232  0.00  0.00    +0.000 A 
ATOM      9  C   UNL     1       0.895  12.558  20.892  0.00  0.00    +0.000 C 
ATOM     10 CL   UNL     1       2.217  12.779  19.732  0.00  0.00    +0.000 Cl
ATOM     11  N   UNL     1       0.901  13.779  21.631  0.00  0.00    +0.000 N 
ATOM     12  C   UNL     1      -2.432   9.825  17.957  0.00  0.00    +0.000 C 
ATOM     13  C   UNL     1      -3.923   9.623  17.758  0.00  0.00    +0.000 C 
ATOM     14  C   UNL     1      -4.560  10.960  17.444  0.00  0.00    +0.000 C 
ATOM     15  C   UNL     1      -4.358  11.898  18.609  0.00  0.00    +0.000 C 
ATOM     16  C   UNL     1      -5.438  12.577  19.051  0.00  0.00    +0.000 C 
ATOM     17  H   UNL     1       1.680  13.928  22.260  0.00  0.00    +0.000 HD
ENDROOT
BRANCH   7  18
ATOM     18  C   UNL     1       0.369  10.032  19.134  0.00  0.00    +0.000 A 
ATOM     19  C   UNL     1       1.059   9.958  17.908  0.00  0.00    +0.000 A 
ATOM     20  C   UNL     1       1.993   8.955  17.619  0.00  0.00    +0.000 A 
ATOM     21  C   UNL     1       2.384   8.081  18.613  0.00  0.00    +0.000 A 
ATOM     22 CL   UNL     1       3.600   6.907  18.303  0.00  0.00    +0.000 Cl
ATOM     23  C   UNL     1       1.785   8.150  19.858  0.00  0.00    +0.000 A 
ATOM     24  C   UNL     1       0.738   9.055  20.077  0.00  0.00    +0.000 A 
ENDBRANCH   7  18
BRANCH  16  25
ATOM     25  C   UNL     1      -5.538  13.510  20.170  0.00  0.00    +0.000 A 
ATOM     26  C   UNL     1      -5.630  14.886  19.928  0.00  0.00    +0.000 A 
ATOM     27  C   UNL     1      -5.833  15.768  20.988  0.00  0.00    +0.000 A 
ATOM     28  C   UNL     1      -5.952  15.272  22.285  0.00  0.00    +0.000 A 
ATOM     29 CL   UNL     1      -6.267  16.353  23.587  0.00  0.00    +0.000 Cl
ATOM     30  C   UNL     1      -5.836  13.904  22.537  0.00  0.00    +0.000 A 
ATOM     31  C   UNL     1      -5.620  13.023  21.477  0.00  0.00    +0.000 A 
ENDBRANCH  16  25
BRANCH   1  33
ATOM     32  C   UNL     1      -1.732  16.258  23.266  0.00  0.00    +0.000 C 
ATOM     33  S   UNL     1      -0.033  15.676  23.114  0.00  0.00    +0.000 S 
ENDBRANCH   1  33
TORSDOF 3
ENDMDL
MODEL 6
REMARK VINA RESULT:      -6.8      9.235     13.194
REMARK  Name = 
REMARK  4 active torsions:
REMARK  status: ('A' for Active; 'I' for Inactive)
REMARK    1  A    between atoms: C_1  and  S_2
REMARK    2  A    between atoms: S_2  and  C_3
REMARK    3  A    between atoms: C_9  and  C_10
REMARK    4  A    between atoms: C_25  and  C_26
REMARK                            x       y       z     vdW  Elec       q    Type
REMARK                         _______ _______ _______ _____ _____    ______ ____
ROOT
ATOM      1  C   UNL     1       8.907  17.016  19.032  0.00  0.00    +0.000 C 
ATOM      2  N   UNL     1       9.152  15.817  19.440  0.00  0.00    +0.000 NA
ATOM      3  C   UNL     1       8.379  15.326  20.496  0.00  0.00    +0.000 A 
ATOM      4  N   UNL     1       8.774  14.105  20.876  0.00  0.00    +0.000 NA
ATOM      5  C   UNL     1       8.061  13.436  21.802  0.00  0.00    +0.000 A 
ATOM      6  C   UNL     1       6.899  13.979  22.375  0.00  0.00    +0.000 A 
ATOM      7  C   UNL     1       6.469  15.301  21.999  0.00  0.00    +0.000 A 
ATOM      8  C   UNL     1       7.279  15.991  21.034  0.00  0.00    +0.000 A 
ATOM      9  C   UNL     1       7.019  17.378  20.496  0.00  0.00    +0.000 C 
ATOM     10 CL   UNL     1       7.030  18.626  21.755  0.00  0.00    +0.000 Cl
ATOM     11  N   UNL     1       7.995  17.846  19.564  0.00  0.00    +0.000 N 
ATOM     12  C   UNL     1       6.174  13.151  23.423  0.00  0.00    +0.000 C 
ATOM     13  C   UNL     1       6.513  11.672  23.468  0.00  0.00    +0.000 C 
ATOM     14  C   UNL     1       8.018  11.515  23.466  0.00  0.00    +0.000 C 
ATOM     15  C   UNL     1       8.582  12.093  22.191  0.00  0.00    +0.000 C 
ATOM     16  C   UNL     1       9.470  11.340  21.509  0.00  0.00    +0.000 C 
ATOM     17  H   UNL     1       7.751  18.664  19.020  0.00  0.00    +0.000 HD
ENDROOT
BRANCH   7  18
ATOM     18  C   UNL     1       5.216  15.917  22.584  0.00  0.00    +0.000 A 
ATOM     19  C   UNL     1       3.954  15.799  21.971  0.00  0.00    +0.000 A 
ATOM     20  C   UNL     1       2.802  16.418  22.473  0.00  0.00    +0.000 A 
ATOM     21  C   UNL     1       2.848  17.050  23.700  0.00  0.00    +0.000 A 
ATOM     22 CL   UNL     1       1.421  17.729  24.376  0.00  0.00    +0.000 Cl
ATOM     23  C   UNL     1       4.050  17.139  24.378  0.00  0.00    +0.000 A 
ATOM     24  C   UNL     1       5.222  16.654  23.783  0.00  0.00    +0.000 A 
ENDBRANCH   7  18
BRANCH  16  25
ATOM     25  C   UNL     1      10.136  11.631  20.243  0.00  0.00    +0.000 A 
ATOM     26  C   UNL     1       9.491  11.350  19.032  0.00  0.00    +0.000 A 
ATOM     27  C   UNL     1      10.081  11.725  17.825  0.00  0.00    +0.000 A 
ATOM     28  C   UNL     1      11.307  12.387  17.833  0.00  0.00    +0.000 A 
ATOM     29 CL   UNL     1      12.005  12.908  16.348  0.00  0.00    +0.000 Cl
ATOM     30  C   UNL     1      11.967  12.647  19.034  0.00  0.00    +0.000 A 
ATOM     31  C   UNL     1      11.383  12.260  20.241  0.00  0.00    +0.000 A 
ENDBRANCH  16  25
BRANCH   1  33
ATOM     32  C   UNL     1      10.845  16.342  17.249  0.00  0.00    +0.000 C 
ATOM     33  S   UNL     1       9.748  17.707  17.673  0.00  0.00    +0.000 S 
ENDBRANCH   1  33
TORSDOF 3
ENDMDL
MODEL 7
REMARK VINA RESULT:      -6.5      3.216      5.556
REMARK  Name = 
REMARK  4 active torsions:
REMARK  status: ('A' for Active; 'I' for Inactive)
REMARK    1  A    between atoms: C_1  and  S_2
REMARK    2  A    between atoms: S_2  and  C_3
REMARK    3  A    between atoms: C_9  and  C_10
REMARK    4  A    between atoms: C_25  and  C_26
REMARK                            x       y       z     vdW  Elec       q    Type
REMARK                         _______ _______ _______ _____ _____    ______ ____
ROOT
ATOM      1  C   UNL     1      -6.486  13.047  21.192  0.00  0.00    +0.000 C 
ATOM      2  N   UNL     1      -5.305  13.339  21.621  0.00  0.00    +0.000 NA
ATOM      3  C   UNL     1      -4.217  12.857  20.888  0.00  0.00    +0.000 A 
ATOM      4  N   UNL     1      -3.051  13.162  21.470  0.00  0.00    +0.000 NA
ATOM      5  C   UNL     1      -1.898  12.877  20.835  0.00  0.00    +0.000 A 
ATOM      6  C   UNL     1      -1.883  12.278  19.565  0.00  0.00    +0.000 A 
ATOM      7  C   UNL     1      -3.124  11.919  18.930  0.00  0.00    +0.000 A 
ATOM      8  C   UNL     1      -4.327  12.210  19.659  0.00  0.00    +0.000 A 
ATOM      9  C   UNL     1      -5.734  11.924  19.189  0.00  0.00    +0.000 C 
ATOM     10 CL   UNL     1      -6.035  10.199  18.907  0.00  0.00    +0.000 Cl
ATOM     11  N   UNL     1      -6.755  12.286  20.119  0.00  0.00    +0.000 N 
ATOM     12  C   UNL     1      -0.530  11.982  18.938  0.00  0.00    +0.000 C 
ATOM     13  C   UNL     1       0.662  12.712  19.530  0.00  0.00    +0.000 C 
ATOM     14  C   UNL     1       0.618  12.579  21.037  0.00  0.00    +0.000 C 
ATOM     15  C   UNL     1      -0.642  13.223  21.562  0.00  0.00    +0.000 C 
ATOM     16  C   UNL     1      -0.516  14.068  22.606  0.00  0.00    +0.000 C 
ATOM     17  H   UNL     1      -7.703  12.317  19.765  0.00  0.00    +0.000 HD
ENDROOT
BRANCH   7  18
ATOM     18  C   UNL     1      -3.151  11.283  17.556  0.00  0.00    +0.000 A 
ATOM     19  C   UNL     1      -3.925  11.795  16.497  0.00  0.00    +0.000 A 
ATOM     20  C   UNL     1      -4.004  11.177  15.243  0.00  0.00    +0.000 A 
ATOM     21  C   UNL     1      -3.180  10.105  14.958  0.00  0.00    +0.000 A 
ATOM     22 CL   UNL     1      -3.192   9.397  13.392  0.00  0.00    +0.000 Cl
ATOM     23  C   UNL     1      -2.350   9.601  15.943  0.00  0.00    +0.000 A 
ATOM     24  C   UNL     1      -2.405  10.132  17.238  0.00  0.00    +0.000 A 
ENDBRANCH   7  18
BRANCH  16  25
ATOM     25  C   UNL     1      -1.549  14.848  23.282  0.00  0.00    +0.000 A 
ATOM     26  C   UNL     1      -1.902  16.113  22.796  0.00  0.00    +0.000 A 
ATOM     27  C   UNL     1      -2.959  16.812  23.375  0.00  0.00    +0.000 A 
ATOM     28  C   UNL     1      -3.668  16.242  24.431  0.00  0.00    +0.000 A 
ATOM     29 CL   UNL     1      -5.015  17.076  25.104  0.00  0.00    +0.000 Cl
ATOM     30  C   UNL     1      -3.306  14.993  24.937  0.00  0.00    +0.000 A 
ATOM     31  C   UNL     1      -2.239  14.299  24.366  0.00  0.00    +0.000 A 
ENDBRANCH  16  25
BRANCH   1  33
ATOM     32  C   UNL     1      -7.916  12.652  23.471  0.00  0.00    +0.000 C 
ATOM     33  S   UNL     1      -7.917  13.656  21.974  0.00  0.00    +0.000 S 
ENDBRANCH   1  33
TORSDOF 3
ENDMDL
MODEL 8
REMARK VINA RESULT:      -6.2      3.262      5.510
REMARK  Name = 
REMARK  4 active torsions:
REMARK  status: ('A' for Active; 'I' for Inactive)
REMARK    1  A    between atoms: C_1  and  S_2
REMARK    2  A    between atoms: S_2  and  C_3
REMARK    3  A    between atoms: C_9  and  C_10
REMARK    4  A    between atoms: C_25  and  C_26
REMARK                            x       y       z     vdW  Elec       q    Type
REMARK                         _______ _______ _______ _____ _____    ______ ____
ROOT
ATOM      1  C   UNL     1      -6.473  13.049  21.208  0.00  0.00    +0.000 C 
ATOM      2  N   UNL     1      -5.299  13.367  21.636  0.00  0.00    +0.000 NA
ATOM      3  C   UNL     1      -4.200  12.900  20.909  0.00  0.00    +0.000 A 
ATOM      4  N   UNL     1      -3.041  13.232  21.491  0.00  0.00    +0.000 NA
ATOM      5  C   UNL     1      -1.882  12.963  20.861  0.00  0.00    +0.000 A 
ATOM      6  C   UNL     1      -1.853  12.353  19.596  0.00  0.00    +0.000 A 
ATOM      7  C   UNL     1      -3.086  11.965  18.962  0.00  0.00    +0.000 A 
ATOM      8  C   UNL     1      -4.296  12.240  19.686  0.00  0.00    +0.000 A 
ATOM      9  C   UNL     1      -5.696  11.923  19.217  0.00  0.00    +0.000 C 
ATOM     10 CL   UNL     1      -5.964  10.190  18.950  0.00  0.00    +0.000 Cl
ATOM     11  N   UNL     1      -6.726  12.274  20.141  0.00  0.00    +0.000 N 
ATOM     12  C   UNL     1      -0.493  12.077  18.975  0.00  0.00    +0.000 C 
ATOM     13  C   UNL     1       0.683  12.835  19.562  0.00  0.00    +0.000 C 
ATOM     14  C   UNL     1       0.639  12.714  21.070  0.00  0.00    +0.000 C 
ATOM     15  C   UNL     1      -0.634  13.339  21.586  0.00  0.00    +0.000 C 
ATOM     16  C   UNL     1      -0.527  14.196  22.624  0.00  0.00    +0.000 C 
ATOM     17  H   UNL     1      -7.674  12.283  19.785  0.00  0.00    +0.000 HD
ENDROOT
BRANCH   7  18
ATOM     18  C   UNL     1      -3.098  11.316  17.594  0.00  0.00    +0.000 A 
ATOM     19  C   UNL     1      -2.302  10.199  17.275  0.00  0.00    +0.000 A 
ATOM     20  C   UNL     1      -2.261   9.633  15.995  0.00  0.00    +0.000 A 
ATOM     21  C   UNL     1      -3.143  10.072  15.027  0.00  0.00    +0.000 A 
ATOM     22 CL   UNL     1      -3.174   9.322  13.481  0.00  0.00    +0.000 Cl
ATOM     23  C   UNL     1      -3.995  11.126  15.307  0.00  0.00    +0.000 A 
ATOM     24  C   UNL     1      -3.906  11.783  16.540  0.00  0.00    +0.000 A 
ENDBRANCH   7  18
BRANCH  16  25
ATOM     25  C   UNL     1      -1.576  14.962  23.290  0.00  0.00    +0.000 A 
ATOM     26  C   UNL     1      -2.093  14.523  24.515  0.00  0.00    +0.000 A 
ATOM     27  C   UNL     1      -3.017  15.308  25.203  0.00  0.00    +0.000 A 
ATOM     28  C   UNL     1      -3.414  16.533  24.671  0.00  0.00    +0.000 A 
ATOM     29 CL   UNL     1      -4.504  17.533  25.550  0.00  0.00    +0.000 Cl
ATOM     30  C   UNL     1      -2.922  16.966  23.439  0.00  0.00    +0.000 A 
ATOM     31  C   UNL     1      -2.007  16.174  22.744  0.00  0.00    +0.000 A 
ENDBRANCH  16  25
BRANCH   1  33
ATOM     32  C   UNL     1      -7.623  13.083  23.671  0.00  0.00    +0.000 C 
ATOM     33  S   UNL     1      -7.917  13.638  21.982  0.00  0.00    +0.000 S 
ENDBRANCH   1  33
TORSDOF 3
ENDMDL
MODEL 9
REMARK VINA RESULT:      -6.2      3.701      5.938
REMARK  Name = 
REMARK  4 active torsions:
REMARK  status: ('A' for Active; 'I' for Inactive)
REMARK    1  A    between atoms: C_1  and  S_2
REMARK    2  A    between atoms: S_2  and  C_3
REMARK    3  A    between atoms: C_9  and  C_10
REMARK    4  A    between atoms: C_25  and  C_26
REMARK                            x       y       z     vdW  Elec       q    Type
REMARK                         _______ _______ _______ _____ _____    ______ ____
ROOT
ATOM      1  C   UNL     1      -1.785  11.451  18.404  0.00  0.00    +0.000 C 
ATOM      2  N   UNL     1      -2.430  12.184  19.247  0.00  0.00    +0.000 NA
ATOM      3  C   UNL     1      -1.731  13.227  19.861  0.00  0.00    +0.000 A 
ATOM      4  N   UNL     1      -2.483  13.866  20.765  0.00  0.00    +0.000 NA
ATOM      5  C   UNL     1      -2.004  14.972  21.364  0.00  0.00    +0.000 A 
ATOM      6  C   UNL     1      -0.733  15.487  21.057  0.00  0.00    +0.000 A 
ATOM      7  C   UNL     1       0.103  14.803  20.106  0.00  0.00    +0.000 A 
ATOM      8  C   UNL     1      -0.436  13.608  19.518  0.00  0.00    +0.000 A 
ATOM      9  C   UNL     1       0.260  12.735  18.501  0.00  0.00    +0.000 C 
ATOM     10 CL   UNL     1       1.778  12.043  19.102  0.00  0.00    +0.000 Cl
ATOM     11  N   UNL     1      -0.485  11.586  18.096  0.00  0.00    +0.000 N 
ATOM     12  C   UNL     1      -0.276  16.732  21.799  0.00  0.00    +0.000 C 
ATOM     13  C   UNL     1      -1.358  17.540  22.492  0.00  0.00    +0.000 C 
ATOM     14  C   UNL     1      -2.227  16.602  23.302  0.00  0.00    +0.000 C 
ATOM     15  C   UNL     1      -2.892  15.611  22.379  0.00  0.00    +0.000 C 
ATOM     16  C   UNL     1      -4.219  15.418  22.530  0.00  0.00    +0.000 C 
ATOM     17  H   UNL     1      -0.159  11.099  17.270  0.00  0.00    +0.000 HD
ENDROOT
BRANCH   7  18
ATOM     18  C   UNL     1       1.473  15.332  19.738  0.00  0.00    +0.000 A 
ATOM     19  C   UNL     1       1.698  16.134  18.602  0.00  0.00    +0.000 A 
ATOM     20  C   UNL     1       2.971  16.575  18.221  0.00  0.00    +0.000 A 
ATOM     21  C   UNL     1       4.047  16.357  19.059  0.00  0.00    +0.000 A 
ATOM     22 CL   UNL     1       5.598  16.978  18.654  0.00  0.00    +0.000 Cl
ATOM     23  C   UNL     1       3.871  15.629  20.222  0.00  0.00    +0.000 A 
ATOM     24  C   UNL     1       2.622  15.060  20.503  0.00  0.00    +0.000 A 
ENDBRANCH   7  18
BRANCH  16  25
ATOM     25  C   UNL     1      -5.113  14.557  21.760  0.00  0.00    +0.000 A 
ATOM     26  C   UNL     1      -5.640  15.006  20.544  0.00  0.00    +0.000 A 
ATOM     27  C   UNL     1      -6.407  14.148  19.757  0.00  0.00    +0.000 A 
ATOM     28  C   UNL     1      -6.636  12.841  20.183  0.00  0.00    +0.000 A 
ATOM     29 CL   UNL     1      -7.527  11.760  19.183  0.00  0.00    +0.000 Cl
ATOM     30  C   UNL     1      -6.134  12.394  21.407  0.00  0.00    +0.000 A 
ATOM     31  C   UNL     1      -5.378  13.258  22.200  0.00  0.00    +0.000 A 
ENDBRANCH  16  25
BRANCH   1  33
ATOM     32  C   UNL     1      -2.706  10.950  15.896  0.00  0.00    +0.000 C 
ATOM     33  S   UNL     1      -2.569  10.175  17.517  0.00  0.00    +0.000 S 
ENDBRANCH   1  33
TORSDOF 3
ENDMDL
