MODEL 1
REMARK VINA RESULT:      -8.9      0.000      0.000
REMARK  Name = 
REMARK  5 active torsions:
REMARK  status: ('A' for Active; 'I' for Inactive)
REMARK    1  A    between atoms: C_1  and  O_2
REMARK    2  A    between atoms: O_2  and  C_3
REMARK    3  A    between atoms: C_3  and  C_5
REMARK    4  A    between atoms: C_5  and  C_6
REMARK    5  A    between atoms: C_17  and  C_19
REMARK                            x       y       z     vdW  Elec       q    Type
REMARK                         _______ _______ _______ _____ _____    ______ ____
ROOT
ATOM      1  C   UNL     1       2.821   5.114  18.874  0.00  0.00    +0.000 C 
ATOM      2  C   UNL     1       3.965   4.243  19.393  0.00  0.00    +0.000 C 
ATOM      3  O   UNL     1       4.559   3.496  18.338  0.00  0.00    +0.000 OA
ATOM      4  C   UNL     1       4.863   4.279  17.247  0.00  0.00    +0.000 A 
ATOM      5  C   UNL     1       5.724   3.661  16.339  0.00  0.00    +0.000 A 
ATOM      6  C   UNL     1       6.103   4.338  15.193  0.00  0.00    +0.000 A 
ATOM      7  F   UNL     1       6.924   3.747  14.317  0.00  0.00    +0.000 F 
ATOM      8  C   UNL     1       5.630   5.617  14.942  0.00  0.00    +0.000 A 
ATOM      9  C   UNL     1       4.753   6.232  15.848  0.00  0.00    +0.000 A 
ATOM     10  C   UNL     1       4.342   5.580  17.017  0.00  0.00    +0.000 A 
ATOM     11  N   UNL     1       3.378   6.143  17.952  0.00  0.00    +0.000 N 
ATOM     12  C   UNL     1       3.063   7.520  17.977  0.00  0.00    +0.000 C 
ATOM     13  O   UNL     1       3.576   8.366  17.244  0.00  0.00    +0.000 OA
ENDROOT
BRANCH  12  14
ATOM     14  C   UNL     1       2.125   8.102  18.999  0.00  0.00    +0.000 A 
ATOM     15  C   UNL     1       1.918   7.558  20.271  0.00  0.00    +0.000 A 
ATOM     16  C   UNL     1       1.109   8.204  21.207  0.00  0.00    +0.000 A 
ATOM     17  C   UNL     1       0.408   9.346  20.846  0.00  0.00    +0.000 A 
ATOM     18  C   UNL     1       0.491   9.823  19.536  0.00  0.00    +0.000 A 
ATOM     19  C   UNL     1       1.360   9.223  18.622  0.00  0.00    +0.000 A 
ATOM     20  N   UNL     1      -0.349  10.862  19.127  0.00  0.00    +0.000 N 
ATOM     21  C   UNL     1      -1.181  11.491  20.016  0.00  0.00    +0.000 C 
ATOM     22  O   UNL     1      -2.030  12.300  19.652  0.00  0.00    +0.000 OA
ATOM     23  C   UNL     1      -0.885  11.182  21.481  0.00  0.00    +0.000 C 
ATOM     24  O   UNL     1      -0.406   9.884  21.803  0.00  0.00    +0.000 OA
ATOM     25  H   UNL     1      -0.447  11.103  18.149  0.00  0.00    +0.000 HD
ENDBRANCH  12  14
BRANCH   1  26
ATOM     26  C   UNL     1       1.738   4.297  18.132  0.00  0.00    +0.000 C 
BRANCH  26  27
ATOM     27  C   UNL     1       1.141   3.236  19.010  0.00  0.00    +0.000 C 
ATOM     28  O   UNL     1       0.972   2.073  18.670  0.00  0.00    +0.000 OA
BRANCH  27  30
ATOM     29  C   UNL     1       1.211   2.910  21.332  0.00  0.00    +0.000 C 
ATOM     30  O   UNL     1       0.859   3.753  20.235  0.00  0.00    +0.000 OA
ENDBRANCH  27  30
ENDBRANCH  26  27
ENDBRANCH   1  26
TORSDOF 4
ENDMDL
MODEL 2
REMARK VINA RESULT:      -8.7      0.567      1.001
REMARK  Name = 
REMARK  5 active torsions:
REMARK  status: ('A' for Active; 'I' for Inactive)
REMARK    1  A    between atoms: C_1  and  O_2
REMARK    2  A    between atoms: O_2  and  C_3
REMARK    3  A    between atoms: C_3  and  C_5
REMARK    4  A    between atoms: C_5  and  C_6
REMARK    5  A    between atoms: C_17  and  C_19
REMARK                            x       y       z     vdW  Elec       q    Type
REMARK                         _______ _______ _______ _____ _____    ______ ____
ROOT
ATOM      1  C   UNL     1       2.979   5.470  19.168  0.00  0.00    +0.000 C 
ATOM      2  C   UNL     1       4.224   4.782  19.728  0.00  0.00    +0.000 C 
ATOM      3  O   UNL     1       4.866   3.996  18.731  0.00  0.00    +0.000 OA
ATOM      4  C   UNL     1       5.054   4.690  17.557  0.00  0.00    +0.000 A 
ATOM      5  C   UNL     1       5.953   4.074  16.684  0.00  0.00    +0.000 A 
ATOM      6  C   UNL     1       6.225   4.665  15.462  0.00  0.00    +0.000 A 
ATOM      7  F   UNL     1       7.081   4.076  14.619  0.00  0.00    +0.000 F 
ATOM      8  C   UNL     1       5.610   5.854  15.102  0.00  0.00    +0.000 A 
ATOM      9  C   UNL     1       4.697   6.465  15.975  0.00  0.00    +0.000 A 
ATOM     10  C   UNL     1       4.391   5.898  17.218  0.00  0.00    +0.000 A 
ATOM     11  N   UNL     1       3.397   6.452  18.127  0.00  0.00    +0.000 N 
ATOM     12  C   UNL     1       2.937   7.783  18.027  0.00  0.00    +0.000 C 
ATOM     13  O   UNL     1       3.335   8.598  17.194  0.00  0.00    +0.000 OA
ENDROOT
BRANCH  12  14
ATOM     14  C   UNL     1       1.969   8.367  19.021  0.00  0.00    +0.000 A 
ATOM     15  C   UNL     1       1.758   7.851  20.303  0.00  0.00    +0.000 A 
ATOM     16  C   UNL     1       0.919   8.499  21.211  0.00  0.00    +0.000 A 
ATOM     17  C   UNL     1       0.195   9.613  20.810  0.00  0.00    +0.000 A 
ATOM     18  C   UNL     1       0.285  10.059  19.490  0.00  0.00    +0.000 A 
ATOM     19  C   UNL     1       1.182   9.458  18.604  0.00  0.00    +0.000 A 
ATOM     20  N   UNL     1      -0.575  11.064  19.042  0.00  0.00    +0.000 N 
ATOM     21  C   UNL     1      -1.435  11.695  19.904  0.00  0.00    +0.000 C 
ATOM     22  O   UNL     1      -2.299  12.473  19.507  0.00  0.00    +0.000 OA
ATOM     23  C   UNL     1      -1.153  11.431  21.380  0.00  0.00    +0.000 C 
ATOM     24  O   UNL     1      -0.646  10.154  21.742  0.00  0.00    +0.000 OA
ATOM     25  H   UNL     1      -0.665  11.278  18.058  0.00  0.00    +0.000 HD
ENDBRANCH  12  14
BRANCH   1  26
ATOM     26  C   UNL     1       1.971   4.473  18.553  0.00  0.00    +0.000 C 
BRANCH  26  27
ATOM     27  C   UNL     1       1.396   3.551  19.589  0.00  0.00    +0.000 C 
ATOM     28  O   UNL     1       0.870   3.922  20.628  0.00  0.00    +0.000 OA
BRANCH  27  30
ATOM     29  C   UNL     1       2.234   2.090  17.956  0.00  0.00    +0.000 C 
ATOM     30  O   UNL     1       1.517   2.260  19.178  0.00  0.00    +0.000 OA
ENDBRANCH  27  30
ENDBRANCH  26  27
ENDBRANCH   1  26
TORSDOF 4
ENDMDL
MODEL 3
REMARK VINA RESULT:      -8.4      1.254      2.093
REMARK  Name = 
REMARK  5 active torsions:
REMARK  status: ('A' for Active; 'I' for Inactive)
REMARK    1  A    between atoms: C_1  and  O_2
REMARK    2  A    between atoms: O_2  and  C_3
REMARK    3  A    between atoms: C_3  and  C_5
REMARK    4  A    between atoms: C_5  and  C_6
REMARK    5  A    between atoms: C_17  and  C_19
REMARK                            x       y       z     vdW  Elec       q    Type
REMARK                         _______ _______ _______ _____ _____    ______ ____
ROOT
ATOM      1  C   UNL     1       2.873   5.695  19.058  0.00  0.00    +0.000 C 
ATOM      2  C   UNL     1       4.079   5.044  19.736  0.00  0.00    +0.000 C 
ATOM      3  O   UNL     1       4.743   4.150  18.850  0.00  0.00    +0.000 OA
ATOM      4  C   UNL     1       4.993   4.718  17.621  0.00  0.00    +0.000 A 
ATOM      5  C   UNL     1       5.911   4.002  16.852  0.00  0.00    +0.000 A 
ATOM      6  C   UNL     1       6.245   4.462  15.590  0.00  0.00    +0.000 A 
ATOM      7  F   UNL     1       7.120   3.776  14.846  0.00  0.00    +0.000 F 
ATOM      8  C   UNL     1       5.672   5.620  15.088  0.00  0.00    +0.000 A 
ATOM      9  C   UNL     1       4.739   6.332  15.856  0.00  0.00    +0.000 A 
ATOM     10  C   UNL     1       4.370   5.898  17.136  0.00  0.00    +0.000 A 
ATOM     11  N   UNL     1       3.354   6.559  17.943  0.00  0.00    +0.000 N 
ATOM     12  C   UNL     1       2.928   7.882  17.692  0.00  0.00    +0.000 C 
ATOM     13  O   UNL     1       3.378   8.601  16.799  0.00  0.00    +0.000 OA
ENDROOT
BRANCH  12  14
ATOM     14  C   UNL     1       1.935   8.580  18.581  0.00  0.00    +0.000 A 
ATOM     15  C   UNL     1       0.951   9.458  18.116  0.00  0.00    +0.000 A 
ATOM     16  C   UNL     1      -0.002   9.996  18.983  0.00  0.00    +0.000 A 
ATOM     17  C   UNL     1       0.083   9.746  20.346  0.00  0.00    +0.000 A 
ATOM     18  C   UNL     1       1.143   8.987  20.845  0.00  0.00    +0.000 A 
ATOM     19  C   UNL     1       2.052   8.386  19.971  0.00  0.00    +0.000 A 
ATOM     20  N   UNL     1       1.328   8.887  22.226  0.00  0.00    +0.000 N 
ATOM     21  C   UNL     1       0.427   9.435  23.102  0.00  0.00    +0.000 C 
ATOM     22  O   UNL     1       0.643   9.488  24.310  0.00  0.00    +0.000 OA
ATOM     23  C   UNL     1      -0.891   9.863  22.463  0.00  0.00    +0.000 C 
ATOM     24  O   UNL     1      -0.854  10.356  21.131  0.00  0.00    +0.000 OA
ATOM     25  H   UNL     1       2.181   8.506  22.615  0.00  0.00    +0.000 HD
ENDBRANCH  12  14
BRANCH   1  26
ATOM     26  C   UNL     1       1.868   4.659  18.504  0.00  0.00    +0.000 C 
BRANCH  26  27
ATOM     27  C   UNL     1       1.377   3.729  19.575  0.00  0.00    +0.000 C 
ATOM     28  O   UNL     1       0.696   4.074  20.530  0.00  0.00    +0.000 OA
BRANCH  27  30
ATOM     29  C   UNL     1       2.122   2.225  17.936  0.00  0.00    +0.000 C 
ATOM     30  O   UNL     1       1.770   2.457  19.299  0.00  0.00    +0.000 OA
ENDBRANCH  27  30
ENDBRANCH  26  27
ENDBRANCH   1  26
TORSDOF 4
ENDMDL
MODEL 4
REMARK VINA RESULT:      -8.3      1.126      1.249
REMARK  Name = 
REMARK  5 active torsions:
REMARK  status: ('A' for Active; 'I' for Inactive)
REMARK    1  A    between atoms: C_1  and  O_2
REMARK    2  A    between atoms: O_2  and  C_3
REMARK    3  A    between atoms: C_3  and  C_5
REMARK    4  A    between atoms: C_5  and  C_6
REMARK    5  A    between atoms: C_17  and  C_19
REMARK                            x       y       z     vdW  Elec       q    Type
REMARK                         _______ _______ _______ _____ _____    ______ ____
ROOT
ATOM      1  C   UNL     1       4.129   5.371  19.200  0.00  0.00    +0.000 C 
ATOM      2  C   UNL     1       5.594   5.134  19.565  0.00  0.00    +0.000 C 
ATOM      3  O   UNL     1       6.256   4.376  18.558  0.00  0.00    +0.000 OA
ATOM      4  C   UNL     1       6.037   4.878  17.295  0.00  0.00    +0.000 A 
ATOM      5  C   UNL     1       6.912   4.370  16.334  0.00  0.00    +0.000 A 
ATOM      6  C   UNL     1       6.794   4.787  15.020  0.00  0.00    +0.000 A 
ATOM      7  F   UNL     1       7.627   4.298  14.094  0.00  0.00    +0.000 F 
ATOM      8  C   UNL     1       5.815   5.698  14.655  0.00  0.00    +0.000 A 
ATOM      9  C   UNL     1       4.927   6.198  15.619  0.00  0.00    +0.000 A 
ATOM     10  C   UNL     1       5.009   5.798  16.959  0.00  0.00    +0.000 A 
ATOM     11  N   UNL     1       4.068   6.230  17.982  0.00  0.00    +0.000 N 
ATOM     12  C   UNL     1       3.237   7.360  17.820  0.00  0.00    +0.000 C 
ATOM     13  O   UNL     1       3.240   8.091  16.829  0.00  0.00    +0.000 OA
ENDROOT
BRANCH  12  14
ATOM     14  C   UNL     1       2.326   7.841  18.916  0.00  0.00    +0.000 A 
ATOM     15  C   UNL     1       2.084   7.135  20.099  0.00  0.00    +0.000 A 
ATOM     16  C   UNL     1       1.305   7.685  21.118  0.00  0.00    +0.000 A 
ATOM     17  C   UNL     1       0.668   8.902  20.924  0.00  0.00    +0.000 A 
ATOM     18  C   UNL     1       0.783   9.554  19.695  0.00  0.00    +0.000 A 
ATOM     19  C   UNL     1       1.624   9.044  18.702  0.00  0.00    +0.000 A 
ATOM     20  N   UNL     1       0.002  10.683  19.438  0.00  0.00    +0.000 N 
ATOM     21  C   UNL     1      -0.800  11.224  20.409  0.00  0.00    +0.000 C 
ATOM     22  O   UNL     1      -1.603  12.121  20.165  0.00  0.00    +0.000 OA
ATOM     23  C   UNL     1      -0.528  10.697  21.815  0.00  0.00    +0.000 C 
ATOM     24  O   UNL     1      -0.121   9.342  21.949  0.00  0.00    +0.000 OA
ATOM     25  H   UNL     1      -0.078  11.065  18.504  0.00  0.00    +0.000 HD
ENDBRANCH  12  14
BRANCH   1  26
ATOM     26  C   UNL     1       3.357   4.058  18.937  0.00  0.00    +0.000 C 
BRANCH  26  27
ATOM     27  C   UNL     1       3.372   3.153  20.135  0.00  0.00    +0.000 C 
ATOM     28  O   UNL     1       4.091   2.171  20.250  0.00  0.00    +0.000 OA
BRANCH  27  30
ATOM     29  C   UNL     1       1.130   3.572  20.685  0.00  0.00    +0.000 C 
ATOM     30  O   UNL     1       2.503   3.614  21.074  0.00  0.00    +0.000 OA
ENDBRANCH  27  30
ENDBRANCH  26  27
ENDBRANCH   1  26
TORSDOF 4
ENDMDL
MODEL 5
REMARK VINA RESULT:      -7.8      3.794      9.021
REMARK  Name = 
REMARK  5 active torsions:
REMARK  status: ('A' for Active; 'I' for Inactive)
REMARK    1  A    between atoms: C_1  and  O_2
REMARK    2  A    between atoms: O_2  and  C_3
REMARK    3  A    between atoms: C_3  and  C_5
REMARK    4  A    between atoms: C_5  and  C_6
REMARK    5  A    between atoms: C_17  and  C_19
REMARK                            x       y       z     vdW  Elec       q    Type
REMARK                         _______ _______ _______ _____ _____    ______ ____
ROOT
ATOM      1  C   UNL     1      -0.734  10.918  18.871  0.00  0.00    +0.000 C 
ATOM      2  C   UNL     1      -0.694  12.415  18.563  0.00  0.00    +0.000 C 
ATOM      3  O   UNL     1      -1.722  13.109  19.259  0.00  0.00    +0.000 OA
ATOM      4  C   UNL     1      -1.762  12.784  20.596  0.00  0.00    +0.000 A 
ATOM      5  C   UNL     1      -2.526  13.666  21.362  0.00  0.00    +0.000 A 
ATOM      6  C   UNL     1      -2.654  13.447  22.723  0.00  0.00    +0.000 A 
ATOM      7  F   UNL     1      -3.391  14.287  23.460  0.00  0.00    +0.000 F 
ATOM      8  C   UNL     1      -2.035  12.362  23.324  0.00  0.00    +0.000 A 
ATOM      9  C   UNL     1      -1.279  11.468  22.551  0.00  0.00    +0.000 A 
ATOM     10  C   UNL     1      -1.128  11.651  21.171  0.00  0.00    +0.000 A 
ATOM     11  N   UNL     1      -0.415  10.714  20.313  0.00  0.00    +0.000 N 
ATOM     12  C   UNL     1       0.495   9.762  20.822  0.00  0.00    +0.000 C 
ATOM     13  O   UNL     1       0.789   9.645  22.012  0.00  0.00    +0.000 OA
ENDROOT
BRANCH  12  14
ATOM     14  C   UNL     1       1.283   8.853  19.919  0.00  0.00    +0.000 A 
ATOM     15  C   UNL     1       1.525   9.112  18.566  0.00  0.00    +0.000 A 
ATOM     16  C   UNL     1       2.348   8.277  17.809  0.00  0.00    +0.000 A 
ATOM     17  C   UNL     1       2.852   7.111  18.367  0.00  0.00    +0.000 A 
ATOM     18  C   UNL     1       2.505   6.763  19.674  0.00  0.00    +0.000 A 
ATOM     19  C   UNL     1       1.745   7.636  20.457  0.00  0.00    +0.000 A 
ATOM     20  N   UNL     1       2.864   5.508  20.172  0.00  0.00    +0.000 N 
ATOM     21  C   UNL     1       3.642   4.652  19.436  0.00  0.00    +0.000 C 
ATOM     22  O   UNL     1       3.846   3.493  19.788  0.00  0.00    +0.000 OA
ATOM     23  C   UNL     1       4.308   5.293  18.222  0.00  0.00    +0.000 C 
ATOM     24  O   UNL     1       3.601   6.320  17.541  0.00  0.00    +0.000 OA
ATOM     25  H   UNL     1       2.473   5.154  21.035  0.00  0.00    +0.000 HD
ENDBRANCH  12  14
BRANCH   1  26
ATOM     26  C   UNL     1      -2.107  10.279  18.557  0.00  0.00    +0.000 C 
BRANCH  26  27
ATOM     27  C   UNL     1      -2.482  10.447  17.113  0.00  0.00    +0.000 C 
ATOM     28  O   UNL     1      -1.957   9.844  16.189  0.00  0.00    +0.000 OA
BRANCH  27  30
ATOM     29  C   UNL     1      -4.472  11.261  18.053  0.00  0.00    +0.000 C 
ATOM     30  O   UNL     1      -3.509  11.332  17.002  0.00  0.00    +0.000 OA
ENDBRANCH  27  30
ENDBRANCH  26  27
ENDBRANCH   1  26
TORSDOF 4
ENDMDL
MODEL 6
REMARK VINA RESULT:      -7.5      3.428      7.580
REMARK  Name = 
REMARK  5 active torsions:
REMARK  status: ('A' for Active; 'I' for Inactive)
REMARK    1  A    between atoms: C_1  and  O_2
REMARK    2  A    between atoms: O_2  and  C_3
REMARK    3  A    between atoms: C_3  and  C_5
REMARK    4  A    between atoms: C_5  and  C_6
REMARK    5  A    between atoms: C_17  and  C_19
REMARK                            x       y       z     vdW  Elec       q    Type
REMARK                         _______ _______ _______ _____ _____    ______ ____
ROOT
ATOM      1  C   UNL     1       0.349   9.558  19.964  0.00  0.00    +0.000 C 
ATOM      2  C   UNL     1      -0.942  10.319  19.664  0.00  0.00    +0.000 C 
ATOM      3  O   UNL     1      -0.773  11.716  19.878  0.00  0.00    +0.000 OA
ATOM      4  C   UNL     1       0.356  12.208  19.265  0.00  0.00    +0.000 A 
ATOM      5  C   UNL     1       0.383  13.601  19.179  0.00  0.00    +0.000 A 
ATOM      6  C   UNL     1       1.469  14.224  18.591  0.00  0.00    +0.000 A 
ATOM      7  F   UNL     1       1.502  15.560  18.511  0.00  0.00    +0.000 F 
ATOM      8  C   UNL     1       2.527  13.478  18.094  0.00  0.00    +0.000 A 
ATOM      9  C   UNL     1       2.506  12.078  18.193  0.00  0.00    +0.000 A 
ATOM     10  C   UNL     1       1.428  11.409  18.785  0.00  0.00    +0.000 A 
ATOM     11  N   UNL     1       1.390   9.966  18.978  0.00  0.00    +0.000 N 
ATOM     12  C   UNL     1       2.232   9.084  18.266  0.00  0.00    +0.000 C 
ATOM     13  O   UNL     1       3.048   9.435  17.413  0.00  0.00    +0.000 OA
ENDROOT
BRANCH  12  14
ATOM     14  C   UNL     1       2.129   7.590  18.417  0.00  0.00    +0.000 A 
ATOM     15  C   UNL     1       1.769   6.722  17.382  0.00  0.00    +0.000 A 
ATOM     16  C   UNL     1       1.789   5.338  17.563  0.00  0.00    +0.000 A 
ATOM     17  C   UNL     1       2.064   4.808  18.816  0.00  0.00    +0.000 A 
ATOM     18  C   UNL     1       2.287   5.664  19.896  0.00  0.00    +0.000 A 
ATOM     19  C   UNL     1       2.344   7.046  19.699  0.00  0.00    +0.000 A 
ATOM     20  N   UNL     1       2.386   5.136  21.185  0.00  0.00    +0.000 N 
ATOM     21  C   UNL     1       2.373   3.782  21.397  0.00  0.00    +0.000 C 
ATOM     22  O   UNL     1       2.310   3.300  22.525  0.00  0.00    +0.000 OA
ATOM     23  C   UNL     1       2.553   2.945  20.134  0.00  0.00    +0.000 C 
ATOM     24  O   UNL     1       2.008   3.446  18.922  0.00  0.00    +0.000 OA
ATOM     25  H   UNL     1       2.359   5.733  22.001  0.00  0.00    +0.000 HD
ENDBRANCH  12  14
BRANCH   1  26
ATOM     26  C   UNL     1       0.875   9.812  21.396  0.00  0.00    +0.000 C 
BRANCH  26  27
ATOM     27  C   UNL     1      -0.182   9.558  22.431  0.00  0.00    +0.000 C 
ATOM     28  O   UNL     1      -0.794   8.506  22.549  0.00  0.00    +0.000 OA
BRANCH  27  30
ATOM     29  C   UNL     1      -1.625  11.232  23.219  0.00  0.00    +0.000 C 
ATOM     30  O   UNL     1      -0.321  10.650  23.228  0.00  0.00    +0.000 OA
ENDBRANCH  27  30
ENDBRANCH  26  27
ENDBRANCH   1  26
TORSDOF 4
ENDMDL
MODEL 7
REMARK VINA RESULT:      -7.5      4.158      9.567
REMARK  Name = 
REMARK  5 active torsions:
REMARK  status: ('A' for Active; 'I' for Inactive)
REMARK    1  A    between atoms: C_1  and  O_2
REMARK    2  A    between atoms: O_2  and  C_3
REMARK    3  A    between atoms: C_3  and  C_5
REMARK    4  A    between atoms: C_5  and  C_6
REMARK    5  A    between atoms: C_17  and  C_19
REMARK                            x       y       z     vdW  Elec       q    Type
REMARK                         _______ _______ _______ _____ _____    ______ ____
ROOT
ATOM      1  C   UNL     1       1.281  12.269  20.245  0.00  0.00    +0.000 C 
ATOM      2  C   UNL     1       1.986  13.169  21.260  0.00  0.00    +0.000 C 
ATOM      3  O   UNL     1       1.080  14.109  21.826  0.00  0.00    +0.000 OA
ATOM      4  C   UNL     1      -0.081  13.517  22.270  0.00  0.00    +0.000 A 
ATOM      5  C   UNL     1      -0.840  14.337  23.107  0.00  0.00    +0.000 A 
ATOM      6  C   UNL     1      -2.037  13.864  23.616  0.00  0.00    +0.000 A 
ATOM      7  F   UNL     1      -2.771  14.648  24.415  0.00  0.00    +0.000 F 
ATOM      8  C   UNL     1      -2.485  12.591  23.297  0.00  0.00    +0.000 A 
ATOM      9  C   UNL     1      -1.729  11.774  22.444  0.00  0.00    +0.000 A 
ATOM     10  C   UNL     1      -0.515  12.215  21.904  0.00  0.00    +0.000 A 
ATOM     11  N   UNL     1       0.271  11.436  20.958  0.00  0.00    +0.000 N 
ATOM     12  C   UNL     1       0.095  10.045  20.791  0.00  0.00    +0.000 C 
ATOM     13  O   UNL     1      -0.707   9.362  21.429  0.00  0.00    +0.000 OA
ENDROOT
BRANCH  12  14
ATOM     14  C   UNL     1       0.966   9.238  19.867  0.00  0.00    +0.000 A 
ATOM     15  C   UNL     1       1.149   9.528  18.511  0.00  0.00    +0.000 A 
ATOM     16  C   UNL     1       2.049   8.797  17.734  0.00  0.00    +0.000 A 
ATOM     17  C   UNL     1       2.698   7.697  18.276  0.00  0.00    +0.000 A 
ATOM     18  C   UNL     1       2.420   7.307  19.587  0.00  0.00    +0.000 A 
ATOM     19  C   UNL     1       1.579   8.082  20.390  0.00  0.00    +0.000 A 
ATOM     20  N   UNL     1       2.934   6.101  20.071  0.00  0.00    +0.000 N 
ATOM     21  C   UNL     1       3.792   5.344  19.316  0.00  0.00    +0.000 C 
ATOM     22  O   UNL     1       4.138   4.217  19.658  0.00  0.00    +0.000 OA
ATOM     23  C   UNL     1       4.355   6.063  18.093  0.00  0.00    +0.000 C 
ATOM     24  O   UNL     1       3.518   7.002  17.432  0.00  0.00    +0.000 OA
ATOM     25  H   UNL     1       2.604   5.701  20.940  0.00  0.00    +0.000 HD
ENDBRANCH  12  14
BRANCH   1  26
ATOM     26  C   UNL     1       0.581  13.069  19.122  0.00  0.00    +0.000 C 
BRANCH  26  27
ATOM     27  C   UNL     1       1.530  14.005  18.431  0.00  0.00    +0.000 C 
ATOM     28  O   UNL     1       2.521  13.650  17.809  0.00  0.00    +0.000 OA
BRANCH  27  30
ATOM     29  C   UNL     1      -0.288  15.417  18.884  0.00  0.00    +0.000 C 
ATOM     30  O   UNL     1       1.098  15.287  18.569  0.00  0.00    +0.000 OA
ENDBRANCH  27  30
ENDBRANCH  26  27
ENDBRANCH   1  26
TORSDOF 4
ENDMDL
MODEL 8
REMARK VINA RESULT:      -7.4      4.882      8.277
REMARK  Name = 
REMARK  5 active torsions:
REMARK  status: ('A' for Active; 'I' for Inactive)
REMARK    1  A    between atoms: C_1  and  O_2
REMARK    2  A    between atoms: O_2  and  C_3
REMARK    3  A    between atoms: C_3  and  C_5
REMARK    4  A    between atoms: C_5  and  C_6
REMARK    5  A    between atoms: C_17  and  C_19
REMARK                            x       y       z     vdW  Elec       q    Type
REMARK                         _______ _______ _______ _____ _____    ______ ____
ROOT
ATOM      1  C   UNL     1      -0.692  12.385  20.293  0.00  0.00    +0.000 C 
ATOM      2  C   UNL     1      -1.069  11.716  18.971  0.00  0.00    +0.000 C 
ATOM      3  O   UNL     1      -0.013  10.891  18.495  0.00  0.00    +0.000 OA
ATOM      4  C   UNL     1       0.470  10.044  19.467  0.00  0.00    +0.000 A 
ATOM      5  C   UNL     1       1.267   9.014  18.964  0.00  0.00    +0.000 A 
ATOM      6  C   UNL     1       1.822   8.097  19.838  0.00  0.00    +0.000 A 
ATOM      7  F   UNL     1       2.592   7.111  19.362  0.00  0.00    +0.000 F 
ATOM      8  C   UNL     1       1.596   8.197  21.202  0.00  0.00    +0.000 A 
ATOM      9  C   UNL     1       0.806   9.240  21.709  0.00  0.00    +0.000 A 
ATOM     10  C   UNL     1       0.230  10.192  20.859  0.00  0.00    +0.000 A 
ATOM     11  N   UNL     1      -0.536  11.334  21.338  0.00  0.00    +0.000 N 
ATOM     12  C   UNL     1      -1.086  11.385  22.638  0.00  0.00    +0.000 C 
ATOM     13  O   UNL     1      -0.995  10.482  23.471  0.00  0.00    +0.000 OA
ENDROOT
BRANCH  12  14
ATOM     14  C   UNL     1      -1.941  12.536  23.095  0.00  0.00    +0.000 A 
ATOM     15  C   UNL     1      -1.432  13.743  23.585  0.00  0.00    +0.000 A 
ATOM     16  C   UNL     1      -2.280  14.806  23.899  0.00  0.00    +0.000 A 
ATOM     17  C   UNL     1      -3.656  14.640  23.829  0.00  0.00    +0.000 A 
ATOM     18  C   UNL     1      -4.185  13.397  23.477  0.00  0.00    +0.000 A 
ATOM     19  C   UNL     1      -3.338  12.355  23.089  0.00  0.00    +0.000 A 
ATOM     20  N   UNL     1      -5.561  13.179  23.580  0.00  0.00    +0.000 N 
ATOM     21  C   UNL     1      -6.414  14.197  23.921  0.00  0.00    +0.000 C 
ATOM     22  O   UNL     1      -7.602  13.997  24.161  0.00  0.00    +0.000 OA
ATOM     23  C   UNL     1      -5.788  15.587  23.866  0.00  0.00    +0.000 C 
ATOM     24  O   UNL     1      -4.415  15.712  24.207  0.00  0.00    +0.000 OA
ATOM     25  H   UNL     1      -5.951  12.248  23.515  0.00  0.00    +0.000 HD
ENDBRANCH  12  14
BRANCH   1  26
ATOM     26  C   UNL     1       0.615  13.205  20.197  0.00  0.00    +0.000 C 
BRANCH  26  27
ATOM     27  C   UNL     1       0.564  14.204  19.077  0.00  0.00    +0.000 C 
ATOM     28  O   UNL     1      -0.241  15.123  19.007  0.00  0.00    +0.000 OA
BRANCH  27  30
ATOM     29  C   UNL     1       2.667  13.226  18.723  0.00  0.00    +0.000 C 
ATOM     30  O   UNL     1       1.562  13.956  18.189  0.00  0.00    +0.000 OA
ENDBRANCH  27  30
ENDBRANCH  26  27
ENDBRANCH   1  26
TORSDOF 4
ENDMDL
MODEL 9
REMARK VINA RESULT:      -7.3      4.133      9.387
REMARK  Name = 
REMARK  5 active torsions:
REMARK  status: ('A' for Active; 'I' for Inactive)
REMARK    1  A    between atoms: C_1  and  O_2
REMARK    2  A    between atoms: O_2  and  C_3
REMARK    3  A    between atoms: C_3  and  C_5
REMARK    4  A    between atoms: C_5  and  C_6
REMARK    5  A    between atoms: C_17  and  C_19
REMARK                            x       y       z     vdW  Elec       q    Type
REMARK                         _______ _______ _______ _____ _____    ______ ____
ROOT
ATOM      1  C   UNL     1      -0.574  12.301  19.207  0.00  0.00    +0.000 C 
ATOM      2  C   UNL     1      -0.219  13.761  18.922  0.00  0.00    +0.000 C 
ATOM      3  O   UNL     1      -1.108  14.644  19.596  0.00  0.00    +0.000 OA
ATOM      4  C   UNL     1      -1.258  14.323  20.926  0.00  0.00    +0.000 A 
ATOM      5  C   UNL     1      -1.852  15.336  21.681  0.00  0.00    +0.000 A 
ATOM      6  C   UNL     1      -2.068  15.137  23.033  0.00  0.00    +0.000 A 
ATOM      7  F   UNL     1      -2.643  16.103  23.760  0.00  0.00    +0.000 F 
ATOM      8  C   UNL     1      -1.704  13.943  23.637  0.00  0.00    +0.000 A 
ATOM      9  C   UNL     1      -1.120  12.920  22.875  0.00  0.00    +0.000 A 
ATOM     10  C   UNL     1      -0.888  13.079  21.503  0.00  0.00    +0.000 A 
ATOM     11  N   UNL     1      -0.353  12.024  20.654  0.00  0.00    +0.000 N 
ATOM     12  C   UNL     1       0.326  10.902  21.178  0.00  0.00    +0.000 C 
ATOM     13  O   UNL     1       0.549  10.717  22.375  0.00  0.00    +0.000 OA
ENDROOT
BRANCH  12  14
ATOM     14  C   UNL     1       0.943   9.859  20.286  0.00  0.00    +0.000 A 
ATOM     15  C   UNL     1       1.151  10.027  18.913  0.00  0.00    +0.000 A 
ATOM     16  C   UNL     1       1.819   9.058  18.163  0.00  0.00    +0.000 A 
ATOM     17  C   UNL     1       2.191   7.859  18.754  0.00  0.00    +0.000 A 
ATOM     18  C   UNL     1       1.865   7.616  20.089  0.00  0.00    +0.000 A 
ATOM     19  C   UNL     1       1.266   8.614  20.861  0.00  0.00    +0.000 A 
ATOM     20  N   UNL     1       2.078   6.346  20.630  0.00  0.00    +0.000 N 
ATOM     21  C   UNL     1       2.700   5.363  19.904  0.00  0.00    +0.000 C 
ATOM     22  O   UNL     1       2.766   4.203  20.302  0.00  0.00    +0.000 OA
ATOM     23  C   UNL     1       3.386   5.858  18.634  0.00  0.00    +0.000 C 
ATOM     24  O   UNL     1       2.789   6.941  17.936  0.00  0.00    +0.000 OA
ATOM     25  H   UNL     1       1.686   6.083  21.525  0.00  0.00    +0.000 HD
ENDBRANCH  12  14
BRANCH   1  26
ATOM     26  C   UNL     1      -2.036  11.959  18.840  0.00  0.00    +0.000 C 
BRANCH  26  27
ATOM     27  C   UNL     1      -2.111  10.894  17.784  0.00  0.00    +0.000 C 
ATOM     28  O   UNL     1      -2.153   9.694  18.015  0.00  0.00    +0.000 OA
BRANCH  27  30
ATOM     29  C   UNL     1      -3.193  10.956  15.703  0.00  0.00    +0.000 C 
ATOM     30  O   UNL     1      -2.166  11.467  16.552  0.00  0.00    +0.000 OA
ENDBRANCH  27  30
ENDBRANCH  26  27
ENDBRANCH   1  26
TORSDOF 4
ENDMDL
