MODEL 1
REMARK VINA RESULT:      -7.6      0.000      0.000
REMARK  Name = 
REMARK  8 active torsions:
REMARK  status: ('A' for Active; 'I' for Inactive)
REMARK    1  A    between atoms: C_1  and  O_2
REMARK    2  A    between atoms: O_2  and  C_3
REMARK    3  A    between atoms: C_8  and  O_9
REMARK    4  A    between atoms: O_9  and  C_10
REMARK    5  A    between atoms: C_13  and  O_14
REMARK    6  A    between atoms: O_14  and  C_15
REMARK    7  A    between atoms: C_18  and  C_19
REMARK    8  A    between atoms: C_19  and  N_20
REMARK                            x       y       z     vdW  Elec       q    Type
REMARK                         _______ _______ _______ _____ _____    ______ ____
ROOT
ATOM      1  C   UNL     1       1.794   3.689  19.469  0.00  0.00    +0.000 A 
ATOM      2  C   UNL     1       1.655   5.054  19.772  0.00  0.00    +0.000 A 
ATOM      3  C   UNL     1       2.306   5.991  19.000  0.00  0.00    +0.000 A 
ATOM      4  C   UNL     1       3.128   5.573  17.980  0.00  0.00    +0.000 A 
ATOM      5  C   UNL     1       3.323   4.236  17.657  0.00  0.00    +0.000 A 
ATOM      6  C   UNL     1       2.642   3.269  18.405  0.00  0.00    +0.000 A 
ATOM      7  C   UNL     1       3.728   6.750  17.390  0.00  0.00    +0.000 C 
ATOM      8  O   UNL     1       4.625   6.663  16.569  0.00  0.00    +0.000 OA
ATOM      9  C   UNL     1       3.115   8.030  18.011  0.00  0.00    +0.000 C 
ATOM     10  C   UNL     1       2.253   7.472  19.167  0.00  0.00    +0.000 C 
ENDROOT
BRANCH   1  12
ATOM     11  C   UNL     1       1.539   2.669  21.574  0.00  0.00    +0.000 C 
ATOM     12  O   UNL     1       1.120   2.741  20.206  0.00  0.00    +0.000 OA
ENDBRANCH   1  12
BRANCH   6  13
ATOM     13  O   UNL     1       2.728   1.917  18.161  0.00  0.00    +0.000 OA
ATOM     14  C   UNL     1       3.909   1.242  18.601  0.00  0.00    +0.000 C 
ENDBRANCH   6  13
BRANCH   9  15
ATOM     15  O   UNL     1       2.272   8.851  17.212  0.00  0.00    +0.000 OA
BRANCH  15  16
ATOM     16  C   UNL     1       1.505   9.757  17.880  0.00  0.00    +0.000 A 
ATOM     17  C   UNL     1       2.038  10.921  18.430  0.00  0.00    +0.000 A 
ATOM     18  C   UNL     1       1.213  11.864  19.050  0.00  0.00    +0.000 A 
ATOM     19  C   UNL     1      -0.170  11.685  19.110  0.00  0.00    +0.000 A 
ATOM     20  C   UNL     1      -0.702  10.496  18.578  0.00  0.00    +0.000 A 
ATOM     21  C   UNL     1       0.136   9.540  17.976  0.00  0.00    +0.000 A 
BRANCH  19  22
ATOM     22  C   UNL     1      -1.045  12.730  19.780  0.00  0.00    +0.000 C 
BRANCH  22  23
ATOM     23  N   UNL     1      -1.941  12.204  20.845  0.00  0.00    +0.000 NA
ATOM     24  C   UNL     1      -1.198  11.958  22.091  0.00  0.00    +0.000 C 
ATOM     25  C   UNL     1      -2.090  11.615  23.285  0.00  0.00    +0.000 C 
ATOM     26  C   UNL     1      -3.165  12.668  23.488  0.00  0.00    +0.000 C 
ATOM     27  C   UNL     1      -3.990  12.788  22.217  0.00  0.00    +0.000 C 
ATOM     28  C   UNL     1      -3.110  13.091  21.000  0.00  0.00    +0.000 C 
ENDBRANCH  22  23
ENDBRANCH  19  22
ENDBRANCH  15  16
ENDBRANCH   9  15
TORSDOF 6
ENDMDL
MODEL 2
REMARK VINA RESULT:      -7.6      2.570      5.277
REMARK  Name = 
REMARK  8 active torsions:
REMARK  status: ('A' for Active; 'I' for Inactive)
REMARK    1  A    between atoms: C_1  and  O_2
REMARK    2  A    between atoms: O_2  and  C_3
REMARK    3  A    between atoms: C_8  and  O_9
REMARK    4  A    between atoms: O_9  and  C_10
REMARK    5  A    between atoms: C_13  and  O_14
REMARK    6  A    between atoms: O_14  and  C_15
REMARK    7  A    between atoms: C_18  and  C_19
REMARK    8  A    between atoms: C_19  and  N_20
REMARK                            x       y       z     vdW  Elec       q    Type
REMARK                         _______ _______ _______ _____ _____    ______ ____
ROOT
ATOM      1  C   UNL     1       6.431   4.749  16.394  0.00  0.00    +0.000 A 
ATOM      2  C   UNL     1       5.239   4.096  16.038  0.00  0.00    +0.000 A 
ATOM      3  C   UNL     1       4.445   3.548  17.021  0.00  0.00    +0.000 A 
ATOM      4  C   UNL     1       4.861   3.597  18.331  0.00  0.00    +0.000 A 
ATOM      5  C   UNL     1       6.044   4.204  18.733  0.00  0.00    +0.000 A 
ATOM      6  C   UNL     1       6.848   4.801  17.754  0.00  0.00    +0.000 A 
ATOM      7  C   UNL     1       3.881   2.892  19.129  0.00  0.00    +0.000 C 
ATOM      8  O   UNL     1       4.080   2.642  20.306  0.00  0.00    +0.000 OA
ATOM      9  C   UNL     1       2.672   2.486  18.251  0.00  0.00    +0.000 C 
ATOM     10  C   UNL     1       3.147   2.841  16.824  0.00  0.00    +0.000 C 
ENDROOT
BRANCH   1  12
ATOM     11  C   UNL     1       6.973   4.841  14.105  0.00  0.00    +0.000 C 
ATOM     12  O   UNL     1       7.217   5.336  15.427  0.00  0.00    +0.000 OA
ENDBRANCH   1  12
BRANCH   6  13
ATOM     13  O   UNL     1       8.024   5.460  18.032  0.00  0.00    +0.000 OA
ATOM     14  C   UNL     1       8.197   5.968  19.357  0.00  0.00    +0.000 C 
ENDBRANCH   6  13
BRANCH   9  15
ATOM     15  O   UNL     1       1.420   3.132  18.455  0.00  0.00    +0.000 OA
BRANCH  15  16
ATOM     16  C   UNL     1       1.470   4.377  19.006  0.00  0.00    +0.000 A 
ATOM     17  C   UNL     1       1.203   4.605  20.354  0.00  0.00    +0.000 A 
ATOM     18  C   UNL     1       1.330   5.884  20.904  0.00  0.00    +0.000 A 
ATOM     19  C   UNL     1       1.757   6.964  20.129  0.00  0.00    +0.000 A 
ATOM     20  C   UNL     1       1.999   6.737  18.763  0.00  0.00    +0.000 A 
ATOM     21  C   UNL     1       1.847   5.452  18.209  0.00  0.00    +0.000 A 
BRANCH  19  22
ATOM     22  C   UNL     1       1.896   8.341  20.754  0.00  0.00    +0.000 C 
BRANCH  22  23
ATOM     23  N   UNL     1       0.613   8.971  21.168  0.00  0.00    +0.000 NA
ATOM     24  C   UNL     1       0.590   9.226  22.617  0.00  0.00    +0.000 C 
ATOM     25  C   UNL     1      -0.607  10.057  23.079  0.00  0.00    +0.000 C 
ATOM     26  C   UNL     1      -0.712  11.353  22.294  0.00  0.00    +0.000 C 
ATOM     27  C   UNL     1      -0.821  11.029  20.813  0.00  0.00    +0.000 C 
ATOM     28  C   UNL     1       0.348  10.162  20.337  0.00  0.00    +0.000 C 
ENDBRANCH  22  23
ENDBRANCH  19  22
ENDBRANCH  15  16
ENDBRANCH   9  15
TORSDOF 6
ENDMDL
MODEL 3
REMARK VINA RESULT:      -7.4      3.750      9.047
REMARK  Name = 
REMARK  8 active torsions:
REMARK  status: ('A' for Active; 'I' for Inactive)
REMARK    1  A    between atoms: C_1  and  O_2
REMARK    2  A    between atoms: O_2  and  C_3
REMARK    3  A    between atoms: C_8  and  O_9
REMARK    4  A    between atoms: O_9  and  C_10
REMARK    5  A    between atoms: C_13  and  O_14
REMARK    6  A    between atoms: O_14  and  C_15
REMARK    7  A    between atoms: C_18  and  C_19
REMARK    8  A    between atoms: C_19  and  N_20
REMARK                            x       y       z     vdW  Elec       q    Type
REMARK                         _______ _______ _______ _____ _____    ______ ____
ROOT
ATOM      1  C   UNL     1      -3.161  10.563  16.861  0.00  0.00    +0.000 A 
ATOM      2  C   UNL     1      -1.906   9.932  16.857  0.00  0.00    +0.000 A 
ATOM      3  C   UNL     1      -1.014  10.187  17.875  0.00  0.00    +0.000 A 
ATOM      4  C   UNL     1      -1.344  11.101  18.849  0.00  0.00    +0.000 A 
ATOM      5  C   UNL     1      -2.559  11.774  18.883  0.00  0.00    +0.000 A 
ATOM      6  C   UNL     1      -3.495  11.501  17.878  0.00  0.00    +0.000 A 
ATOM      7  C   UNL     1      -0.210  11.221  19.739  0.00  0.00    +0.000 C 
ATOM      8  O   UNL     1      -0.166  12.083  20.600  0.00  0.00    +0.000 OA
ATOM      9  C   UNL     1       0.876  10.182  19.363  0.00  0.00    +0.000 C 
ATOM     10  C   UNL     1       0.344   9.593  18.037  0.00  0.00    +0.000 C 
ENDROOT
BRANCH   1  12
ATOM     11  C   UNL     1      -3.521  10.279  14.552  0.00  0.00    +0.000 C 
ATOM     12  O   UNL     1      -4.080  10.290  15.871  0.00  0.00    +0.000 OA
ENDBRANCH   1  12
BRANCH   6  13
ATOM     13  O   UNL     1      -4.743  12.079  17.823  0.00  0.00    +0.000 OA
ATOM     14  C   UNL     1      -5.467  12.201  19.049  0.00  0.00    +0.000 C 
ENDBRANCH   6  13
BRANCH   9  15
ATOM     15  O   UNL     1       1.124   9.092  20.243  0.00  0.00    +0.000 OA
BRANCH  15  16
ATOM     16  C   UNL     1       1.722   7.999  19.692  0.00  0.00    +0.000 A 
ATOM     17  C   UNL     1       2.419   8.059  18.487  0.00  0.00    +0.000 A 
ATOM     18  C   UNL     1       3.080   6.935  17.984  0.00  0.00    +0.000 A 
ATOM     19  C   UNL     1       3.089   5.728  18.686  0.00  0.00    +0.000 A 
ATOM     20  C   UNL     1       2.362   5.662  19.888  0.00  0.00    +0.000 A 
ATOM     21  C   UNL     1       1.679   6.791  20.379  0.00  0.00    +0.000 A 
BRANCH  19  22
ATOM     22  C   UNL     1       3.823   4.526  18.121  0.00  0.00    +0.000 C 
BRANCH  22  23
ATOM     23  N   UNL     1       5.302   4.677  18.042  0.00  0.00    +0.000 NA
ATOM     24  C   UNL     1       5.695   5.436  16.845  0.00  0.00    +0.000 C 
ATOM     25  C   UNL     1       7.178   5.806  16.807  0.00  0.00    +0.000 C 
ATOM     26  C   UNL     1       7.596   6.530  18.076  0.00  0.00    +0.000 C 
ATOM     27  C   UNL     1       7.291   5.647  19.275  0.00  0.00    +0.000 C 
ATOM     28  C   UNL     1       5.818   5.230  19.309  0.00  0.00    +0.000 C 
ENDBRANCH  22  23
ENDBRANCH  19  22
ENDBRANCH  15  16
ENDBRANCH   9  15
TORSDOF 6
ENDMDL
MODEL 4
REMARK VINA RESULT:      -7.4      3.824      9.074
REMARK  Name = 
REMARK  8 active torsions:
REMARK  status: ('A' for Active; 'I' for Inactive)
REMARK    1  A    between atoms: C_1  and  O_2
REMARK    2  A    between atoms: O_2  and  C_3
REMARK    3  A    between atoms: C_8  and  O_9
REMARK    4  A    between atoms: O_9  and  C_10
REMARK    5  A    between atoms: C_13  and  O_14
REMARK    6  A    between atoms: O_14  and  C_15
REMARK    7  A    between atoms: C_18  and  C_19
REMARK    8  A    between atoms: C_19  and  N_20
REMARK                            x       y       z     vdW  Elec       q    Type
REMARK                         _______ _______ _______ _____ _____    ______ ____
ROOT
ATOM      1  C   UNL     1      -3.197  10.758  16.895  0.00  0.00    +0.000 A 
ATOM      2  C   UNL     1      -1.951  10.111  16.849  0.00  0.00    +0.000 A 
ATOM      3  C   UNL     1      -1.073  10.252  17.901  0.00  0.00    +0.000 A 
ATOM      4  C   UNL     1      -1.405  11.072  18.953  0.00  0.00    +0.000 A 
ATOM      5  C   UNL     1      -2.610  11.758  19.034  0.00  0.00    +0.000 A 
ATOM      6  C   UNL     1      -3.534  11.599  17.994  0.00  0.00    +0.000 A 
ATOM      7  C   UNL     1      -0.284  11.087  19.868  0.00  0.00    +0.000 C 
ATOM      8  O   UNL     1      -0.242  11.862  20.809  0.00  0.00    +0.000 OA
ATOM      9  C   UNL     1       0.793  10.073  19.409  0.00  0.00    +0.000 C 
ATOM     10  C   UNL     1       0.274   9.623  18.024  0.00  0.00    +0.000 C 
ENDROOT
BRANCH   1  12
ATOM     11  C   UNL     1      -3.512  10.159  14.641  0.00  0.00    +0.000 C 
ATOM     12  O   UNL     1      -4.103  10.597  15.870  0.00  0.00    +0.000 OA
ENDBRANCH   1  12
BRANCH   6  13
ATOM     13  O   UNL     1      -4.772  12.199  17.977  0.00  0.00    +0.000 OA
ATOM     14  C   UNL     1      -5.811  11.588  18.745  0.00  0.00    +0.000 C 
ENDBRANCH   6  13
BRANCH   9  15
ATOM     15  O   UNL     1       1.011   8.899  20.182  0.00  0.00    +0.000 OA
BRANCH  15  16
ATOM     16  C   UNL     1       1.823   7.956  19.629  0.00  0.00    +0.000 A 
ATOM     17  C   UNL     1       1.994   6.695  20.195  0.00  0.00    +0.000 A 
ATOM     18  C   UNL     1       2.780   5.726  19.565  0.00  0.00    +0.000 A 
ATOM     19  C   UNL     1       3.392   5.980  18.336  0.00  0.00    +0.000 A 
ATOM     20  C   UNL     1       3.240   7.263  17.780  0.00  0.00    +0.000 A 
ATOM     21  C   UNL     1       2.467   8.242  18.430  0.00  0.00    +0.000 A 
BRANCH  19  22
ATOM     22  C   UNL     1       4.233   4.907  17.668  0.00  0.00    +0.000 C 
BRANCH  22  23
ATOM     23  N   UNL     1       5.700   5.155  17.695  0.00  0.00    +0.000 NA
ATOM     24  C   UNL     1       6.059   6.305  16.851  0.00  0.00    +0.000 C 
ATOM     25  C   UNL     1       7.517   6.744  16.993  0.00  0.00    +0.000 C 
ATOM     26  C   UNL     1       7.875   6.999  18.446  0.00  0.00    +0.000 C 
ATOM     27  C   UNL     1       7.611   5.738  19.252  0.00  0.00    +0.000 C 
ATOM     28  C   UNL     1       6.166   5.257  19.091  0.00  0.00    +0.000 C 
ENDBRANCH  22  23
ENDBRANCH  19  22
ENDBRANCH  15  16
ENDBRANCH   9  15
TORSDOF 6
ENDMDL
MODEL 5
REMARK VINA RESULT:      -7.3      3.774      9.267
REMARK  Name = 
REMARK  8 active torsions:
REMARK  status: ('A' for Active; 'I' for Inactive)
REMARK    1  A    between atoms: C_1  and  O_2
REMARK    2  A    between atoms: O_2  and  C_3
REMARK    3  A    between atoms: C_8  and  O_9
REMARK    4  A    between atoms: O_9  and  C_10
REMARK    5  A    between atoms: C_13  and  O_14
REMARK    6  A    between atoms: O_14  and  C_15
REMARK    7  A    between atoms: C_18  and  C_19
REMARK    8  A    between atoms: C_19  and  N_20
REMARK                            x       y       z     vdW  Elec       q    Type
REMARK                         _______ _______ _______ _____ _____    ______ ____
ROOT
ATOM      1  C   UNL     1      -3.326  11.550  18.443  0.00  0.00    +0.000 A 
ATOM      2  C   UNL     1      -2.247  10.721  18.091  0.00  0.00    +0.000 A 
ATOM      3  C   UNL     1      -1.146  10.652  18.916  0.00  0.00    +0.000 A 
ATOM      4  C   UNL     1      -1.095  11.440  20.041  0.00  0.00    +0.000 A 
ATOM      5  C   UNL     1      -2.120  12.298  20.419  0.00  0.00    +0.000 A 
ATOM      6  C   UNL     1      -3.264  12.356  19.615  0.00  0.00    +0.000 A 
ATOM      7  C   UNL     1       0.188  11.219  20.673  0.00  0.00    +0.000 C 
ATOM      8  O   UNL     1       0.568  11.911  21.603  0.00  0.00    +0.000 OA
ATOM      9  C   UNL     1       0.951  10.083  19.948  0.00  0.00    +0.000 C 
ATOM     10  C   UNL     1       0.070   9.814  18.706  0.00  0.00    +0.000 C 
ENDROOT
BRANCH   1  12
ATOM     11  C   UNL     1      -4.216  11.219  16.290  0.00  0.00    +0.000 C 
ATOM     12  O   UNL     1      -4.451  11.602  17.650  0.00  0.00    +0.000 OA
ENDBRANCH   1  12
BRANCH   6  13
ATOM     13  O   UNL     1      -4.358  13.141  19.902  0.00  0.00    +0.000 OA
ATOM     14  C   UNL     1      -4.318  13.912  21.105  0.00  0.00    +0.000 C 
ENDBRANCH   6  13
BRANCH   9  15
ATOM     15  O   UNL     1       1.136   8.839  20.614  0.00  0.00    +0.000 OA
BRANCH  15  16
ATOM     16  C   UNL     1       1.766   7.863  19.902  0.00  0.00    +0.000 A 
ATOM     17  C   UNL     1       2.361   8.109  18.666  0.00  0.00    +0.000 A 
ATOM     18  C   UNL     1       3.059   7.103  17.994  0.00  0.00    +0.000 A 
ATOM     19  C   UNL     1       3.209   5.832  18.550  0.00  0.00    +0.000 A 
ATOM     20  C   UNL     1       2.584   5.578  19.785  0.00  0.00    +0.000 A 
ATOM     21  C   UNL     1       1.862   6.588  20.447  0.00  0.00    +0.000 A 
BRANCH  19  22
ATOM     22  C   UNL     1       3.981   4.759  17.803  0.00  0.00    +0.000 C 
BRANCH  22  23
ATOM     23  N   UNL     1       5.458   4.944  17.795  0.00  0.00    +0.000 NA
ATOM     24  C   UNL     1       5.862   5.946  16.796  0.00  0.00    +0.000 C 
ATOM     25  C   UNL     1       7.339   6.335  16.875  0.00  0.00    +0.000 C 
ATOM     26  C   UNL     1       7.716   6.779  18.278  0.00  0.00    +0.000 C 
ATOM     27  C   UNL     1       7.402   5.657  19.255  0.00  0.00    +0.000 C 
ATOM     28  C   UNL     1       5.936   5.223  19.163  0.00  0.00    +0.000 C 
ENDBRANCH  22  23
ENDBRANCH  19  22
ENDBRANCH  15  16
ENDBRANCH   9  15
TORSDOF 6
ENDMDL
MODEL 6
REMARK VINA RESULT:      -7.2      4.002     10.032
REMARK  Name = 
REMARK  8 active torsions:
REMARK  status: ('A' for Active; 'I' for Inactive)
REMARK    1  A    between atoms: C_1  and  O_2
REMARK    2  A    between atoms: O_2  and  C_3
REMARK    3  A    between atoms: C_8  and  O_9
REMARK    4  A    between atoms: O_9  and  C_10
REMARK    5  A    between atoms: C_13  and  O_14
REMARK    6  A    between atoms: O_14  and  C_15
REMARK    7  A    between atoms: C_18  and  C_19
REMARK    8  A    between atoms: C_19  and  N_20
REMARK                            x       y       z     vdW  Elec       q    Type
REMARK                         _______ _______ _______ _____ _____    ______ ____
ROOT
ATOM      1  C   UNL     1      -1.437  15.111  22.548  0.00  0.00    +0.000 A 
ATOM      2  C   UNL     1      -0.432  14.568  21.730  0.00  0.00    +0.000 A 
ATOM      3  C   UNL     1      -0.233  13.205  21.711  0.00  0.00    +0.000 A 
ATOM      4  C   UNL     1      -0.982  12.402  22.539  0.00  0.00    +0.000 A 
ATOM      5  C   UNL     1      -1.967  12.890  23.389  0.00  0.00    +0.000 A 
ATOM      6  C   UNL     1      -2.212  14.269  23.395  0.00  0.00    +0.000 A 
ATOM      7  C   UNL     1      -0.520  11.042  22.366  0.00  0.00    +0.000 C 
ATOM      8  O   UNL     1      -0.900  10.143  23.097  0.00  0.00    +0.000 OA
ATOM      9  C   UNL     1       0.521  10.975  21.221  0.00  0.00    +0.000 C 
ATOM     10  C   UNL     1       0.769  12.465  20.892  0.00  0.00    +0.000 C 
ENDROOT
BRANCH   1  12
ATOM     11  C   UNL     1      -0.627  17.237  23.152  0.00  0.00    +0.000 C 
ATOM     12  O   UNL     1      -1.675  16.468  22.550  0.00  0.00    +0.000 OA
ENDBRANCH   1  12
BRANCH   6  13
ATOM     13  O   UNL     1      -3.181  14.866  24.168  0.00  0.00    +0.000 OA
ATOM     14  C   UNL     1      -4.544  14.552  23.874  0.00  0.00    +0.000 C 
ENDBRANCH   6  13
BRANCH   9  15
ATOM     15  O   UNL     1       0.171  10.324  20.005  0.00  0.00    +0.000 OA
BRANCH  15  16
ATOM     16  C   UNL     1       1.005   9.329  19.593  0.00  0.00    +0.000 A 
ATOM     17  C   UNL     1       1.401   8.293  20.436  0.00  0.00    +0.000 A 
ATOM     18  C   UNL     1       2.202   7.250  19.963  0.00  0.00    +0.000 A 
ATOM     19  C   UNL     1       2.603   7.196  18.628  0.00  0.00    +0.000 A 
ATOM     20  C   UNL     1       2.225   8.257  17.785  0.00  0.00    +0.000 A 
ATOM     21  C   UNL     1       1.438   9.317  18.273  0.00  0.00    +0.000 A 
BRANCH  19  22
ATOM     22  C   UNL     1       3.465   6.046  18.137  0.00  0.00    +0.000 C 
BRANCH  22  23
ATOM     23  N   UNL     1       3.093   4.712  18.681  0.00  0.00    +0.000 NA
ATOM     24  C   UNL     1       2.163   4.012  17.782  0.00  0.00    +0.000 C 
ATOM     25  C   UNL     1       1.902   2.557  18.173  0.00  0.00    +0.000 C 
ATOM     26  C   UNL     1       3.203   1.787  18.324  0.00  0.00    +0.000 C 
ATOM     27  C   UNL     1       4.072   2.476  19.362  0.00  0.00    +0.000 C 
ATOM     28  C   UNL     1       4.312   3.947  19.010  0.00  0.00    +0.000 C 
ENDBRANCH  22  23
ENDBRANCH  19  22
ENDBRANCH  15  16
ENDBRANCH   9  15
TORSDOF 6
ENDMDL
MODEL 7
REMARK VINA RESULT:      -7.1      0.980      1.270
REMARK  Name = 
REMARK  8 active torsions:
REMARK  status: ('A' for Active; 'I' for Inactive)
REMARK    1  A    between atoms: C_1  and  O_2
REMARK    2  A    between atoms: O_2  and  C_3
REMARK    3  A    between atoms: C_8  and  O_9
REMARK    4  A    between atoms: O_9  and  C_10
REMARK    5  A    between atoms: C_13  and  O_14
REMARK    6  A    between atoms: O_14  and  C_15
REMARK    7  A    between atoms: C_18  and  C_19
REMARK    8  A    between atoms: C_19  and  N_20
REMARK                            x       y       z     vdW  Elec       q    Type
REMARK                         _______ _______ _______ _____ _____    ______ ____
ROOT
ATOM      1  C   UNL     1       2.888   4.060  20.425  0.00  0.00    +0.000 A 
ATOM      2  C   UNL     1       2.422   5.379  20.555  0.00  0.00    +0.000 A 
ATOM      3  C   UNL     1       2.683   6.294  19.558  0.00  0.00    +0.000 A 
ATOM      4  C   UNL     1       3.445   5.916  18.478  0.00  0.00    +0.000 A 
ATOM      5  C   UNL     1       3.954   4.634  18.315  0.00  0.00    +0.000 A 
ATOM      6  C   UNL     1       3.670   3.678  19.298  0.00  0.00    +0.000 A 
ATOM      7  C   UNL     1       3.616   7.079  17.634  0.00  0.00    +0.000 C 
ATOM      8  O   UNL     1       4.386   7.071  16.688  0.00  0.00    +0.000 OA
ATOM      9  C   UNL     1       2.765   8.256  18.170  0.00  0.00    +0.000 C 
ATOM     10  C   UNL     1       2.250   7.720  19.525  0.00  0.00    +0.000 C 
ENDROOT
BRANCH   1  12
ATOM     11  C   UNL     1       1.244   2.674  21.381  0.00  0.00    +0.000 C 
ATOM     12  O   UNL     1       2.604   3.124  21.394  0.00  0.00    +0.000 OA
ENDBRANCH   1  12
BRANCH   6  13
ATOM     13  O   UNL     1       4.089   2.369  19.232  0.00  0.00    +0.000 OA
ATOM     14  C   UNL     1       3.459   1.523  18.268  0.00  0.00    +0.000 C 
ENDBRANCH   6  13
BRANCH   9  15
ATOM     15  O   UNL     1       1.631   8.685  17.425  0.00  0.00    +0.000 OA
BRANCH  15  16
ATOM     16  C   UNL     1       0.904   9.701  17.967  0.00  0.00    +0.000 A 
ATOM     17  C   UNL     1       1.503  10.813  18.557  0.00  0.00    +0.000 A 
ATOM     18  C   UNL     1       0.730  11.871  19.042  0.00  0.00    +0.000 A 
ATOM     19  C   UNL     1      -0.661  11.863  18.923  0.00  0.00    +0.000 A 
ATOM     20  C   UNL     1      -1.265  10.729  18.351  0.00  0.00    +0.000 A 
ATOM     21  C   UNL     1      -0.483   9.655  17.886  0.00  0.00    +0.000 A 
BRANCH  19  22
ATOM     22  C   UNL     1      -1.476  13.031  19.449  0.00  0.00    +0.000 C 
BRANCH  22  23
ATOM     23  N   UNL     1      -1.436  13.206  20.926  0.00  0.00    +0.000 NA
ATOM     24  C   UNL     1      -2.335  14.286  21.358  0.00  0.00    +0.000 C 
ATOM     25  C   UNL     1      -2.500  14.384  22.875  0.00  0.00    +0.000 C 
ATOM     26  C   UNL     1      -2.922  13.051  23.469  0.00  0.00    +0.000 C 
ATOM     27  C   UNL     1      -1.890  11.997  23.106  0.00  0.00    +0.000 C 
ATOM     28  C   UNL     1      -1.678  11.911  21.591  0.00  0.00    +0.000 C 
ENDBRANCH  22  23
ENDBRANCH  19  22
ENDBRANCH  15  16
ENDBRANCH   9  15
TORSDOF 6
ENDMDL
MODEL 8
REMARK VINA RESULT:      -7.1      2.554      5.458
REMARK  Name = 
REMARK  8 active torsions:
REMARK  status: ('A' for Active; 'I' for Inactive)
REMARK    1  A    between atoms: C_1  and  O_2
REMARK    2  A    between atoms: O_2  and  C_3
REMARK    3  A    between atoms: C_8  and  O_9
REMARK    4  A    between atoms: O_9  and  C_10
REMARK    5  A    between atoms: C_13  and  O_14
REMARK    6  A    between atoms: O_14  and  C_15
REMARK    7  A    between atoms: C_18  and  C_19
REMARK    8  A    between atoms: C_19  and  N_20
REMARK                            x       y       z     vdW  Elec       q    Type
REMARK                         _______ _______ _______ _____ _____    ______ ____
ROOT
ATOM      1  C   UNL     1       6.165   5.261  15.542  0.00  0.00    +0.000 A 
ATOM      2  C   UNL     1       5.070   4.383  15.589  0.00  0.00    +0.000 A 
ATOM      3  C   UNL     1       4.588   3.961  16.809  0.00  0.00    +0.000 A 
ATOM      4  C   UNL     1       5.224   4.361  17.961  0.00  0.00    +0.000 A 
ATOM      5  C   UNL     1       6.328   5.204  17.969  0.00  0.00    +0.000 A 
ATOM      6  C   UNL     1       6.811   5.675  16.742  0.00  0.00    +0.000 A 
ATOM      7  C   UNL     1       4.556   3.721  19.074  0.00  0.00    +0.000 C 
ATOM      8  O   UNL     1       5.014   3.771  20.203  0.00  0.00    +0.000 OA
ATOM      9  C   UNL     1       3.302   2.961  18.578  0.00  0.00    +0.000 C 
ATOM     10  C   UNL     1       3.429   3.052  17.040  0.00  0.00    +0.000 C 
ENDROOT
BRANCH   1  12
ATOM     11  C   UNL     1       7.243   4.708  13.524  0.00  0.00    +0.000 C 
ATOM     12  O   UNL     1       6.636   5.723  14.333  0.00  0.00    +0.000 OA
ENDBRANCH   1  12
BRANCH   6  13
ATOM     13  O   UNL     1       7.875   6.539  16.624  0.00  0.00    +0.000 OA
ATOM     14  C   UNL     1       7.867   7.710  17.443  0.00  0.00    +0.000 C 
ENDBRANCH   6  13
BRANCH   9  15
ATOM     15  O   UNL     1       2.012   3.453  18.927  0.00  0.00    +0.000 OA
BRANCH  15  16
ATOM     16  C   UNL     1       1.949   4.761  19.300  0.00  0.00    +0.000 A 
ATOM     17  C   UNL     1       2.118   5.804  18.391  0.00  0.00    +0.000 A 
ATOM     18  C   UNL     1       1.977   7.135  18.793  0.00  0.00    +0.000 A 
ATOM     19  C   UNL     1       1.635   7.461  20.106  0.00  0.00    +0.000 A 
ATOM     20  C   UNL     1       1.491   6.408  21.028  0.00  0.00    +0.000 A 
ATOM     21  C   UNL     1       1.657   5.070  20.623  0.00  0.00    +0.000 A 
BRANCH  19  22
ATOM     22  C   UNL     1       1.479   8.915  20.514  0.00  0.00    +0.000 C 
BRANCH  22  23
ATOM     23  N   UNL     1       0.790   9.774  19.513  0.00  0.00    +0.000 NA
ATOM     24  C   UNL     1      -0.668   9.757  19.711  0.00  0.00    +0.000 C 
ATOM     25  C   UNL     1      -1.420  10.774  18.853  0.00  0.00    +0.000 C 
ATOM     26  C   UNL     1      -0.859  12.173  19.040  0.00  0.00    +0.000 C 
ATOM     27  C   UNL     1       0.620  12.165  18.694  0.00  0.00    +0.000 C 
ATOM     28  C   UNL     1       1.387  11.123  19.513  0.00  0.00    +0.000 C 
ENDBRANCH  22  23
ENDBRANCH  19  22
ENDBRANCH  15  16
ENDBRANCH   9  15
TORSDOF 6
ENDMDL
MODEL 9
REMARK VINA RESULT:      -7.1      3.688      9.083
REMARK  Name = 
REMARK  8 active torsions:
REMARK  status: ('A' for Active; 'I' for Inactive)
REMARK    1  A    between atoms: C_1  and  O_2
REMARK    2  A    between atoms: O_2  and  C_3
REMARK    3  A    between atoms: C_8  and  O_9
REMARK    4  A    between atoms: O_9  and  C_10
REMARK    5  A    between atoms: C_13  and  O_14
REMARK    6  A    between atoms: O_14  and  C_15
REMARK    7  A    between atoms: C_18  and  C_19
REMARK    8  A    between atoms: C_19  and  N_20
REMARK                            x       y       z     vdW  Elec       q    Type
REMARK                         _______ _______ _______ _____ _____    ______ ____
ROOT
ATOM      1  C   UNL     1      -3.517  10.772  16.558  0.00  0.00    +0.000 A 
ATOM      2  C   UNL     1      -2.164  10.447  16.757  0.00  0.00    +0.000 A 
ATOM      3  C   UNL     1      -1.551  10.790  17.942  0.00  0.00    +0.000 A 
ATOM      4  C   UNL     1      -2.256  11.496  18.888  0.00  0.00    +0.000 A 
ATOM      5  C   UNL     1      -3.585  11.868  18.729  0.00  0.00    +0.000 A 
ATOM      6  C   UNL     1      -4.239  11.497  17.548  0.00  0.00    +0.000 A 
ATOM      7  C   UNL     1      -1.356  11.776  19.986  0.00  0.00    +0.000 C 
ATOM      8  O   UNL     1      -1.672  12.530  20.892  0.00  0.00    +0.000 OA
ATOM      9  C   UNL     1      -0.002  11.058  19.763  0.00  0.00    +0.000 C 
ATOM     10  C   UNL     1      -0.138  10.506  18.326  0.00  0.00    +0.000 C 
ENDROOT
BRANCH   1  12
ATOM     11  C   UNL     1      -3.263  10.071  14.325  0.00  0.00    +0.000 C 
ATOM     12  O   UNL     1      -4.156  10.404  15.395  0.00  0.00    +0.000 OA
ENDBRANCH   1  12
BRANCH   6  13
ATOM     13  O   UNL     1      -5.561  11.778  17.290  0.00  0.00    +0.000 OA
ATOM     14  C   UNL     1      -6.529  11.323  18.237  0.00  0.00    +0.000 C 
ENDBRANCH   6  13
BRANCH   9  15
ATOM     15  O   UNL     1       0.348   9.966  20.606  0.00  0.00    +0.000 OA
BRANCH  15  16
ATOM     16  C   UNL     1       1.070   8.967  20.026  0.00  0.00    +0.000 A 
ATOM     17  C   UNL     1       1.687   9.117  18.786  0.00  0.00    +0.000 A 
ATOM     18  C   UNL     1       2.478   8.096  18.250  0.00  0.00    +0.000 A 
ATOM     19  C   UNL     1       2.700   6.911  18.952  0.00  0.00    +0.000 A 
ATOM     20  C   UNL     1       2.054   6.751  20.192  0.00  0.00    +0.000 A 
ATOM     21  C   UNL     1       1.240   7.772  20.715  0.00  0.00    +0.000 A 
BRANCH  19  22
ATOM     22  C   UNL     1       3.572   5.823  18.352  0.00  0.00    +0.000 C 
BRANCH  22  23
ATOM     23  N   UNL     1       3.164   4.434  18.697  0.00  0.00    +0.000 NA
ATOM     24  C   UNL     1       2.631   3.728  17.521  0.00  0.00    +0.000 C 
ATOM     25  C   UNL     1       2.386   2.237  17.753  0.00  0.00    +0.000 C 
ATOM     26  C   UNL     1       3.634   1.552  18.284  0.00  0.00    +0.000 C 
ATOM     27  C   UNL     1       4.065   2.233  19.572  0.00  0.00    +0.000 C 
ATOM     28  C   UNL     1       4.277   3.737  19.371  0.00  0.00    +0.000 C 
ENDBRANCH  22  23
ENDBRANCH  19  22
ENDBRANCH  15  16
ENDBRANCH   9  15
TORSDOF 6
ENDMDL
