MODEL 1
REMARK VINA RESULT:      -6.1      0.000      0.000
REMARK  Name = 
REMARK  13 active torsions:
REMARK  status: ('A' for Active; 'I' for Inactive)
REMARK    1  A    between atoms: C_1  and  C_2
REMARK    2  A    between atoms: C_2  and  N_3
REMARK    3  A    between atoms: N_3  and  C_4
REMARK    4  A    between atoms: N_3  and  C_6
REMARK    5  A    between atoms: C_4  and  C_5
REMARK    6  A    between atoms: C_6  and  C_7
REMARK    7  A    between atoms: C_7  and  N_8
REMARK    8  A    between atoms: C_9  and  C_11
REMARK    9  A    between atoms: C_15  and  N_16
REMARK   10  A    between atoms: C_18  and  O_19
REMARK   11  A    between atoms: O_19  and  C_20
REMARK   12  A    between atoms: C_20  and  C_21
REMARK   13  A    between atoms: C_21  and  C_22
REMARK                            x       y       z     vdW  Elec       q    Type
REMARK                         _______ _______ _______ _____ _____    ______ ____
ROOT
ATOM      1  C   UNL     1       2.908   6.466  18.967  0.00  0.00    +0.000 A 
ATOM      2  C   UNL     1       2.805   7.710  18.315  0.00  0.00    +0.000 A 
ATOM      3  C   UNL     1       1.975   8.717  18.817  0.00  0.00    +0.000 A 
ATOM      4 CL   UNL     1       1.898  10.225  17.972  0.00  0.00    +0.000 Cl
ATOM      5  C   UNL     1       1.241   8.526  19.996  0.00  0.00    +0.000 A 
ATOM      6  C   UNL     1       1.333   7.283  20.628  0.00  0.00    +0.000 A 
ATOM      7  C   UNL     1       2.204   6.276  20.168  0.00  0.00    +0.000 A 
ENDROOT
BRANCH   1   9
ATOM      8  N   UNL     1       4.757   4.838  19.058  0.00  0.00    +0.000 N 
ATOM      9  C   UNL     1       3.793   5.463  18.295  0.00  0.00    +0.000 C 
ATOM     10  O   UNL     1       3.640   5.230  17.099  0.00  0.00    +0.000 OA
ATOM     11  H   UNL     1       4.793   5.023  20.051  0.00  0.00    +0.000 HD
BRANCH   8  12
ATOM     12  C   UNL     1       5.792   4.000  18.466  0.00  0.00    +0.000 C 
BRANCH  12  13
ATOM     13  C   UNL     1       7.160   4.708  18.199  0.00  0.00    +0.000 C 
BRANCH  13  14
ATOM     14  N   UNL     1       7.478   5.202  16.820  0.00  0.00    +0.000 NA
BRANCH  14  16
ATOM     15  C   UNL     1       6.119   5.054  14.675  0.00  0.00    +0.000 C 
ATOM     16  C   UNL     1       6.860   4.327  15.798  0.00  0.00    +0.000 C 
ENDBRANCH  14  16
BRANCH  14  17
ATOM     17  C   UNL     1       7.022   6.606  16.646  0.00  0.00    +0.000 C 
ATOM     18  C   UNL     1       7.615   7.640  17.605  0.00  0.00    +0.000 C 
ENDBRANCH  14  17
ENDBRANCH  13  14
ENDBRANCH  12  13
ENDBRANCH   8  12
ENDBRANCH   1   9
BRANCH   5  19
ATOM     19  N   UNL     1       0.270   9.446  20.432  0.00  0.00    +0.000 N 
ATOM     20  H   UNL     1      -0.242   9.872  19.661  0.00  0.00    +0.000 HD
ATOM     21  H   UNL     1       0.608  10.131  21.101  0.00  0.00    +0.000 HD
ENDBRANCH   5  19
BRANCH   7  22
ATOM     22  O   UNL     1       2.228   5.199  21.016  0.00  0.00    +0.000 OA
BRANCH  22  23
ATOM     23  C   UNL     1       1.280   4.172  20.773  0.00  0.00    +0.000 C 
BRANCH  23  24
ATOM     24  C   UNL     1       1.812   3.011  19.963  0.00  0.00    +0.000 C 
ATOM     25  C   UNL     1       0.944   2.494  18.854  0.00  0.00    +0.000 C 
ATOM     26  O   UNL     1       2.932   2.538  20.165  0.00  0.00    +0.000 OA
ENDBRANCH  23  24
ENDBRANCH  22  23
ENDBRANCH   7  22
TORSDOF 10
ENDMDL
MODEL 2
REMARK VINA RESULT:      -6.0      2.950      6.913
REMARK  Name = 
REMARK  13 active torsions:
REMARK  status: ('A' for Active; 'I' for Inactive)
REMARK    1  A    between atoms: C_1  and  C_2
REMARK    2  A    between atoms: C_2  and  N_3
REMARK    3  A    between atoms: N_3  and  C_4
REMARK    4  A    between atoms: N_3  and  C_6
REMARK    5  A    between atoms: C_4  and  C_5
REMARK    6  A    between atoms: C_6  and  C_7
REMARK    7  A    between atoms: C_7  and  N_8
REMARK    8  A    between atoms: C_9  and  C_11
REMARK    9  A    between atoms: C_15  and  N_16
REMARK   10  A    between atoms: C_18  and  O_19
REMARK   11  A    between atoms: O_19  and  C_20
REMARK   12  A    between atoms: C_20  and  C_21
REMARK   13  A    between atoms: C_21  and  C_22
REMARK                            x       y       z     vdW  Elec       q    Type
REMARK                         _______ _______ _______ _____ _____    ______ ____
ROOT
ATOM      1  C   UNL     1       2.988   5.734  19.043  0.00  0.00    +0.000 A 
ATOM      2  C   UNL     1       2.533   4.881  20.066  0.00  0.00    +0.000 A 
ATOM      3  C   UNL     1       2.910   3.534  20.098  0.00  0.00    +0.000 A 
ATOM      4 CL   UNL     1       2.322   2.540  21.387  0.00  0.00    +0.000 Cl
ATOM      5  C   UNL     1       3.768   3.002  19.126  0.00  0.00    +0.000 A 
ATOM      6  C   UNL     1       4.201   3.850  18.103  0.00  0.00    +0.000 A 
ATOM      7  C   UNL     1       3.877   5.221  18.083  0.00  0.00    +0.000 A 
ENDROOT
BRANCH   1   9
ATOM      8  N   UNL     1       2.428   7.863  17.931  0.00  0.00    +0.000 N 
ATOM      9  C   UNL     1       2.470   7.138  19.103  0.00  0.00    +0.000 C 
ATOM     10  O   UNL     1       2.105   7.599  20.181  0.00  0.00    +0.000 OA
ATOM     11  H   UNL     1       2.681   7.408  17.064  0.00  0.00    +0.000 HD
BRANCH   8  12
ATOM     12  C   UNL     1       2.131   9.289  17.911  0.00  0.00    +0.000 C 
BRANCH  12  13
ATOM     13  C   UNL     1       0.613   9.661  17.908  0.00  0.00    +0.000 C 
BRANCH  13  14
ATOM     14  N   UNL     1      -0.003  10.255  19.138  0.00  0.00    +0.000 NA
BRANCH  14  16
ATOM     15  C   UNL     1       0.627  12.695  18.794  0.00  0.00    +0.000 C 
ATOM     16  C   UNL     1       0.790  11.412  19.610  0.00  0.00    +0.000 C 
ENDBRANCH  14  16
BRANCH  14  17
ATOM     17  C   UNL     1      -1.409  10.660  18.879  0.00  0.00    +0.000 C 
ATOM     18  C   UNL     1      -2.034  10.161  17.575  0.00  0.00    +0.000 C 
ENDBRANCH  14  17
ENDBRANCH  13  14
ENDBRANCH  12  13
ENDBRANCH   8  12
ENDBRANCH   1   9
BRANCH   5  19
ATOM     19  N   UNL     1       4.026   1.623  19.028  0.00  0.00    +0.000 N 
ATOM     20  H   UNL     1       4.008   1.154  19.933  0.00  0.00    +0.000 HD
ATOM     21  H   UNL     1       4.848   1.385  18.481  0.00  0.00    +0.000 HD
ENDBRANCH   5  19
BRANCH   7  22
ATOM     22  O   UNL     1       4.517   5.880  17.067  0.00  0.00    +0.000 OA
BRANCH  22  23
ATOM     23  C   UNL     1       5.769   6.472  17.377  0.00  0.00    +0.000 C 
BRANCH  23  24
ATOM     24  C   UNL     1       6.964   5.726  16.828  0.00  0.00    +0.000 C 
ATOM     25  C   UNL     1       7.632   4.738  17.737  0.00  0.00    +0.000 C 
ATOM     26  O   UNL     1       7.347   5.880  15.667  0.00  0.00    +0.000 OA
ENDBRANCH  23  24
ENDBRANCH  22  23
ENDBRANCH   7  22
TORSDOF 10
ENDMDL
MODEL 3
REMARK VINA RESULT:      -6.0      2.906      6.791
REMARK  Name = 
REMARK  13 active torsions:
REMARK  status: ('A' for Active; 'I' for Inactive)
REMARK    1  A    between atoms: C_1  and  C_2
REMARK    2  A    between atoms: C_2  and  N_3
REMARK    3  A    between atoms: N_3  and  C_4
REMARK    4  A    between atoms: N_3  and  C_6
REMARK    5  A    between atoms: C_4  and  C_5
REMARK    6  A    between atoms: C_6  and  C_7
REMARK    7  A    between atoms: C_7  and  N_8
REMARK    8  A    between atoms: C_9  and  C_11
REMARK    9  A    between atoms: C_15  and  N_16
REMARK   10  A    between atoms: C_18  and  O_19
REMARK   11  A    between atoms: O_19  and  C_20
REMARK   12  A    between atoms: C_20  and  C_21
REMARK   13  A    between atoms: C_21  and  C_22
REMARK                            x       y       z     vdW  Elec       q    Type
REMARK                         _______ _______ _______ _____ _____    ______ ____
ROOT
ATOM      1  C   UNL     1       3.174   5.543  18.001  0.00  0.00    +0.000 A 
ATOM      2  C   UNL     1       2.292   5.094  19.002  0.00  0.00    +0.000 A 
ATOM      3  C   UNL     1       2.081   3.728  19.214  0.00  0.00    +0.000 A 
ATOM      4 CL   UNL     1       0.988   3.243  20.465  0.00  0.00    +0.000 Cl
ATOM      5  C   UNL     1       2.759   2.767  18.451  0.00  0.00    +0.000 A 
ATOM      6  C   UNL     1       3.619   3.219  17.447  0.00  0.00    +0.000 A 
ATOM      7  C   UNL     1       3.886   4.588  17.254  0.00  0.00    +0.000 A 
ENDROOT
BRANCH   1   9
ATOM      8  N   UNL     1       2.152   7.782  18.146  0.00  0.00    +0.000 N 
ATOM      9  C   UNL     1       3.269   7.030  17.850  0.00  0.00    +0.000 C 
ATOM     10  O   UNL     1       4.323   7.530  17.470  0.00  0.00    +0.000 OA
ATOM     11  H   UNL     1       1.332   7.320  18.517  0.00  0.00    +0.000 HD
BRANCH   8  12
ATOM     12  C   UNL     1       2.074   9.206  17.847  0.00  0.00    +0.000 C 
BRANCH  12  13
ATOM     13  C   UNL     1       0.814   9.943  18.407  0.00  0.00    +0.000 C 
BRANCH  13  14
ATOM     14  N   UNL     1       0.821  10.448  19.817  0.00  0.00    +0.000 NA
BRANCH  14  16
ATOM     15  C   UNL     1      -1.178  11.757  20.688  0.00  0.00    +0.000 C 
ATOM     16  C   UNL     1       0.136  11.757  19.906  0.00  0.00    +0.000 C 
ENDBRANCH  14  16
BRANCH  14  17
ATOM     17  C   UNL     1       0.182   9.464  20.731  0.00  0.00    +0.000 C 
ATOM     18  C   UNL     1       1.124   8.542  21.506  0.00  0.00    +0.000 C 
ENDBRANCH  14  17
ENDBRANCH  13  14
ENDBRANCH  12  13
ENDBRANCH   8  12
ENDBRANCH   1   9
BRANCH   5  19
ATOM     19  N   UNL     1       2.443   1.398  18.518  0.00  0.00    +0.000 N 
ATOM     20  H   UNL     1       3.132   0.861  19.044  0.00  0.00    +0.000 HD
ATOM     21  H   UNL     1       2.216   0.972  17.625  0.00  0.00    +0.000 HD
ENDBRANCH   5  19
BRANCH   7  22
ATOM     22  O   UNL     1       4.857   4.789  16.308  0.00  0.00    +0.000 OA
BRANCH  22  23
ATOM     23  C   UNL     1       6.176   4.398  16.652  0.00  0.00    +0.000 C 
BRANCH  23  24
ATOM     24  C   UNL     1       7.085   5.542  17.040  0.00  0.00    +0.000 C 
ATOM     25  C   UNL     1       7.476   5.648  18.484  0.00  0.00    +0.000 C 
ATOM     26  O   UNL     1       7.531   6.329  16.203  0.00  0.00    +0.000 OA
ENDBRANCH  23  24
ENDBRANCH  22  23
ENDBRANCH   7  22
TORSDOF 10
ENDMDL
MODEL 4
REMARK VINA RESULT:      -6.0      2.931      6.671
REMARK  Name = 
REMARK  13 active torsions:
REMARK  status: ('A' for Active; 'I' for Inactive)
REMARK    1  A    between atoms: C_1  and  C_2
REMARK    2  A    between atoms: C_2  and  N_3
REMARK    3  A    between atoms: N_3  and  C_4
REMARK    4  A    between atoms: N_3  and  C_6
REMARK    5  A    between atoms: C_4  and  C_5
REMARK    6  A    between atoms: C_6  and  C_7
REMARK    7  A    between atoms: C_7  and  N_8
REMARK    8  A    between atoms: C_9  and  C_11
REMARK    9  A    between atoms: C_15  and  N_16
REMARK   10  A    between atoms: C_18  and  O_19
REMARK   11  A    between atoms: O_19  and  C_20
REMARK   12  A    between atoms: C_20  and  C_21
REMARK   13  A    between atoms: C_21  and  C_22
REMARK                            x       y       z     vdW  Elec       q    Type
REMARK                         _______ _______ _______ _____ _____    ______ ____
ROOT
ATOM      1  C   UNL     1       3.500   5.389  18.099  0.00  0.00    +0.000 A 
ATOM      2  C   UNL     1       2.243   4.762  18.200  0.00  0.00    +0.000 A 
ATOM      3  C   UNL     1       2.143   3.392  18.461  0.00  0.00    +0.000 A 
ATOM      4 CL   UNL     1       0.569   2.684  18.580  0.00  0.00    +0.000 Cl
ATOM      5  C   UNL     1       3.290   2.609  18.653  0.00  0.00    +0.000 A 
ATOM      6  C   UNL     1       4.534   3.234  18.533  0.00  0.00    +0.000 A 
ATOM      7  C   UNL     1       4.655   4.621  18.324  0.00  0.00    +0.000 A 
ENDROOT
BRANCH   1   9
ATOM      8  N   UNL     1       2.538   7.637  18.422  0.00  0.00    +0.000 N 
ATOM      9  C   UNL     1       3.462   6.849  17.768  0.00  0.00    +0.000 C 
ATOM     10  O   UNL     1       4.242   7.297  16.932  0.00  0.00    +0.000 OA
ATOM     11  H   UNL     1       1.966   7.224  19.146  0.00  0.00    +0.000 HD
BRANCH   8  12
ATOM     12  C   UNL     1       2.284   9.019  18.035  0.00  0.00    +0.000 C 
BRANCH  12  13
ATOM     13  C   UNL     1       0.780   9.439  17.992  0.00  0.00    +0.000 C 
BRANCH  13  14
ATOM     14  N   UNL     1       0.287  10.511  18.916  0.00  0.00    +0.000 NA
BRANCH  14  16
ATOM     15  C   UNL     1      -1.832  10.126  17.563  0.00  0.00    +0.000 C 
ATOM     16  C   UNL     1      -1.190  10.603  18.867  0.00  0.00    +0.000 C 
ENDBRANCH  14  16
BRANCH  14  17
ATOM     17  C   UNL     1       0.745  10.257  20.308  0.00  0.00    +0.000 C 
ATOM     18  C   UNL     1       0.049   9.121  21.059  0.00  0.00    +0.000 C 
ENDBRANCH  14  17
ENDBRANCH  13  14
ENDBRANCH  12  13
ENDBRANCH   8  12
ENDBRANCH   1   9
BRANCH   5  19
ATOM     19  N   UNL     1       3.233   1.207  18.745  0.00  0.00    +0.000 N 
ATOM     20  H   UNL     1       2.701   0.887  19.552  0.00  0.00    +0.000 HD
ATOM     21  H   UNL     1       4.131   0.741  18.659  0.00  0.00    +0.000 HD
ENDBRANCH   5  19
BRANCH   7  22
ATOM     22  O   UNL     1       5.962   5.031  18.374  0.00  0.00    +0.000 OA
BRANCH  22  23
ATOM     23  C   UNL     1       6.848   4.461  17.424  0.00  0.00    +0.000 C 
BRANCH  23  24
ATOM     24  C   UNL     1       6.893   5.188  16.099  0.00  0.00    +0.000 C 
ATOM     25  C   UNL     1       6.147   4.571  14.953  0.00  0.00    +0.000 C 
ATOM     26  O   UNL     1       7.473   6.268  15.970  0.00  0.00    +0.000 OA
ENDBRANCH  23  24
ENDBRANCH  22  23
ENDBRANCH   7  22
TORSDOF 10
ENDMDL
MODEL 5
REMARK VINA RESULT:      -5.9      2.917      6.797
REMARK  Name = 
REMARK  13 active torsions:
REMARK  status: ('A' for Active; 'I' for Inactive)
REMARK    1  A    between atoms: C_1  and  C_2
REMARK    2  A    between atoms: C_2  and  N_3
REMARK    3  A    between atoms: N_3  and  C_4
REMARK    4  A    between atoms: N_3  and  C_6
REMARK    5  A    between atoms: C_4  and  C_5
REMARK    6  A    between atoms: C_6  and  C_7
REMARK    7  A    between atoms: C_7  and  N_8
REMARK    8  A    between atoms: C_9  and  C_11
REMARK    9  A    between atoms: C_15  and  N_16
REMARK   10  A    between atoms: C_18  and  O_19
REMARK   11  A    between atoms: O_19  and  C_20
REMARK   12  A    between atoms: C_20  and  C_21
REMARK   13  A    between atoms: C_21  and  C_22
REMARK                            x       y       z     vdW  Elec       q    Type
REMARK                         _______ _______ _______ _____ _____    ______ ____
ROOT
ATOM      1  C   UNL     1       3.146   5.614  18.006  0.00  0.00    +0.000 A 
ATOM      2  C   UNL     1       2.254   5.147  18.989  0.00  0.00    +0.000 A 
ATOM      3  C   UNL     1       2.066   3.777  19.195  0.00  0.00    +0.000 A 
ATOM      4 CL   UNL     1       0.959   3.268  20.425  0.00  0.00    +0.000 Cl
ATOM      5  C   UNL     1       2.776   2.830  18.444  0.00  0.00    +0.000 A 
ATOM      6  C   UNL     1       3.647   3.300  17.457  0.00  0.00    +0.000 A 
ATOM      7  C   UNL     1       3.891   4.675  17.271  0.00  0.00    +0.000 A 
ENDROOT
BRANCH   1   9
ATOM      8  N   UNL     1       2.080   7.833  18.141  0.00  0.00    +0.000 N 
ATOM      9  C   UNL     1       3.215   7.103  17.859  0.00  0.00    +0.000 C 
ATOM     10  O   UNL     1       4.264   7.624  17.492  0.00  0.00    +0.000 OA
ATOM     11  H   UNL     1       1.265   7.355  18.500  0.00  0.00    +0.000 HD
BRANCH   8  12
ATOM     12  C   UNL     1       1.979   9.256  17.843  0.00  0.00    +0.000 C 
BRANCH  12  13
ATOM     13  C   UNL     1       1.293  10.127  18.945  0.00  0.00    +0.000 C 
BRANCH  13  14
ATOM     14  N   UNL     1      -0.107   9.808  19.372  0.00  0.00    +0.000 NA
BRANCH  14  16
ATOM     15  C   UNL     1       0.995   8.779  21.421  0.00  0.00    +0.000 C 
ATOM     16  C   UNL     1      -0.167   9.583  20.834  0.00  0.00    +0.000 C 
ENDBRANCH  14  16
BRANCH  14  17
ATOM     17  C   UNL     1      -1.039  10.896  18.975  0.00  0.00    +0.000 C 
ATOM     18  C   UNL     1      -1.441  11.883  20.072  0.00  0.00    +0.000 C 
ENDBRANCH  14  17
ENDBRANCH  13  14
ENDBRANCH  12  13
ENDBRANCH   8  12
ENDBRANCH   1   9
BRANCH   5  19
ATOM     19  N   UNL     1       2.487   1.455  18.504  0.00  0.00    +0.000 N 
ATOM     20  H   UNL     1       3.178   0.886  18.017  0.00  0.00    +0.000 HD
ATOM     21  H   UNL     1       1.534   1.213  18.250  0.00  0.00    +0.000 HD
ENDBRANCH   5  19
BRANCH   7  22
ATOM     22  O   UNL     1       4.875   4.896  16.344  0.00  0.00    +0.000 OA
BRANCH  22  23
ATOM     23  C   UNL     1       6.189   4.493  16.697  0.00  0.00    +0.000 C 
BRANCH  23  24
ATOM     24  C   UNL     1       7.100   5.629  17.106  0.00  0.00    +0.000 C 
ATOM     25  C   UNL     1       7.451   5.735  18.561  0.00  0.00    +0.000 C 
ATOM     26  O   UNL     1       7.578   6.407  16.279  0.00  0.00    +0.000 OA
ENDBRANCH  23  24
ENDBRANCH  22  23
ENDBRANCH   7  22
TORSDOF 10
ENDMDL
MODEL 6
REMARK VINA RESULT:      -5.9      3.032      7.178
REMARK  Name = 
REMARK  13 active torsions:
REMARK  status: ('A' for Active; 'I' for Inactive)
REMARK    1  A    between atoms: C_1  and  C_2
REMARK    2  A    between atoms: C_2  and  N_3
REMARK    3  A    between atoms: N_3  and  C_4
REMARK    4  A    between atoms: N_3  and  C_6
REMARK    5  A    between atoms: C_4  and  C_5
REMARK    6  A    between atoms: C_6  and  C_7
REMARK    7  A    between atoms: C_7  and  N_8
REMARK    8  A    between atoms: C_9  and  C_11
REMARK    9  A    between atoms: C_15  and  N_16
REMARK   10  A    between atoms: C_18  and  O_19
REMARK   11  A    between atoms: O_19  and  C_20
REMARK   12  A    between atoms: C_20  and  C_21
REMARK   13  A    between atoms: C_21  and  C_22
REMARK                            x       y       z     vdW  Elec       q    Type
REMARK                         _______ _______ _______ _____ _____    ______ ____
ROOT
ATOM      1  C   UNL     1       2.994   5.452  18.745  0.00  0.00    +0.000 A 
ATOM      2  C   UNL     1       2.080   4.497  19.228  0.00  0.00    +0.000 A 
ATOM      3  C   UNL     1       2.328   3.128  19.084  0.00  0.00    +0.000 A 
ATOM      4 CL   UNL     1       1.168   2.005  19.706  0.00  0.00    +0.000 Cl
ATOM      5  C   UNL     1       3.504   2.669  18.475  0.00  0.00    +0.000 A 
ATOM      6  C   UNL     1       4.399   3.622  17.981  0.00  0.00    +0.000 A 
ATOM      7  C   UNL     1       4.193   5.003  18.164  0.00  0.00    +0.000 A 
ENDROOT
BRANCH   1   9
ATOM      8  N   UNL     1       2.123   7.272  20.163  0.00  0.00    +0.000 N 
ATOM      9  C   UNL     1       2.581   6.880  18.922  0.00  0.00    +0.000 C 
ATOM     10  O   UNL     1       2.657   7.652  17.970  0.00  0.00    +0.000 OA
ATOM     11  H   UNL     1       2.143   6.608  20.925  0.00  0.00    +0.000 HD
BRANCH   8  12
ATOM     12  C   UNL     1       1.514   8.577  20.389  0.00  0.00    +0.000 C 
BRANCH  12  13
ATOM     13  C   UNL     1       1.259   8.949  21.885  0.00  0.00    +0.000 C 
BRANCH  13  14
ATOM     14  N   UNL     1       0.633  10.268  22.221  0.00  0.00    +0.000 NA
BRANCH  14  16
ATOM     15  C   UNL     1       1.170  12.301  20.790  0.00  0.00    +0.000 C 
ATOM     16  C   UNL     1       0.338  11.033  20.988  0.00  0.00    +0.000 C 
ENDBRANCH  14  16
BRANCH  14  17
ATOM     17  C   UNL     1      -0.604  10.075  23.022  0.00  0.00    +0.000 C 
ATOM     18  C   UNL     1      -1.532  11.284  23.146  0.00  0.00    +0.000 C 
ENDBRANCH  14  17
ENDBRANCH  13  14
ENDBRANCH  12  13
ENDBRANCH   8  12
ENDBRANCH   1   9
BRANCH   5  19
ATOM     19  N   UNL     1       3.705   1.313  18.160  0.00  0.00    +0.000 N 
ATOM     20  H   UNL     1       3.337   1.063  17.243  0.00  0.00    +0.000 HD
ATOM     21  H   UNL     1       3.418   0.663  18.886  0.00  0.00    +0.000 HD
ENDBRANCH   5  19
BRANCH   7  22
ATOM     22  O   UNL     1       5.259   5.740  17.718  0.00  0.00    +0.000 OA
BRANCH  22  23
ATOM     23  C   UNL     1       5.298   6.033  16.331  0.00  0.00    +0.000 C 
BRANCH  23  24
ATOM     24  C   UNL     1       6.373   5.292  15.567  0.00  0.00    +0.000 C 
ATOM     25  C   UNL     1       5.935   4.139  14.713  0.00  0.00    +0.000 C 
ATOM     26  O   UNL     1       7.552   5.646  15.600  0.00  0.00    +0.000 OA
ENDBRANCH  23  24
ENDBRANCH  22  23
ENDBRANCH   7  22
TORSDOF 10
ENDMDL
MODEL 7
REMARK VINA RESULT:      -5.9      2.899      6.604
REMARK  Name = 
REMARK  13 active torsions:
REMARK  status: ('A' for Active; 'I' for Inactive)
REMARK    1  A    between atoms: C_1  and  C_2
REMARK    2  A    between atoms: C_2  and  N_3
REMARK    3  A    between atoms: N_3  and  C_4
REMARK    4  A    between atoms: N_3  and  C_6
REMARK    5  A    between atoms: C_4  and  C_5
REMARK    6  A    between atoms: C_6  and  C_7
REMARK    7  A    between atoms: C_7  and  N_8
REMARK    8  A    between atoms: C_9  and  C_11
REMARK    9  A    between atoms: C_15  and  N_16
REMARK   10  A    between atoms: C_18  and  O_19
REMARK   11  A    between atoms: O_19  and  C_20
REMARK   12  A    between atoms: C_20  and  C_21
REMARK   13  A    between atoms: C_21  and  C_22
REMARK                            x       y       z     vdW  Elec       q    Type
REMARK                         _______ _______ _______ _____ _____    ______ ____
ROOT
ATOM      1  C   UNL     1       2.905   5.270  19.071  0.00  0.00    +0.000 A 
ATOM      2  C   UNL     1       1.828   4.370  18.964  0.00  0.00    +0.000 A 
ATOM      3  C   UNL     1       2.052   2.998  18.810  0.00  0.00    +0.000 A 
ATOM      4 CL   UNL     1       0.685   1.944  18.691  0.00  0.00    +0.000 Cl
ATOM      5  C   UNL     1       3.354   2.479  18.782  0.00  0.00    +0.000 A 
ATOM      6  C   UNL     1       4.418   3.380  18.871  0.00  0.00    +0.000 A 
ATOM      7  C   UNL     1       4.214   4.757  19.080  0.00  0.00    +0.000 A 
ENDROOT
BRANCH   1   9
ATOM      8  N   UNL     1       2.532   7.476  18.034  0.00  0.00    +0.000 N 
ATOM      9  C   UNL     1       2.523   6.714  19.183  0.00  0.00    +0.000 C 
ATOM     10  O   UNL     1       2.220   7.174  20.280  0.00  0.00    +0.000 OA
ATOM     11  H   UNL     1       2.729   7.028  17.149  0.00  0.00    +0.000 HD
BRANCH   8  12
ATOM     12  C   UNL     1       2.372   8.925  18.061  0.00  0.00    +0.000 C 
BRANCH  12  13
ATOM     13  C   UNL     1       0.925   9.446  17.788  0.00  0.00    +0.000 C 
BRANCH  13  14
ATOM     14  N   UNL     1       0.305  10.431  18.731  0.00  0.00    +0.000 NA
BRANCH  14  16
ATOM     15  C   UNL     1      -1.808  10.109  17.352  0.00  0.00    +0.000 C 
ATOM     16  C   UNL     1      -1.169  10.298  18.729  0.00  0.00    +0.000 C 
ENDBRANCH  14  16
BRANCH  14  17
ATOM     17  C   UNL     1       0.841  10.252  20.106  0.00  0.00    +0.000 C 
ATOM     18  C   UNL     1      -0.153   9.783  21.170  0.00  0.00    +0.000 C 
ENDBRANCH  14  17
ENDBRANCH  13  14
ENDBRANCH  12  13
ENDBRANCH   8  12
ENDBRANCH   1   9
BRANCH   5  19
ATOM     19  N   UNL     1       3.618   1.136  18.457  0.00  0.00    +0.000 N 
ATOM     20  H   UNL     1       2.772   0.609  18.244  0.00  0.00    +0.000 HD
ATOM     21  H   UNL     1       4.223   0.653  19.115  0.00  0.00    +0.000 HD
ENDBRANCH   5  19
BRANCH   7  22
ATOM     22  O   UNL     1       5.396   5.425  19.269  0.00  0.00    +0.000 OA
BRANCH  22  23
ATOM     23  C   UNL     1       6.057   5.896  18.106  0.00  0.00    +0.000 C 
BRANCH  23  24
ATOM     24  C   UNL     1       7.088   4.942  17.545  0.00  0.00    +0.000 C 
ATOM     25  C   UNL     1       7.020   4.645  16.076  0.00  0.00    +0.000 C 
ATOM     26  O   UNL     1       7.981   4.466  18.248  0.00  0.00    +0.000 OA
ENDBRANCH  23  24
ENDBRANCH  22  23
ENDBRANCH   7  22
TORSDOF 10
ENDMDL
MODEL 8
REMARK VINA RESULT:      -5.9      2.940      6.938
REMARK  Name = 
REMARK  13 active torsions:
REMARK  status: ('A' for Active; 'I' for Inactive)
REMARK    1  A    between atoms: C_1  and  C_2
REMARK    2  A    between atoms: C_2  and  N_3
REMARK    3  A    between atoms: N_3  and  C_4
REMARK    4  A    between atoms: N_3  and  C_6
REMARK    5  A    between atoms: C_4  and  C_5
REMARK    6  A    between atoms: C_6  and  C_7
REMARK    7  A    between atoms: C_7  and  N_8
REMARK    8  A    between atoms: C_9  and  C_11
REMARK    9  A    between atoms: C_15  and  N_16
REMARK   10  A    between atoms: C_18  and  O_19
REMARK   11  A    between atoms: O_19  and  C_20
REMARK   12  A    between atoms: C_20  and  C_21
REMARK   13  A    between atoms: C_21  and  C_22
REMARK                            x       y       z     vdW  Elec       q    Type
REMARK                         _______ _______ _______ _____ _____    ______ ____
ROOT
ATOM      1  C   UNL     1       2.874   5.634  18.681  0.00  0.00    +0.000 A 
ATOM      2  C   UNL     1       2.245   4.680  19.503  0.00  0.00    +0.000 A 
ATOM      3  C   UNL     1       2.525   3.317  19.367  0.00  0.00    +0.000 A 
ATOM      4 CL   UNL     1       1.723   2.197  20.413  0.00  0.00    +0.000 Cl
ATOM      5  C   UNL     1       3.457   2.864  18.423  0.00  0.00    +0.000 A 
ATOM      6  C   UNL     1       4.065   3.813  17.597  0.00  0.00    +0.000 A 
ATOM      7  C   UNL     1       3.836   5.194  17.755  0.00  0.00    +0.000 A 
ENDROOT
BRANCH   1   9
ATOM      8  N   UNL     1       2.344   7.875  17.800  0.00  0.00    +0.000 N 
ATOM      9  C   UNL     1       2.446   7.052  18.901  0.00  0.00    +0.000 C 
ATOM     10  O   UNL     1       2.204   7.437  20.042  0.00  0.00    +0.000 OA
ATOM     11  H   UNL     1       2.494   7.484  16.879  0.00  0.00    +0.000 HD
BRANCH   8  12
ATOM     12  C   UNL     1       2.130   9.312  17.922  0.00  0.00    +0.000 C 
BRANCH  12  13
ATOM     13  C   UNL     1       0.641   9.759  18.076  0.00  0.00    +0.000 C 
BRANCH  13  14
ATOM     14  N   UNL     1       0.309  10.929  18.951  0.00  0.00    +0.000 NA
BRANCH  14  16
ATOM     15  C   UNL     1      -1.975  10.265  18.048  0.00  0.00    +0.000 C 
ATOM     16  C   UNL     1      -1.139  11.232  18.889  0.00  0.00    +0.000 C 
ENDBRANCH  14  16
BRANCH  14  17
ATOM     17  C   UNL     1       0.726  10.671  20.355  0.00  0.00    +0.000 C 
ATOM     18  C   UNL     1      -0.345  10.861  21.430  0.00  0.00    +0.000 C 
ENDBRANCH  14  17
ENDBRANCH  13  14
ENDBRANCH  12  13
ENDBRANCH   8  12
ENDBRANCH   1   9
BRANCH   5  19
ATOM     19  N   UNL     1       3.634   1.497  18.140  0.00  0.00    +0.000 N 
ATOM     20  H   UNL     1       3.233   1.225  17.244  0.00  0.00    +0.000 HD
ATOM     21  H   UNL     1       3.366   0.872  18.894  0.00  0.00    +0.000 HD
ENDBRANCH   5  19
BRANCH   7  22
ATOM     22  O   UNL     1       4.636   5.940  16.929  0.00  0.00    +0.000 OA
BRANCH  22  23
ATOM     23  C   UNL     1       5.918   5.411  16.631  0.00  0.00    +0.000 C 
BRANCH  23  24
ATOM     24  C   UNL     1       7.069   6.199  17.216  0.00  0.00    +0.000 C 
ATOM     25  C   UNL     1       7.470   5.882  18.626  0.00  0.00    +0.000 C 
ATOM     26  O   UNL     1       7.689   7.031  16.552  0.00  0.00    +0.000 OA
ENDBRANCH  23  24
ENDBRANCH  22  23
ENDBRANCH   7  22
TORSDOF 10
ENDMDL
MODEL 9
REMARK VINA RESULT:      -5.9      2.892      6.888
REMARK  Name = 
REMARK  13 active torsions:
REMARK  status: ('A' for Active; 'I' for Inactive)
REMARK    1  A    between atoms: C_1  and  C_2
REMARK    2  A    between atoms: C_2  and  N_3
REMARK    3  A    between atoms: N_3  and  C_4
REMARK    4  A    between atoms: N_3  and  C_6
REMARK    5  A    between atoms: C_4  and  C_5
REMARK    6  A    between atoms: C_6  and  C_7
REMARK    7  A    between atoms: C_7  and  N_8
REMARK    8  A    between atoms: C_9  and  C_11
REMARK    9  A    between atoms: C_15  and  N_16
REMARK   10  A    between atoms: C_18  and  O_19
REMARK   11  A    between atoms: O_19  and  C_20
REMARK   12  A    between atoms: C_20  and  C_21
REMARK   13  A    between atoms: C_21  and  C_22
REMARK                            x       y       z     vdW  Elec       q    Type
REMARK                         _______ _______ _______ _____ _____    ______ ____
ROOT
ATOM      1  C   UNL     1       2.595   5.673  18.857  0.00  0.00    +0.000 A 
ATOM      2  C   UNL     1       1.975   4.842  19.808  0.00  0.00    +0.000 A 
ATOM      3  C   UNL     1       2.118   3.452  19.749  0.00  0.00    +0.000 A 
ATOM      4 CL   UNL     1       1.335   2.486  20.953  0.00  0.00    +0.000 Cl
ATOM      5  C   UNL     1       2.900   2.849  18.754  0.00  0.00    +0.000 A 
ATOM      6  C   UNL     1       3.498   3.679  17.802  0.00  0.00    +0.000 A 
ATOM      7  C   UNL     1       3.411   5.082  17.876  0.00  0.00    +0.000 A 
ENDROOT
BRANCH   1   9
ATOM      8  N   UNL     1       2.203   7.897  17.865  0.00  0.00    +0.000 N 
ATOM      9  C   UNL     1       2.320   7.137  19.010  0.00  0.00    +0.000 C 
ATOM     10  O   UNL     1       2.211   7.615  20.135  0.00  0.00    +0.000 OA
ATOM     11  H   UNL     1       2.239   7.436  16.965  0.00  0.00    +0.000 HD
BRANCH   8  12
ATOM     12  C   UNL     1       2.135   9.352  17.902  0.00  0.00    +0.000 C 
BRANCH  12  13
ATOM     13  C   UNL     1       0.728   9.951  18.226  0.00  0.00    +0.000 C 
BRANCH  13  14
ATOM     14  N   UNL     1       0.526  10.714  19.499  0.00  0.00    +0.000 NA
BRANCH  14  16
ATOM     15  C   UNL     1      -1.507  12.182  19.071  0.00  0.00    +0.000 C 
ATOM     16  C   UNL     1       0.012  12.073  19.215  0.00  0.00    +0.000 C 
ENDBRANCH  14  16
BRANCH  14  17
ATOM     17  C   UNL     1      -0.399   9.988  20.407  0.00  0.00    +0.000 C 
ATOM     18  C   UNL     1       0.028   9.879  21.872  0.00  0.00    +0.000 C 
ENDBRANCH  14  17
ENDBRANCH  13  14
ENDBRANCH  12  13
ENDBRANCH   8  12
ENDBRANCH   1   9
BRANCH   5  19
ATOM     19  N   UNL     1       2.924   1.456  18.561  0.00  0.00    +0.000 N 
ATOM     20  H   UNL     1       3.013   0.939  19.435  0.00  0.00    +0.000 HD
ATOM     21  H   UNL     1       3.579   1.139  17.852  0.00  0.00    +0.000 HD
ENDBRANCH   5  19
BRANCH   7  22
ATOM     22  O   UNL     1       4.181   5.692  16.919  0.00  0.00    +0.000 OA
BRANCH  22  23
ATOM     23  C   UNL     1       5.519   5.997  17.275  0.00  0.00    +0.000 C 
BRANCH  23  24
ATOM     24  C   UNL     1       6.551   5.551  16.263  0.00  0.00    +0.000 C 
ATOM     25  C   UNL     1       6.267   4.287  15.506  0.00  0.00    +0.000 C 
ATOM     26  O   UNL     1       7.559   6.219  16.027  0.00  0.00    +0.000 OA
ENDBRANCH  23  24
ENDBRANCH  22  23
ENDBRANCH   7  22
TORSDOF 10
ENDMDL
