MODEL 1
REMARK VINA RESULT:      -8.4      0.000      0.000
REMARK  Name = 
REMARK  11 active torsions:
REMARK  status: ('A' for Active; 'I' for Inactive)
REMARK    1  A    between atoms: S_2  and  N_4
REMARK    2  A    between atoms: S_2  and  C_23
REMARK    3  A    between atoms: N_4  and  C_5
REMARK    4  A    between atoms: C_5  and  C_6
REMARK    5  A    between atoms: C_6  and  C_7
REMARK    6  A    between atoms: C_7  and  C_8
REMARK    7  A    between atoms: C_8  and  C_9
REMARK    8  A    between atoms: C_9  and  C_10
REMARK    9  A    between atoms: C_10  and  N_11
REMARK   10  A    between atoms: N_11  and  C_12
REMARK   11  A    between atoms: C_12  and  C_13
REMARK                            x       y       z     vdW  Elec       q    Type
REMARK                         _______ _______ _______ _____ _____    ______ ____
ROOT
ATOM      1  C   UNL     1       0.980   4.231  20.338  0.00  0.00    +0.000 C 
ENDROOT
BRANCH   1   2
ATOM      2  C   UNL     1       1.362   2.791  20.652  0.00  0.00    +0.000 C 
BRANCH   2   3
ATOM      3  N   UNL     1       2.764   2.501  20.312  0.00  0.00    +0.000 NA
ATOM      4  H   UNL     1       3.419   3.187  20.683  0.00  0.00    +0.000 HD
BRANCH   3   6
ATOM      5  O   UNL     1       3.818   1.130  18.423  0.00  0.00    +0.000 OA
ATOM      6  S   UNL     1       3.005   2.293  18.633  0.00  0.00    +0.000 S 
ATOM      7  O   UNL     1       1.696   2.449  18.012  0.00  0.00    +0.000 OA
BRANCH   6   8
ATOM      8  C   UNL     1       3.977   3.727  18.197  0.00  0.00    +0.000 A 
ATOM      9  C   UNL     1       3.650   4.484  17.069  0.00  0.00    +0.000 A 
ATOM     10  C   UNL     1       4.491   5.531  16.676  0.00  0.00    +0.000 A 
ATOM     11  C   UNL     1       5.645   5.848  17.418  0.00  0.00    +0.000 A 
ATOM     12  C   UNL     1       6.494   6.903  17.039  0.00  0.00    +0.000 A 
ATOM     13  C   UNL     1       7.636   7.203  17.785  0.00  0.00    +0.000 A 
ATOM     14  C   UNL     1       7.951   6.445  18.908  0.00  0.00    +0.000 A 
ATOM     15  C   UNL     1       7.122   5.388  19.292  0.00  0.00    +0.000 A 
ATOM     16  C   UNL     1       5.961   5.084  18.565  0.00  0.00    +0.000 A 
ATOM     17  C   UNL     1       5.119   4.027  18.946  0.00  0.00    +0.000 A 
ENDBRANCH   6   8
ENDBRANCH   3   6
ENDBRANCH   2   3
ENDBRANCH   1   2
BRANCH   1  18
ATOM     18  C   UNL     1       2.094   5.181  20.788  0.00  0.00    +0.000 C 
BRANCH  18  19
ATOM     19  C   UNL     1       1.827   6.616  20.339  0.00  0.00    +0.000 C 
BRANCH  19  20
ATOM     20  C   UNL     1       1.233   7.448  21.467  0.00  0.00    +0.000 C 
BRANCH  20  21
ATOM     21  C   UNL     1       0.464   8.633  20.895  0.00  0.00    +0.000 C 
BRANCH  21  22
ATOM     22  N   UNL     1       1.251   9.260  19.842  0.00  0.00    +0.000 NA
ATOM     23  H   UNL     1       1.058   8.817  18.943  0.00  0.00    +0.000 HD
BRANCH  22  24
ATOM     24  C   UNL     1       0.936  10.684  19.751  0.00  0.00    +0.000 C 
BRANCH  24  25
ATOM     25  C   UNL     1      -0.440  10.889  19.175  0.00  0.00    +0.000 A 
ATOM     26  C   UNL     1      -1.366  11.734  19.800  0.00  0.00    +0.000 A 
ATOM     27  C   UNL     1      -2.603  11.985  19.205  0.00  0.00    +0.000 A 
ATOM     28  C   UNL     1      -2.936  11.401  17.975  0.00  0.00    +0.000 A 
ATOM     29  C   UNL     1      -4.149  11.690  17.329  0.00  0.00    +0.000 A 
ATOM     30  C   UNL     1      -4.455  11.110  16.097  0.00  0.00    +0.000 A 
ATOM     31  C   UNL     1      -3.564  10.221  15.502  0.00  0.00    +0.000 A 
ATOM     32  C   UNL     1      -2.358   9.919  16.133  0.00  0.00    +0.000 A 
ATOM     33  C   UNL     1      -2.027  10.511  17.360  0.00  0.00    +0.000 A 
ATOM     34  C   UNL     1      -0.795  10.255  17.977  0.00  0.00    +0.000 A 
ENDBRANCH  24  25
ENDBRANCH  22  24
ENDBRANCH  21  22
ENDBRANCH  20  21
ENDBRANCH  19  20
ENDBRANCH  18  19
ENDBRANCH   1  18
TORSDOF 11
ENDMDL
MODEL 2
REMARK VINA RESULT:      -8.0      3.050      4.991
REMARK  Name = 
REMARK  11 active torsions:
REMARK  status: ('A' for Active; 'I' for Inactive)
REMARK    1  A    between atoms: S_2  and  N_4
REMARK    2  A    between atoms: S_2  and  C_23
REMARK    3  A    between atoms: N_4  and  C_5
REMARK    4  A    between atoms: C_5  and  C_6
REMARK    5  A    between atoms: C_6  and  C_7
REMARK    6  A    between atoms: C_7  and  C_8
REMARK    7  A    between atoms: C_8  and  C_9
REMARK    8  A    between atoms: C_9  and  C_10
REMARK    9  A    between atoms: C_10  and  N_11
REMARK   10  A    between atoms: N_11  and  C_12
REMARK   11  A    between atoms: C_12  and  C_13
REMARK                            x       y       z     vdW  Elec       q    Type
REMARK                         _______ _______ _______ _____ _____    ______ ____
ROOT
ATOM      1  C   UNL     1       4.065   7.219  16.635  0.00  0.00    +0.000 C 
ENDROOT
BRANCH   1   2
ATOM      2  C   UNL     1       5.552   6.891  16.620  0.00  0.00    +0.000 C 
BRANCH   2   3
ATOM      3  N   UNL     1       5.902   5.944  15.549  0.00  0.00    +0.000 NA
ATOM      4  H   UNL     1       5.167   5.835  14.851  0.00  0.00    +0.000 HD
BRANCH   3   6
ATOM      5  O   UNL     1       6.156   3.429  15.137  0.00  0.00    +0.000 OA
ATOM      6  S   UNL     1       6.384   4.419  16.150  0.00  0.00    +0.000 S 
ATOM      7  O   UNL     1       7.691   4.619  16.762  0.00  0.00    +0.000 OA
BRANCH   6   8
ATOM      8  C   UNL     1       5.215   4.131  17.470  0.00  0.00    +0.000 A 
ATOM      9  C   UNL     1       5.606   4.274  18.803  0.00  0.00    +0.000 A 
ATOM     10  C   UNL     1       4.713   3.930  19.823  0.00  0.00    +0.000 A 
ATOM     11  C   UNL     1       3.418   3.468  19.523  0.00  0.00    +0.000 A 
ATOM     12  C   UNL     1       2.507   3.126  20.539  0.00  0.00    +0.000 A 
ATOM     13  C   UNL     1       1.226   2.668  20.223  0.00  0.00    +0.000 A 
ATOM     14  C   UNL     1       0.845   2.531  18.893  0.00  0.00    +0.000 A 
ATOM     15  C   UNL     1       1.741   2.858  17.872  0.00  0.00    +0.000 A 
ATOM     16  C   UNL     1       3.025   3.337  18.171  0.00  0.00    +0.000 A 
ATOM     17  C   UNL     1       3.932   3.674  17.152  0.00  0.00    +0.000 A 
ENDBRANCH   6   8
ENDBRANCH   3   6
ENDBRANCH   2   3
ENDBRANCH   1   2
BRANCH   1  18
ATOM     18  C   UNL     1       3.607   7.520  18.066  0.00  0.00    +0.000 C 
BRANCH  18  19
ATOM     19  C   UNL     1       2.267   6.860  18.380  0.00  0.00    +0.000 C 
BRANCH  19  20
ATOM     20  C   UNL     1       2.028   6.780  19.882  0.00  0.00    +0.000 C 
BRANCH  20  21
ATOM     21  C   UNL     1       1.842   8.180  20.457  0.00  0.00    +0.000 C 
BRANCH  21  22
ATOM     22  N   UNL     1       0.587   8.240  21.194  0.00  0.00    +0.000 NA
ATOM     23  H   UNL     1       0.376   7.333  21.609  0.00  0.00    +0.000 HD
BRANCH  22  24
ATOM     24  C   UNL     1       0.668   9.244  22.253  0.00  0.00    +0.000 C 
BRANCH  24  25
ATOM     25  C   UNL     1      -0.280  10.382  21.982  0.00  0.00    +0.000 A 
ATOM     26  C   UNL     1      -0.330  10.994  20.723  0.00  0.00    +0.000 A 
ATOM     27  C   UNL     1      -1.278  11.985  20.461  0.00  0.00    +0.000 A 
ATOM     28  C   UNL     1      -2.193  12.378  21.447  0.00  0.00    +0.000 A 
ATOM     29  C   UNL     1      -3.194  13.326  21.184  0.00  0.00    +0.000 A 
ATOM     30  C   UNL     1      -4.107  13.692  22.175  0.00  0.00    +0.000 A 
ATOM     31  C   UNL     1      -4.022  13.130  23.446  0.00  0.00    +0.000 A 
ATOM     32  C   UNL     1      -3.029  12.190  23.725  0.00  0.00    +0.000 A 
ATOM     33  C   UNL     1      -2.121  11.797  22.733  0.00  0.00    +0.000 A 
ATOM     34  C   UNL     1      -1.153  10.815  22.988  0.00  0.00    +0.000 A 
ENDBRANCH  24  25
ENDBRANCH  22  24
ENDBRANCH  21  22
ENDBRANCH  20  21
ENDBRANCH  19  20
ENDBRANCH  18  19
ENDBRANCH   1  18
TORSDOF 11
ENDMDL
MODEL 3
REMARK VINA RESULT:      -8.0      5.565      8.936
REMARK  Name = 
REMARK  11 active torsions:
REMARK  status: ('A' for Active; 'I' for Inactive)
REMARK    1  A    between atoms: S_2  and  N_4
REMARK    2  A    between atoms: S_2  and  C_23
REMARK    3  A    between atoms: N_4  and  C_5
REMARK    4  A    between atoms: C_5  and  C_6
REMARK    5  A    between atoms: C_6  and  C_7
REMARK    6  A    between atoms: C_7  and  C_8
REMARK    7  A    between atoms: C_8  and  C_9
REMARK    8  A    between atoms: C_9  and  C_10
REMARK    9  A    between atoms: C_10  and  N_11
REMARK   10  A    between atoms: N_11  and  C_12
REMARK   11  A    between atoms: C_12  and  C_13
REMARK                            x       y       z     vdW  Elec       q    Type
REMARK                         _______ _______ _______ _____ _____    ______ ____
ROOT
ATOM      1  C   UNL     1       7.818   9.405  18.055  0.00  0.00    +0.000 C 
ENDROOT
BRANCH   1   2
ATOM      2  C   UNL     1       8.226   8.085  17.414  0.00  0.00    +0.000 C 
BRANCH   2   3
ATOM      3  N   UNL     1       7.062   7.259  17.056  0.00  0.00    +0.000 NA
ATOM      4  H   UNL     1       6.171   7.710  17.256  0.00  0.00    +0.000 HD
BRANCH   3   6
ATOM      5  O   UNL     1       7.769   4.806  16.855  0.00  0.00    +0.000 OA
ATOM      6  S   UNL     1       7.116   5.704  17.762  0.00  0.00    +0.000 S 
ATOM      7  O   UNL     1       7.574   5.895  19.132  0.00  0.00    +0.000 OA
BRANCH   6   8
ATOM      8  C   UNL     1       5.390   5.248  17.836  0.00  0.00    +0.000 A 
ATOM      9  C   UNL     1       4.397   6.226  17.742  0.00  0.00    +0.000 A 
ATOM     10  C   UNL     1       3.056   5.865  17.921  0.00  0.00    +0.000 A 
ATOM     11  C   UNL     1       2.696   4.527  18.167  0.00  0.00    +0.000 A 
ATOM     12  C   UNL     1       1.352   4.150  18.340  0.00  0.00    +0.000 A 
ATOM     13  C   UNL     1       1.011   2.818  18.584  0.00  0.00    +0.000 A 
ATOM     14  C   UNL     1       2.007   1.851  18.674  0.00  0.00    +0.000 A 
ATOM     15  C   UNL     1       3.347   2.211  18.512  0.00  0.00    +0.000 A 
ATOM     16  C   UNL     1       3.706   3.542  18.248  0.00  0.00    +0.000 A 
ATOM     17  C   UNL     1       5.051   3.914  18.079  0.00  0.00    +0.000 A 
ENDBRANCH   6   8
ENDBRANCH   3   6
ENDBRANCH   2   3
ENDBRANCH   1   2
BRANCH   1  18
ATOM     18  C   UNL     1       9.056  10.138  18.584  0.00  0.00    +0.000 C 
BRANCH  18  19
ATOM     19  C   UNL     1       9.254  11.483  17.890  0.00  0.00    +0.000 C 
BRANCH  19  20
ATOM     20  C   UNL     1      10.711  11.923  17.940  0.00  0.00    +0.000 C 
BRANCH  20  21
ATOM     21  C   UNL     1      10.882  13.250  17.209  0.00  0.00    +0.000 C 
BRANCH  21  22
ATOM     22  N   UNL     1       9.939  14.224  17.741  0.00  0.00    +0.000 NA
ATOM     23  H   UNL     1       9.009  13.812  17.817  0.00  0.00    +0.000 HD
BRANCH  22  24
ATOM     24  C   UNL     1      10.370  14.679  19.062  0.00  0.00    +0.000 C 
BRANCH  24  25
ATOM     25  C   UNL     1       9.296  14.429  20.087  0.00  0.00    +0.000 A 
ATOM     26  C   UNL     1       8.105  15.164  20.078  0.00  0.00    +0.000 A 
ATOM     27  C   UNL     1       7.082  14.857  20.977  0.00  0.00    +0.000 A 
ATOM     28  C   UNL     1       7.229  13.810  21.897  0.00  0.00    +0.000 A 
ATOM     29  C   UNL     1       6.189  13.444  22.766  0.00  0.00    +0.000 A 
ATOM     30  C   UNL     1       6.351  12.387  23.664  0.00  0.00    +0.000 A 
ATOM     31  C   UNL     1       7.556  11.693  23.718  0.00  0.00    +0.000 A 
ATOM     32  C   UNL     1       8.601  12.048  22.865  0.00  0.00    +0.000 A 
ATOM     33  C   UNL     1       8.445  13.092  21.943  0.00  0.00    +0.000 A 
ATOM     34  C   UNL     1       9.470  13.422  21.046  0.00  0.00    +0.000 A 
ENDBRANCH  24  25
ENDBRANCH  22  24
ENDBRANCH  21  22
ENDBRANCH  20  21
ENDBRANCH  19  20
ENDBRANCH  18  19
ENDBRANCH   1  18
TORSDOF 11
ENDMDL
MODEL 4
REMARK VINA RESULT:      -7.9      3.297      9.411
REMARK  Name = 
REMARK  11 active torsions:
REMARK  status: ('A' for Active; 'I' for Inactive)
REMARK    1  A    between atoms: S_2  and  N_4
REMARK    2  A    between atoms: S_2  and  C_23
REMARK    3  A    between atoms: N_4  and  C_5
REMARK    4  A    between atoms: C_5  and  C_6
REMARK    5  A    between atoms: C_6  and  C_7
REMARK    6  A    between atoms: C_7  and  C_8
REMARK    7  A    between atoms: C_8  and  C_9
REMARK    8  A    between atoms: C_9  and  C_10
REMARK    9  A    between atoms: C_10  and  N_11
REMARK   10  A    between atoms: N_11  and  C_12
REMARK   11  A    between atoms: C_12  and  C_13
REMARK                            x       y       z     vdW  Elec       q    Type
REMARK                         _______ _______ _______ _____ _____    ______ ____
ROOT
ATOM      1  C   UNL     1       2.395   6.937  18.694  0.00  0.00    +0.000 C 
ENDROOT
BRANCH   1   2
ATOM      2  C   UNL     1       1.958   8.214  19.399  0.00  0.00    +0.000 C 
BRANCH   2   3
ATOM      3  N   UNL     1       1.492   9.240  18.453  0.00  0.00    +0.000 NA
ATOM      4  H   UNL     1       2.195   9.504  17.766  0.00  0.00    +0.000 HD
BRANCH   3   6
ATOM      5  O   UNL     1       0.872  10.397  20.652  0.00  0.00    +0.000 OA
ATOM      6  S   UNL     1       0.873  10.627  19.236  0.00  0.00    +0.000 S 
ATOM      7  O   UNL     1       1.548  11.769  18.634  0.00  0.00    +0.000 OA
BRANCH   6   8
ATOM      8  C   UNL     1      -0.826  10.661  18.686  0.00  0.00    +0.000 A 
ATOM      9  C   UNL     1      -1.214   9.955  17.544  0.00  0.00    +0.000 A 
ATOM     10  C   UNL     1      -2.520  10.090  17.062  0.00  0.00    +0.000 A 
ATOM     11  C   UNL     1      -3.455  10.905  17.727  0.00  0.00    +0.000 A 
ATOM     12  C   UNL     1      -4.774  11.042  17.258  0.00  0.00    +0.000 A 
ATOM     13  C   UNL     1      -5.688  11.856  17.929  0.00  0.00    +0.000 A 
ATOM     14  C   UNL     1      -5.295  12.553  19.066  0.00  0.00    +0.000 A 
ATOM     15  C   UNL     1      -3.986  12.434  19.540  0.00  0.00    +0.000 A 
ATOM     16  C   UNL     1      -3.059  11.606  18.889  0.00  0.00    +0.000 A 
ATOM     17  C   UNL     1      -1.742  11.475  19.360  0.00  0.00    +0.000 A 
ENDBRANCH   6   8
ENDBRANCH   3   6
ENDBRANCH   2   3
ENDBRANCH   1   2
BRANCH   1  18
ATOM     18  C   UNL     1       3.384   7.268  17.572  0.00  0.00    +0.000 C 
BRANCH  18  19
ATOM     19  C   UNL     1       4.828   7.245  18.068  0.00  0.00    +0.000 C 
BRANCH  19  20
ATOM     20  C   UNL     1       5.808   7.107  16.912  0.00  0.00    +0.000 C 
BRANCH  20  21
ATOM     21  C   UNL     1       5.210   6.226  15.821  0.00  0.00    +0.000 C 
BRANCH  21  22
ATOM     22  N   UNL     1       6.047   5.049  15.632  0.00  0.00    +0.000 NA
ATOM     23  H   UNL     1       6.755   4.996  16.364  0.00  0.00    +0.000 HD
BRANCH  22  24
ATOM     24  C   UNL     1       5.233   3.836  15.665  0.00  0.00    +0.000 C 
BRANCH  24  25
ATOM     25  C   UNL     1       4.605   3.653  17.021  0.00  0.00    +0.000 A 
ATOM     26  C   UNL     1       5.369   3.758  18.190  0.00  0.00    +0.000 A 
ATOM     27  C   UNL     1       4.754   3.678  19.441  0.00  0.00    +0.000 A 
ATOM     28  C   UNL     1       3.368   3.497  19.546  0.00  0.00    +0.000 A 
ATOM     29  C   UNL     1       2.723   3.478  20.793  0.00  0.00    +0.000 A 
ATOM     30  C   UNL     1       1.339   3.312  20.875  0.00  0.00    +0.000 A 
ATOM     31  C   UNL     1       0.584   3.147  19.718  0.00  0.00    +0.000 A 
ATOM     32  C   UNL     1       1.211   3.158  18.472  0.00  0.00    +0.000 A 
ATOM     33  C   UNL     1       2.596   3.346  18.372  0.00  0.00    +0.000 A 
ATOM     34  C   UNL     1       3.229   3.411  17.123  0.00  0.00    +0.000 A 
ENDBRANCH  24  25
ENDBRANCH  22  24
ENDBRANCH  21  22
ENDBRANCH  20  21
ENDBRANCH  19  20
ENDBRANCH  18  19
ENDBRANCH   1  18
TORSDOF 11
ENDMDL
MODEL 5
REMARK VINA RESULT:      -7.9      3.206      9.425
REMARK  Name = 
REMARK  11 active torsions:
REMARK  status: ('A' for Active; 'I' for Inactive)
REMARK    1  A    between atoms: S_2  and  N_4
REMARK    2  A    between atoms: S_2  and  C_23
REMARK    3  A    between atoms: N_4  and  C_5
REMARK    4  A    between atoms: C_5  and  C_6
REMARK    5  A    between atoms: C_6  and  C_7
REMARK    6  A    between atoms: C_7  and  C_8
REMARK    7  A    between atoms: C_8  and  C_9
REMARK    8  A    between atoms: C_9  and  C_10
REMARK    9  A    between atoms: C_10  and  N_11
REMARK   10  A    between atoms: N_11  and  C_12
REMARK   11  A    between atoms: C_12  and  C_13
REMARK                            x       y       z     vdW  Elec       q    Type
REMARK                         _______ _______ _______ _____ _____    ______ ____
ROOT
ATOM      1  C   UNL     1       2.955   7.141  18.068  0.00  0.00    +0.000 C 
ENDROOT
BRANCH   1   2
ATOM      2  C   UNL     1       2.458   8.552  17.787  0.00  0.00    +0.000 C 
BRANCH   2   3
ATOM      3  N   UNL     1       1.151   8.816  18.409  0.00  0.00    +0.000 NA
ATOM      4  H   UNL     1       0.375   8.768  17.752  0.00  0.00    +0.000 HD
BRANCH   3   6
ATOM      5  O   UNL     1       1.208  10.015  20.671  0.00  0.00    +0.000 OA
ATOM      6  S   UNL     1       1.116  10.293  19.268  0.00  0.00    +0.000 S 
ATOM      7  O   UNL     1       2.051  11.180  18.587  0.00  0.00    +0.000 OA
BRANCH   6   8
ATOM      8  C   UNL     1      -0.531  10.899  18.936  0.00  0.00    +0.000 A 
ATOM      9  C   UNL     1      -1.199  11.682  19.881  0.00  0.00    +0.000 A 
ATOM     10  C   UNL     1      -2.531  12.047  19.655  0.00  0.00    +0.000 A 
ATOM     11  C   UNL     1      -3.195  11.660  18.476  0.00  0.00    +0.000 A 
ATOM     12  C   UNL     1      -4.531  12.028  18.232  0.00  0.00    +0.000 A 
ATOM     13  C   UNL     1      -5.176  11.634  17.058  0.00  0.00    +0.000 A 
ATOM     14  C   UNL     1      -4.502  10.857  16.122  0.00  0.00    +0.000 A 
ATOM     15  C   UNL     1      -3.178  10.476  16.354  0.00  0.00    +0.000 A 
ATOM     16  C   UNL     1      -2.508  10.878  17.519  0.00  0.00    +0.000 A 
ATOM     17  C   UNL     1      -1.175  10.505  17.759  0.00  0.00    +0.000 A 
ENDBRANCH   6   8
ENDBRANCH   3   6
ENDBRANCH   2   3
ENDBRANCH   1   2
BRANCH   1  18
ATOM     18  C   UNL     1       4.434   7.018  17.688  0.00  0.00    +0.000 C 
BRANCH  18  19
ATOM     19  C   UNL     1       4.631   7.031  16.174  0.00  0.00    +0.000 C 
BRANCH  19  20
ATOM     20  C   UNL     1       5.678   6.013  15.743  0.00  0.00    +0.000 C 
BRANCH  20  21
ATOM     21  C   UNL     1       6.417   5.475  16.963  0.00  0.00    +0.000 C 
BRANCH  21  22
ATOM     22  N   UNL     1       6.418   4.018  16.927  0.00  0.00    +0.000 NA
ATOM     23  H   UNL     1       6.484   3.640  17.872  0.00  0.00    +0.000 HD
BRANCH  22  24
ATOM     24  C   UNL     1       5.195   3.525  16.298  0.00  0.00    +0.000 C 
BRANCH  24  25
ATOM     25  C   UNL     1       4.054   3.525  17.280  0.00  0.00    +0.000 A 
ATOM     26  C   UNL     1       2.742   3.777  16.861  0.00  0.00    +0.000 A 
ATOM     27  C   UNL     1       1.684   3.682  17.768  0.00  0.00    +0.000 A 
ATOM     28  C   UNL     1       1.917   3.331  19.104  0.00  0.00    +0.000 A 
ATOM     29  C   UNL     1       0.862   3.168  20.016  0.00  0.00    +0.000 A 
ATOM     30  C   UNL     1       1.115   2.802  21.339  0.00  0.00    +0.000 A 
ATOM     31  C   UNL     1       2.423   2.611  21.775  0.00  0.00    +0.000 A 
ATOM     32  C   UNL     1       3.483   2.774  20.883  0.00  0.00    +0.000 A 
ATOM     33  C   UNL     1       3.243   3.119  19.546  0.00  0.00    +0.000 A 
ATOM     34  C   UNL     1       4.297   3.234  18.629  0.00  0.00    +0.000 A 
ENDBRANCH  24  25
ENDBRANCH  22  24
ENDBRANCH  21  22
ENDBRANCH  20  21
ENDBRANCH  19  20
ENDBRANCH  18  19
ENDBRANCH   1  18
TORSDOF 11
ENDMDL
MODEL 6
REMARK VINA RESULT:      -7.8      2.716      9.497
REMARK  Name = 
REMARK  11 active torsions:
REMARK  status: ('A' for Active; 'I' for Inactive)
REMARK    1  A    between atoms: S_2  and  N_4
REMARK    2  A    between atoms: S_2  and  C_23
REMARK    3  A    between atoms: N_4  and  C_5
REMARK    4  A    between atoms: C_5  and  C_6
REMARK    5  A    between atoms: C_6  and  C_7
REMARK    6  A    between atoms: C_7  and  C_8
REMARK    7  A    between atoms: C_8  and  C_9
REMARK    8  A    between atoms: C_9  and  C_10
REMARK    9  A    between atoms: C_10  and  N_11
REMARK   10  A    between atoms: N_11  and  C_12
REMARK   11  A    between atoms: C_12  and  C_13
REMARK                            x       y       z     vdW  Elec       q    Type
REMARK                         _______ _______ _______ _____ _____    ______ ____
ROOT
ATOM      1  C   UNL     1       1.290   6.960  20.848  0.00  0.00    +0.000 C 
ENDROOT
BRANCH   1   2
ATOM      2  C   UNL     1       1.595   8.443  20.691  0.00  0.00    +0.000 C 
BRANCH   2   3
ATOM      3  N   UNL     1       0.398   9.222  20.334  0.00  0.00    +0.000 NA
ATOM      4  H   UNL     1      -0.450   8.660  20.291  0.00  0.00    +0.000 HD
BRANCH   3   6
ATOM      5  O   UNL     1       1.182  11.384  19.207  0.00  0.00    +0.000 OA
ATOM      6  S   UNL     1       0.598  10.113  18.890  0.00  0.00    +0.000 S 
ATOM      7  O   UNL     1       1.199   9.199  17.928  0.00  0.00    +0.000 OA
BRANCH   6   8
ATOM      8  C   UNL     1      -1.088  10.400  18.371  0.00  0.00    +0.000 A 
ATOM      9  C   UNL     1      -1.552   9.879  17.161  0.00  0.00    +0.000 A 
ATOM     10  C   UNL     1      -2.836  10.213  16.715  0.00  0.00    +0.000 A 
ATOM     11  C   UNL     1      -3.673  11.043  17.484  0.00  0.00    +0.000 A 
ATOM     12  C   UNL     1      -4.969  11.379  17.052  0.00  0.00    +0.000 A 
ATOM     13  C   UNL     1      -5.787  12.205  17.826  0.00  0.00    +0.000 A 
ATOM     14  C   UNL     1      -5.317  12.716  19.031  0.00  0.00    +0.000 A 
ATOM     15  C   UNL     1      -4.029  12.399  19.470  0.00  0.00    +0.000 A 
ATOM     16  C   UNL     1      -3.200  11.556  18.713  0.00  0.00    +0.000 A 
ATOM     17  C   UNL     1      -1.906  11.226  19.149  0.00  0.00    +0.000 A 
ENDBRANCH   6   8
ENDBRANCH   3   6
ENDBRANCH   2   3
ENDBRANCH   1   2
BRANCH   1  18
ATOM     18  C   UNL     1       2.249   6.132  19.986  0.00  0.00    +0.000 C 
BRANCH  18  19
ATOM     19  C   UNL     1       1.497   5.148  19.092  0.00  0.00    +0.000 C 
BRANCH  19  20
ATOM     20  C   UNL     1       1.106   3.892  19.859  0.00  0.00    +0.000 C 
BRANCH  20  21
ATOM     21  C   UNL     1       0.901   2.731  18.893  0.00  0.00    +0.000 C 
BRANCH  21  22
ATOM     22  N   UNL     1       1.941   1.733  19.104  0.00  0.00    +0.000 NA
ATOM     23  H   UNL     1       1.529   0.803  19.182  0.00  0.00    +0.000 HD
BRANCH  22  24
ATOM     24  C   UNL     1       2.889   1.744  17.993  0.00  0.00    +0.000 C 
BRANCH  24  25
ATOM     25  C   UNL     1       3.838   2.907  18.114  0.00  0.00    +0.000 A 
ATOM     26  C   UNL     1       4.521   3.159  19.310  0.00  0.00    +0.000 A 
ATOM     27  C   UNL     1       5.465   4.185  19.378  0.00  0.00    +0.000 A 
ATOM     28  C   UNL     1       5.748   4.972  18.253  0.00  0.00    +0.000 A 
ATOM     29  C   UNL     1       6.739   5.966  18.282  0.00  0.00    +0.000 A 
ATOM     30  C   UNL     1       7.016   6.728  17.145  0.00  0.00    +0.000 A 
ATOM     31  C   UNL     1       6.297   6.521  15.972  0.00  0.00    +0.000 A 
ATOM     32  C   UNL     1       5.305   5.542  15.928  0.00  0.00    +0.000 A 
ATOM     33  C   UNL     1       5.032   4.753  17.054  0.00  0.00    +0.000 A 
ATOM     34  C   UNL     1       4.074   3.731  17.006  0.00  0.00    +0.000 A 
ENDBRANCH  24  25
ENDBRANCH  22  24
ENDBRANCH  21  22
ENDBRANCH  20  21
ENDBRANCH  19  20
ENDBRANCH  18  19
ENDBRANCH   1  18
TORSDOF 11
ENDMDL
MODEL 7
REMARK VINA RESULT:      -7.8      1.349      1.661
REMARK  Name = 
REMARK  11 active torsions:
REMARK  status: ('A' for Active; 'I' for Inactive)
REMARK    1  A    between atoms: S_2  and  N_4
REMARK    2  A    between atoms: S_2  and  C_23
REMARK    3  A    between atoms: N_4  and  C_5
REMARK    4  A    between atoms: C_5  and  C_6
REMARK    5  A    between atoms: C_6  and  C_7
REMARK    6  A    between atoms: C_7  and  C_8
REMARK    7  A    between atoms: C_8  and  C_9
REMARK    8  A    between atoms: C_9  and  C_10
REMARK    9  A    between atoms: C_10  and  N_11
REMARK   10  A    between atoms: N_11  and  C_12
REMARK   11  A    between atoms: C_12  and  C_13
REMARK                            x       y       z     vdW  Elec       q    Type
REMARK                         _______ _______ _______ _____ _____    ______ ____
ROOT
ATOM      1  C   UNL     1       1.744   5.015  18.279  0.00  0.00    +0.000 C 
ENDROOT
BRANCH   1   2
ATOM      2  C   UNL     1       1.518   3.881  19.269  0.00  0.00    +0.000 C 
BRANCH   2   3
ATOM      3  N   UNL     1       1.900   2.573  18.711  0.00  0.00    +0.000 NA
ATOM      4  H   UNL     1       1.262   1.822  18.972  0.00  0.00    +0.000 HD
BRANCH   3   6
ATOM      5  O   UNL     1       3.696   2.224  20.503  0.00  0.00    +0.000 OA
ATOM      6  S   UNL     1       3.511   2.143  19.083  0.00  0.00    +0.000 S 
ATOM      7  O   UNL     1       3.791   0.927  18.331  0.00  0.00    +0.000 OA
BRANCH   6   8
ATOM      8  C   UNL     1       4.451   3.463  18.332  0.00  0.00    +0.000 A 
ATOM      9  C   UNL     1       4.319   3.737  16.969  0.00  0.00    +0.000 A 
ATOM     10  C   UNL     1       5.150   4.693  16.375  0.00  0.00    +0.000 A 
ATOM     11  C   UNL     1       6.096   5.402  17.139  0.00  0.00    +0.000 A 
ATOM     12  C   UNL     1       6.931   6.372  16.557  0.00  0.00    +0.000 A 
ATOM     13  C   UNL     1       7.865   7.066  17.330  0.00  0.00    +0.000 A 
ATOM     14  C   UNL     1       7.987   6.788  18.687  0.00  0.00    +0.000 A 
ATOM     15  C   UNL     1       7.171   5.821  19.278  0.00  0.00    +0.000 A 
ATOM     16  C   UNL     1       6.214   5.128  18.521  0.00  0.00    +0.000 A 
ATOM     17  C   UNL     1       5.385   4.157  19.107  0.00  0.00    +0.000 A 
ENDBRANCH   6   8
ENDBRANCH   3   6
ENDBRANCH   2   3
ENDBRANCH   1   2
BRANCH   1  18
ATOM     18  C   UNL     1       2.281   6.251  19.008  0.00  0.00    +0.000 C 
BRANCH  18  19
ATOM     19  C   UNL     1       2.613   7.380  18.036  0.00  0.00    +0.000 C 
BRANCH  19  20
ATOM     20  C   UNL     1       1.709   8.585  18.257  0.00  0.00    +0.000 C 
BRANCH  20  21
ATOM     21  C   UNL     1       2.411   9.857  17.798  0.00  0.00    +0.000 C 
BRANCH  21  22
ATOM     22  N   UNL     1       1.571  11.010  18.095  0.00  0.00    +0.000 NA
ATOM     23  H   UNL     1       0.862  11.128  17.371  0.00  0.00    +0.000 HD
BRANCH  22  24
ATOM     24  C   UNL     1       0.910  10.838  19.387  0.00  0.00    +0.000 C 
BRANCH  24  25
ATOM     25  C   UNL     1      -0.562  11.131  19.275  0.00  0.00    +0.000 A 
ATOM     26  C   UNL     1      -1.242  11.812  20.293  0.00  0.00    +0.000 A 
ATOM     27  C   UNL     1      -2.585  12.157  20.133  0.00  0.00    +0.000 A 
ATOM     28  C   UNL     1      -3.271  11.832  18.954  0.00  0.00    +0.000 A 
ATOM     29  C   UNL     1      -4.603  12.225  18.748  0.00  0.00    +0.000 A 
ATOM     30  C   UNL     1      -5.263  11.905  17.560  0.00  0.00    +0.000 A 
ATOM     31  C   UNL     1      -4.610  11.174  16.571  0.00  0.00    +0.000 A 
ATOM     32  C   UNL     1      -3.289  10.771  16.764  0.00  0.00    +0.000 A 
ATOM     33  C   UNL     1      -2.606  11.105  17.941  0.00  0.00    +0.000 A 
ATOM     34  C   UNL     1      -1.262  10.751  18.123  0.00  0.00    +0.000 A 
ENDBRANCH  24  25
ENDBRANCH  22  24
ENDBRANCH  21  22
ENDBRANCH  20  21
ENDBRANCH  19  20
ENDBRANCH  18  19
ENDBRANCH   1  18
TORSDOF 11
ENDMDL
MODEL 8
REMARK VINA RESULT:      -7.7      5.521      8.838
REMARK  Name = 
REMARK  11 active torsions:
REMARK  status: ('A' for Active; 'I' for Inactive)
REMARK    1  A    between atoms: S_2  and  N_4
REMARK    2  A    between atoms: S_2  and  C_23
REMARK    3  A    between atoms: N_4  and  C_5
REMARK    4  A    between atoms: C_5  and  C_6
REMARK    5  A    between atoms: C_6  and  C_7
REMARK    6  A    between atoms: C_7  and  C_8
REMARK    7  A    between atoms: C_8  and  C_9
REMARK    8  A    between atoms: C_9  and  C_10
REMARK    9  A    between atoms: C_10  and  N_11
REMARK   10  A    between atoms: N_11  and  C_12
REMARK   11  A    between atoms: C_12  and  C_13
REMARK                            x       y       z     vdW  Elec       q    Type
REMARK                         _______ _______ _______ _____ _____    ______ ____
ROOT
ATOM      1  C   UNL     1       8.647   8.926  18.540  0.00  0.00    +0.000 C 
ENDROOT
BRANCH   1   2
ATOM      2  C   UNL     1       7.881   8.299  17.383  0.00  0.00    +0.000 C 
BRANCH   2   3
ATOM      3  N   UNL     1       6.771   7.451  17.847  0.00  0.00    +0.000 NA
ATOM      4  H   UNL     1       6.428   7.705  18.772  0.00  0.00    +0.000 HD
BRANCH   3   6
ATOM      5  O   UNL     1       7.642   5.469  16.479  0.00  0.00    +0.000 OA
ATOM      6  S   UNL     1       7.144   5.785  17.786  0.00  0.00    +0.000 S 
ATOM      7  O   UNL     1       7.899   5.493  18.997  0.00  0.00    +0.000 OA
BRANCH   6   8
ATOM      8  C   UNL     1       5.540   5.018  17.961  0.00  0.00    +0.000 A 
ATOM      9  C   UNL     1       4.993   4.277  16.910  0.00  0.00    +0.000 A 
ATOM     10  C   UNL     1       3.688   3.785  17.021  0.00  0.00    +0.000 A 
ATOM     11  C   UNL     1       2.931   4.003  18.187  0.00  0.00    +0.000 A 
ATOM     12  C   UNL     1       1.621   3.506  18.316  0.00  0.00    +0.000 A 
ATOM     13  C   UNL     1       0.884   3.732  19.479  0.00  0.00    +0.000 A 
ATOM     14  C   UNL     1       1.437   4.469  20.521  0.00  0.00    +0.000 A 
ATOM     15  C   UNL     1       2.734   4.977  20.406  0.00  0.00    +0.000 A 
ATOM     16  C   UNL     1       3.496   4.743  19.251  0.00  0.00    +0.000 A 
ATOM     17  C   UNL     1       4.803   5.244  19.127  0.00  0.00    +0.000 A 
ENDBRANCH   6   8
ENDBRANCH   3   6
ENDBRANCH   2   3
ENDBRANCH   1   2
BRANCH   1  18
ATOM     18  C   UNL     1       8.707  10.448  18.367  0.00  0.00    +0.000 C 
BRANCH  18  19
ATOM     19  C   UNL     1      10.098  10.912  17.941  0.00  0.00    +0.000 C 
BRANCH  19  20
ATOM     20  C   UNL     1      10.127  12.412  17.685  0.00  0.00    +0.000 C 
BRANCH  20  21
ATOM     21  C   UNL     1      11.310  13.044  18.409  0.00  0.00    +0.000 C 
BRANCH  21  22
ATOM     22  N   UNL     1      10.831  13.790  19.565  0.00  0.00    +0.000 NA
ATOM     23  H   UNL     1      11.475  14.550  19.789  0.00  0.00    +0.000 HD
BRANCH  22  24
ATOM     24  C   UNL     1       9.507  14.349  19.296  0.00  0.00    +0.000 C 
BRANCH  24  25
ATOM     25  C   UNL     1       8.587  14.124  20.466  0.00  0.00    +0.000 A 
ATOM     26  C   UNL     1       7.389  14.838  20.590  0.00  0.00    +0.000 A 
ATOM     27  C   UNL     1       6.504  14.552  21.630  0.00  0.00    +0.000 A 
ATOM     28  C   UNL     1       6.796  13.546  22.561  0.00  0.00    +0.000 A 
ATOM     29  C   UNL     1       5.890  13.199  23.576  0.00  0.00    +0.000 A 
ATOM     30  C   UNL     1       6.194  12.182  24.484  0.00  0.00    +0.000 A 
ATOM     31  C   UNL     1       7.411  11.511  24.402  0.00  0.00    +0.000 A 
ATOM     32  C   UNL     1       8.323  11.847  23.402  0.00  0.00    +0.000 A 
ATOM     33  C   UNL     1       8.023  12.850  22.470  0.00  0.00    +0.000 A 
ATOM     34  C   UNL     1       8.910  13.160  21.430  0.00  0.00    +0.000 A 
ENDBRANCH  24  25
ENDBRANCH  22  24
ENDBRANCH  21  22
ENDBRANCH  20  21
ENDBRANCH  19  20
ENDBRANCH  18  19
ENDBRANCH   1  18
TORSDOF 11
ENDMDL
MODEL 9
REMARK VINA RESULT:      -7.7      0.854      1.202
REMARK  Name = 
REMARK  11 active torsions:
REMARK  status: ('A' for Active; 'I' for Inactive)
REMARK    1  A    between atoms: S_2  and  N_4
REMARK    2  A    between atoms: S_2  and  C_23
REMARK    3  A    between atoms: N_4  and  C_5
REMARK    4  A    between atoms: C_5  and  C_6
REMARK    5  A    between atoms: C_6  and  C_7
REMARK    6  A    between atoms: C_7  and  C_8
REMARK    7  A    between atoms: C_8  and  C_9
REMARK    8  A    between atoms: C_9  and  C_10
REMARK    9  A    between atoms: C_10  and  N_11
REMARK   10  A    between atoms: N_11  and  C_12
REMARK   11  A    between atoms: C_12  and  C_13
REMARK                            x       y       z     vdW  Elec       q    Type
REMARK                         _______ _______ _______ _____ _____    ______ ____
ROOT
ATOM      1  C   UNL     1       2.155   4.833  21.079  0.00  0.00    +0.000 C 
ENDROOT
BRANCH   1   2
ATOM      2  C   UNL     1       1.600   3.478  20.660  0.00  0.00    +0.000 C 
BRANCH   2   3
ATOM      3  N   UNL     1       2.667   2.513  20.350  0.00  0.00    +0.000 NA
ATOM      4  H   UNL     1       3.548   2.723  20.815  0.00  0.00    +0.000 HD
BRANCH   3   6
ATOM      5  O   UNL     1       3.692   1.136  18.449  0.00  0.00    +0.000 OA
ATOM      6  S   UNL     1       2.911   2.318  18.670  0.00  0.00    +0.000 S 
ATOM      7  O   UNL     1       1.610   2.519  18.045  0.00  0.00    +0.000 OA
BRANCH   6   8
ATOM      8  C   UNL     1       3.924   3.730  18.256  0.00  0.00    +0.000 A 
ATOM      9  C   UNL     1       3.619   4.515  17.142  0.00  0.00    +0.000 A 
ATOM     10  C   UNL     1       4.491   5.543  16.765  0.00  0.00    +0.000 A 
ATOM     11  C   UNL     1       5.655   5.812  17.509  0.00  0.00    +0.000 A 
ATOM     12  C   UNL     1       6.535   6.848  17.147  0.00  0.00    +0.000 A 
ATOM     13  C   UNL     1       7.686   7.100  17.896  0.00  0.00    +0.000 A 
ATOM     14  C   UNL     1       7.980   6.314  19.005  0.00  0.00    +0.000 A 
ATOM     15  C   UNL     1       7.120   5.276  19.373  0.00  0.00    +0.000 A 
ATOM     16  C   UNL     1       5.950   5.020  18.643  0.00  0.00    +0.000 A 
ATOM     17  C   UNL     1       5.076   3.982  19.008  0.00  0.00    +0.000 A 
ENDBRANCH   6   8
ENDBRANCH   3   6
ENDBRANCH   2   3
ENDBRANCH   1   2
BRANCH   1  18
ATOM     18  C   UNL     1       1.271   5.957  20.528  0.00  0.00    +0.000 C 
BRANCH  18  19
ATOM     19  C   UNL     1       2.070   7.235  20.287  0.00  0.00    +0.000 C 
BRANCH  19  20
ATOM     20  C   UNL     1       1.435   8.426  20.993  0.00  0.00    +0.000 C 
BRANCH  20  21
ATOM     21  C   UNL     1       0.321   9.011  20.133  0.00  0.00    +0.000 C 
BRANCH  21  22
ATOM     22  N   UNL     1       0.893   9.916  19.146  0.00  0.00    +0.000 NA
ATOM     23  H   UNL     1       0.501   9.729  18.223  0.00  0.00    +0.000 HD
BRANCH  22  24
ATOM     24  C   UNL     1       0.617  11.305  19.509  0.00  0.00    +0.000 C 
BRANCH  24  25
ATOM     25  C   UNL     1      -0.866  11.565  19.527  0.00  0.00    +0.000 A 
ATOM     26  C   UNL     1      -1.484  12.139  20.645  0.00  0.00    +0.000 A 
ATOM     27  C   UNL     1      -2.843  12.459  20.610  0.00  0.00    +0.000 A 
ATOM     28  C   UNL     1      -3.605  12.216  19.459  0.00  0.00    +0.000 A 
ATOM     29  C   UNL     1      -4.957  12.588  19.381  0.00  0.00    +0.000 A 
ATOM     30  C   UNL     1      -5.694  12.351  18.220  0.00  0.00    +0.000 A 
ATOM     31  C   UNL     1      -5.099  11.725  17.128  0.00  0.00    +0.000 A 
ATOM     32  C   UNL     1      -3.759  11.344  17.192  0.00  0.00    +0.000 A 
ATOM     33  C   UNL     1      -3.000  11.596  18.343  0.00  0.00    +0.000 A 
ATOM     34  C   UNL     1      -1.639  11.265  18.398  0.00  0.00    +0.000 A 
ENDBRANCH  24  25
ENDBRANCH  22  24
ENDBRANCH  21  22
ENDBRANCH  20  21
ENDBRANCH  19  20
ENDBRANCH  18  19
ENDBRANCH   1  18
TORSDOF 11
ENDMDL
