MODEL 1
REMARK VINA RESULT:      -8.1      0.000      0.000
REMARK  Name = 
REMARK  8 active torsions:
REMARK  status: ('A' for Active; 'I' for Inactive)
REMARK    1  A    between atoms: C_2  and  C_20
REMARK    2  A    between atoms: N_3  and  C_4
REMARK    3  A    between atoms: C_4  and  C_5
REMARK    4  A    between atoms: C_9  and  O_10
REMARK    5  A    between atoms: O_10  and  C_11
REMARK    6  A    between atoms: C_11  and  C_12
REMARK    7  A    between atoms: C_12  and  C_13
REMARK    8  A    between atoms: C_23  and  O_24
REMARK                            x       y       z     vdW  Elec       q    Type
REMARK                         _______ _______ _______ _____ _____    ______ ____
ROOT
ATOM      1  C   UNL     1       4.543   6.142  17.806  0.00  0.00    +0.000 A 
ATOM      2  C   UNL     1       5.106   5.072  18.512  0.00  0.00    +0.000 A 
ATOM      3  C   UNL     1       6.488   4.995  18.693  0.00  0.00    +0.000 A 
ATOM      4  C   UNL     1       7.316   6.000  18.190  0.00  0.00    +0.000 A 
ATOM      5  C   UNL     1       6.768   7.095  17.521  0.00  0.00    +0.000 A 
ATOM      6  C   UNL     1       5.387   7.152  17.309  0.00  0.00    +0.000 A 
ENDROOT
BRANCH   1   7
ATOM      7  C   UNL     1       3.049   6.244  17.635  0.00  0.00    +0.000 C 
BRANCH   7  10
ATOM      8  O   UNL     1       2.129   8.896  17.448  0.00  0.00    +0.000 OA
ATOM      9  C   UNL     1       2.049   8.308  18.517  0.00  0.00    +0.000 C 
ATOM     10  N   UNL     1       2.462   7.007  18.710  0.00  0.00    +0.000 N 
ATOM     11  H   UNL     1       2.169   6.510  19.539  0.00  0.00    +0.000 HD
BRANCH   9  12
ATOM     12  C   UNL     1       1.462   8.978  19.708  0.00  0.00    +0.000 A 
ATOM     13  C   UNL     1       1.425   8.295  20.934  0.00  0.00    +0.000 A 
ATOM     14  C   UNL     1       0.848   8.900  22.055  0.00  0.00    +0.000 A 
ATOM     15  C   UNL     1       0.305  10.177  21.941  0.00  0.00    +0.000 A 
ATOM     16  C   UNL     1       0.331  10.861  20.731  0.00  0.00    +0.000 A 
ATOM     17  C   UNL     1       0.908  10.262  19.611  0.00  0.00    +0.000 A 
BRANCH  15  18
ATOM     18  O   UNL     1      -0.280  10.803  23.001  0.00  0.00    +0.000 OA
ATOM     19  H   UNL     1       0.142  11.669  23.126  0.00  0.00    +0.000 HD
ENDBRANCH  15  18
ENDBRANCH   9  12
ENDBRANCH   7  10
ENDBRANCH   1   7
BRANCH   5  20
ATOM     20  O   UNL     1       7.665   8.052  17.118  0.00  0.00    +0.000 OA
BRANCH  20  21
ATOM     21  C   UNL     1       8.295   8.783  18.178  0.00  0.00    +0.000 C 
BRANCH  21  22
ATOM     22  C   UNL     1       8.454  10.246  17.760  0.00  0.00    +0.000 C 
BRANCH  22  23
ATOM     23  C   UNL     1       9.600  10.909  18.486  0.00  0.00    +0.000 A 
ATOM     24  C   UNL     1       9.601  10.976  19.886  0.00  0.00    +0.000 A 
ATOM     25  C   UNL     1      10.629  11.633  20.565  0.00  0.00    +0.000 A 
ATOM     26  C   UNL     1      11.666  12.233  19.852  0.00  0.00    +0.000 A 
ATOM     27  C   UNL     1      11.680  12.168  18.462  0.00  0.00    +0.000 A 
ATOM     28  C   UNL     1      10.651  11.509  17.779  0.00  0.00    +0.000 A 
ENDBRANCH  22  23
ENDBRANCH  21  22
ENDBRANCH  20  21
ENDBRANCH   5  20
TORSDOF 8
ENDMDL
MODEL 2
REMARK VINA RESULT:      -8.1      3.394      5.509
REMARK  Name = 
REMARK  8 active torsions:
REMARK  status: ('A' for Active; 'I' for Inactive)
REMARK    1  A    between atoms: C_2  and  C_20
REMARK    2  A    between atoms: N_3  and  C_4
REMARK    3  A    between atoms: C_4  and  C_5
REMARK    4  A    between atoms: C_9  and  O_10
REMARK    5  A    between atoms: O_10  and  C_11
REMARK    6  A    between atoms: C_11  and  C_12
REMARK    7  A    between atoms: C_12  and  C_13
REMARK    8  A    between atoms: C_23  and  O_24
REMARK                            x       y       z     vdW  Elec       q    Type
REMARK                         _______ _______ _______ _____ _____    ______ ____
ROOT
ATOM      1  C   UNL     1       2.063   7.941  18.630  0.00  0.00    +0.000 A 
ATOM      2  C   UNL     1       1.934   7.646  19.994  0.00  0.00    +0.000 A 
ATOM      3  C   UNL     1       2.110   6.341  20.453  0.00  0.00    +0.000 A 
ATOM      4  C   UNL     1       2.439   5.322  19.556  0.00  0.00    +0.000 A 
ATOM      5  C   UNL     1       2.612   5.605  18.201  0.00  0.00    +0.000 A 
ATOM      6  C   UNL     1       2.400   6.908  17.738  0.00  0.00    +0.000 A 
ENDROOT
BRANCH   1   7
ATOM      7  C   UNL     1       1.904   9.355  18.135  0.00  0.00    +0.000 C 
BRANCH   7  10
ATOM      8  O   UNL     1       0.273  11.313  19.325  0.00  0.00    +0.000 OA
ATOM      9  C   UNL     1      -0.189  10.605  18.440  0.00  0.00    +0.000 C 
ATOM     10  N   UNL     1       0.530   9.625  17.789  0.00  0.00    +0.000 N 
ATOM     11  H   UNL     1       0.171   9.234  16.929  0.00  0.00    +0.000 HD
BRANCH   9  12
ATOM     12  C   UNL     1      -1.594  10.779  17.985  0.00  0.00    +0.000 A 
ATOM     13  C   UNL     1      -2.041  10.087  16.850  0.00  0.00    +0.000 A 
ATOM     14  C   UNL     1      -3.350  10.264  16.392  0.00  0.00    +0.000 A 
ATOM     15  C   UNL     1      -4.199  11.138  17.066  0.00  0.00    +0.000 A 
ATOM     16  C   UNL     1      -3.766  11.833  18.189  0.00  0.00    +0.000 A 
ATOM     17  C   UNL     1      -2.461  11.657  18.650  0.00  0.00    +0.000 A 
BRANCH  15  18
ATOM     18  O   UNL     1      -5.479  11.355  16.650  0.00  0.00    +0.000 OA
ATOM     19  H   UNL     1      -6.059  10.693  17.062  0.00  0.00    +0.000 HD
ENDBRANCH  15  18
ENDBRANCH   9  12
ENDBRANCH   7  10
ENDBRANCH   1   7
BRANCH   5  20
ATOM     20  O   UNL     1       2.989   4.543  17.418  0.00  0.00    +0.000 OA
BRANCH  20  21
ATOM     21  C   UNL     1       4.192   3.879  17.828  0.00  0.00    +0.000 C 
BRANCH  21  22
ATOM     22  C   UNL     1       5.302   4.172  16.817  0.00  0.00    +0.000 C 
BRANCH  22  23
ATOM     23  C   UNL     1       6.243   5.240  17.323  0.00  0.00    +0.000 A 
ATOM     24  C   UNL     1       7.088   4.976  18.408  0.00  0.00    +0.000 A 
ATOM     25  C   UNL     1       7.923   5.973  18.918  0.00  0.00    +0.000 A 
ATOM     26  C   UNL     1       7.921   7.244  18.349  0.00  0.00    +0.000 A 
ATOM     27  C   UNL     1       7.091   7.518  17.266  0.00  0.00    +0.000 A 
ATOM     28  C   UNL     1       6.253   6.521  16.753  0.00  0.00    +0.000 A 
ENDBRANCH  22  23
ENDBRANCH  21  22
ENDBRANCH  20  21
ENDBRANCH   5  20
TORSDOF 8
ENDMDL
MODEL 3
REMARK VINA RESULT:      -7.9      3.680      5.319
REMARK  Name = 
REMARK  8 active torsions:
REMARK  status: ('A' for Active; 'I' for Inactive)
REMARK    1  A    between atoms: C_2  and  C_20
REMARK    2  A    between atoms: N_3  and  C_4
REMARK    3  A    between atoms: C_4  and  C_5
REMARK    4  A    between atoms: C_9  and  O_10
REMARK    5  A    between atoms: O_10  and  C_11
REMARK    6  A    between atoms: C_11  and  C_12
REMARK    7  A    between atoms: C_12  and  C_13
REMARK    8  A    between atoms: C_23  and  O_24
REMARK                            x       y       z     vdW  Elec       q    Type
REMARK                         _______ _______ _______ _____ _____    ______ ____
ROOT
ATOM      1  C   UNL     1       2.120   6.477  19.591  0.00  0.00    +0.000 A 
ATOM      2  C   UNL     1       1.522   5.740  20.621  0.00  0.00    +0.000 A 
ATOM      3  C   UNL     1       1.301   4.371  20.472  0.00  0.00    +0.000 A 
ATOM      4  C   UNL     1       1.698   3.722  19.301  0.00  0.00    +0.000 A 
ATOM      5  C   UNL     1       2.334   4.432  18.282  0.00  0.00    +0.000 A 
ATOM      6  C   UNL     1       2.521   5.812  18.420  0.00  0.00    +0.000 A 
ENDROOT
BRANCH   1   7
ATOM      7  C   UNL     1       2.389   7.950  19.762  0.00  0.00    +0.000 C 
BRANCH   7  10
ATOM      8  O   UNL     1       1.628   9.431  17.494  0.00  0.00    +0.000 OA
ATOM      9  C   UNL     1       0.894   9.413  18.473  0.00  0.00    +0.000 C 
ATOM     10  N   UNL     1       1.171   8.712  19.626  0.00  0.00    +0.000 N 
ATOM     11  H   UNL     1       0.435   8.554  20.301  0.00  0.00    +0.000 HD
BRANCH   9  12
ATOM     12  C   UNL     1      -0.396  10.154  18.466  0.00  0.00    +0.000 A 
ATOM     13  C   UNL     1      -1.274   9.998  17.383  0.00  0.00    +0.000 A 
ATOM     14  C   UNL     1      -2.476  10.711  17.348  0.00  0.00    +0.000 A 
ATOM     15  C   UNL     1      -2.787  11.581  18.390  0.00  0.00    +0.000 A 
ATOM     16  C   UNL     1      -1.923  11.748  19.465  0.00  0.00    +0.000 A 
ATOM     17  C   UNL     1      -0.723  11.036  19.505  0.00  0.00    +0.000 A 
BRANCH  15  18
ATOM     18  O   UNL     1      -3.940  12.308  18.394  0.00  0.00    +0.000 OA
ATOM     19  H   UNL     1      -4.182  12.507  19.314  0.00  0.00    +0.000 HD
ENDBRANCH  15  18
ENDBRANCH   9  12
ENDBRANCH   7  10
ENDBRANCH   1   7
BRANCH   5  20
ATOM     20  O   UNL     1       2.732   3.688  17.201  0.00  0.00    +0.000 OA
BRANCH  20  21
ATOM     21  C   UNL     1       4.095   3.243  17.235  0.00  0.00    +0.000 C 
BRANCH  21  22
ATOM     22  C   UNL     1       4.935   4.111  16.296  0.00  0.00    +0.000 C 
BRANCH  22  23
ATOM     23  C   UNL     1       5.934   4.947  17.061  0.00  0.00    +0.000 A 
ATOM     24  C   UNL     1       6.222   4.649  18.399  0.00  0.00    +0.000 A 
ATOM     25  C   UNL     1       7.103   5.449  19.131  0.00  0.00    +0.000 A 
ATOM     26  C   UNL     1       7.703   6.555  18.534  0.00  0.00    +0.000 A 
ATOM     27  C   UNL     1       7.430   6.858  17.203  0.00  0.00    +0.000 A 
ATOM     28  C   UNL     1       6.547   6.059  16.467  0.00  0.00    +0.000 A 
ENDBRANCH  22  23
ENDBRANCH  21  22
ENDBRANCH  20  21
ENDBRANCH   5  20
TORSDOF 8
ENDMDL
MODEL 4
REMARK VINA RESULT:      -7.9      4.193      6.037
REMARK  Name = 
REMARK  8 active torsions:
REMARK  status: ('A' for Active; 'I' for Inactive)
REMARK    1  A    between atoms: C_2  and  C_20
REMARK    2  A    between atoms: N_3  and  C_4
REMARK    3  A    between atoms: C_4  and  C_5
REMARK    4  A    between atoms: C_9  and  O_10
REMARK    5  A    between atoms: O_10  and  C_11
REMARK    6  A    between atoms: C_11  and  C_12
REMARK    7  A    between atoms: C_12  and  C_13
REMARK    8  A    between atoms: C_23  and  O_24
REMARK                            x       y       z     vdW  Elec       q    Type
REMARK                         _______ _______ _______ _____ _____    ______ ____
ROOT
ATOM      1  C   UNL     1       2.187   6.840  18.754  0.00  0.00    +0.000 A 
ATOM      2  C   UNL     1       2.249   6.664  20.142  0.00  0.00    +0.000 A 
ATOM      3  C   UNL     1       2.054   5.401  20.703  0.00  0.00    +0.000 A 
ATOM      4  C   UNL     1       1.818   4.299  19.879  0.00  0.00    +0.000 A 
ATOM      5  C   UNL     1       1.795   4.448  18.492  0.00  0.00    +0.000 A 
ATOM      6  C   UNL     1       1.955   5.721  17.934  0.00  0.00    +0.000 A 
ENDROOT
BRANCH   1   7
ATOM      7  C   UNL     1       2.428   8.196  18.143  0.00  0.00    +0.000 C 
BRANCH   7  10
ATOM      8  O   UNL     1       1.078   9.954  19.875  0.00  0.00    +0.000 OA
ATOM      9  C   UNL     1       0.592   9.698  18.782  0.00  0.00    +0.000 C 
ATOM     10  N   UNL     1       1.179   8.859  17.860  0.00  0.00    +0.000 N 
ATOM     11  H   UNL     1       0.851   8.864  16.904  0.00  0.00    +0.000 HD
BRANCH   9  12
ATOM     12  C   UNL     1      -0.694  10.317  18.361  0.00  0.00    +0.000 A 
ATOM     13  C   UNL     1      -1.384   9.787  17.261  0.00  0.00    +0.000 A 
ATOM     14  C   UNL     1      -2.578  10.376  16.834  0.00  0.00    +0.000 A 
ATOM     15  C   UNL     1      -3.068  11.494  17.504  0.00  0.00    +0.000 A 
ATOM     16  C   UNL     1      -2.390  12.031  18.592  0.00  0.00    +0.000 A 
ATOM     17  C   UNL     1      -1.199  11.445  19.022  0.00  0.00    +0.000 A 
BRANCH  15  18
ATOM     18  O   UNL     1      -4.220  12.112  17.118  0.00  0.00    +0.000 OA
ATOM     19  H   UNL     1      -4.788  11.464  16.668  0.00  0.00    +0.000 HD
ENDBRANCH  15  18
ENDBRANCH   9  12
ENDBRANCH   7  10
ENDBRANCH   1   7
BRANCH   5  20
ATOM     20  O   UNL     1       1.613   3.293  17.775  0.00  0.00    +0.000 OA
BRANCH  20  21
ATOM     21  C   UNL     1       2.695   2.936  16.906  0.00  0.00    +0.000 C 
BRANCH  21  22
ATOM     22  C   UNL     1       3.975   2.776  17.729  0.00  0.00    +0.000 C 
BRANCH  22  23
ATOM     23  C   UNL     1       4.870   3.985  17.602  0.00  0.00    +0.000 A 
ATOM     24  C   UNL     1       5.527   4.496  18.730  0.00  0.00    +0.000 A 
ATOM     25  C   UNL     1       6.314   5.645  18.634  0.00  0.00    +0.000 A 
ATOM     26  C   UNL     1       6.451   6.298  17.410  0.00  0.00    +0.000 A 
ATOM     27  C   UNL     1       5.810   5.797  16.281  0.00  0.00    +0.000 A 
ATOM     28  C   UNL     1       5.020   4.645  16.375  0.00  0.00    +0.000 A 
ENDBRANCH  22  23
ENDBRANCH  21  22
ENDBRANCH  20  21
ENDBRANCH   5  20
TORSDOF 8
ENDMDL
MODEL 5
REMARK VINA RESULT:      -7.8      4.849      7.118
REMARK  Name = 
REMARK  8 active torsions:
REMARK  status: ('A' for Active; 'I' for Inactive)
REMARK    1  A    between atoms: C_2  and  C_20
REMARK    2  A    between atoms: N_3  and  C_4
REMARK    3  A    between atoms: C_4  and  C_5
REMARK    4  A    between atoms: C_9  and  O_10
REMARK    5  A    between atoms: O_10  and  C_11
REMARK    6  A    between atoms: C_11  and  C_12
REMARK    7  A    between atoms: C_12  and  C_13
REMARK    8  A    between atoms: C_23  and  O_24
REMARK                            x       y       z     vdW  Elec       q    Type
REMARK                         _______ _______ _______ _____ _____    ______ ____
ROOT
ATOM      1  C   UNL     1       2.371   7.155  19.582  0.00  0.00    +0.000 A 
ATOM      2  C   UNL     1       2.305   8.138  18.586  0.00  0.00    +0.000 A 
ATOM      3  C   UNL     1       3.037   7.996  17.407  0.00  0.00    +0.000 A 
ATOM      4  C   UNL     1       3.822   6.860  17.202  0.00  0.00    +0.000 A 
ATOM      5  C   UNL     1       3.865   5.851  18.165  0.00  0.00    +0.000 A 
ATOM      6  C   UNL     1       3.160   6.012  19.362  0.00  0.00    +0.000 A 
ENDROOT
BRANCH   1   7
ATOM      7  C   UNL     1       1.558   7.289  20.844  0.00  0.00    +0.000 C 
BRANCH   7  10
ATOM      8  O   UNL     1      -0.849   8.207  21.973  0.00  0.00    +0.000 OA
ATOM      9  C   UNL     1       0.005   9.017  21.642  0.00  0.00    +0.000 C 
ATOM     10  N   UNL     1       1.219   8.669  21.090  0.00  0.00    +0.000 N 
ATOM     11  H   UNL     1       1.961   9.355  21.047  0.00  0.00    +0.000 HD
BRANCH   9  12
ATOM     12  C   UNL     1      -0.215  10.475  21.842  0.00  0.00    +0.000 A 
ATOM     13  C   UNL     1       0.476  11.392  21.036  0.00  0.00    +0.000 A 
ATOM     14  C   UNL     1       0.303  12.766  21.233  0.00  0.00    +0.000 A 
ATOM     15  C   UNL     1      -0.552  13.211  22.238  0.00  0.00    +0.000 A 
ATOM     16  C   UNL     1      -1.237  12.312  23.046  0.00  0.00    +0.000 A 
ATOM     17  C   UNL     1      -1.069  10.941  22.851  0.00  0.00    +0.000 A 
BRANCH  15  18
ATOM     18  O   UNL     1      -0.743  14.540  22.477  0.00  0.00    +0.000 OA
ATOM     19  H   UNL     1      -0.458  14.739  23.385  0.00  0.00    +0.000 HD
ENDBRANCH  15  18
ENDBRANCH   9  12
ENDBRANCH   7  10
ENDBRANCH   1   7
BRANCH   5  20
ATOM     20  O   UNL     1       4.622   4.755  17.839  0.00  0.00    +0.000 OA
BRANCH  20  21
ATOM     21  C   UNL     1       3.950   3.760  17.055  0.00  0.00    +0.000 C 
BRANCH  21  22
ATOM     22  C   UNL     1       3.841   2.466  17.862  0.00  0.00    +0.000 C 
BRANCH  22  23
ATOM     23  C   UNL     1       2.941   2.636  19.063  0.00  0.00    +0.000 A 
ATOM     24  C   UNL     1       3.468   2.537  20.357  0.00  0.00    +0.000 A 
ATOM     25  C   UNL     1       2.635   2.638  21.473  0.00  0.00    +0.000 A 
ATOM     26  C   UNL     1       1.266   2.838  21.308  0.00  0.00    +0.000 A 
ATOM     27  C   UNL     1       0.730   2.945  20.027  0.00  0.00    +0.000 A 
ATOM     28  C   UNL     1       1.563   2.843  18.907  0.00  0.00    +0.000 A 
ENDBRANCH  22  23
ENDBRANCH  21  22
ENDBRANCH  20  21
ENDBRANCH   5  20
TORSDOF 8
ENDMDL
MODEL 6
REMARK VINA RESULT:      -7.8      3.333      5.121
REMARK  Name = 
REMARK  8 active torsions:
REMARK  status: ('A' for Active; 'I' for Inactive)
REMARK    1  A    between atoms: C_2  and  C_20
REMARK    2  A    between atoms: N_3  and  C_4
REMARK    3  A    between atoms: C_4  and  C_5
REMARK    4  A    between atoms: C_9  and  O_10
REMARK    5  A    between atoms: O_10  and  C_11
REMARK    6  A    between atoms: C_11  and  C_12
REMARK    7  A    between atoms: C_12  and  C_13
REMARK    8  A    between atoms: C_23  and  O_24
REMARK                            x       y       z     vdW  Elec       q    Type
REMARK                         _______ _______ _______ _____ _____    ______ ____
ROOT
ATOM      1  C   UNL     1       1.728   4.850  20.078  0.00  0.00    +0.000 A 
ATOM      2  C   UNL     1       0.918   3.730  20.310  0.00  0.00    +0.000 A 
ATOM      3  C   UNL     1       0.853   2.701  19.371  0.00  0.00    +0.000 A 
ATOM      4  C   UNL     1       1.615   2.769  18.203  0.00  0.00    +0.000 A 
ATOM      5  C   UNL     1       2.460   3.856  17.976  0.00  0.00    +0.000 A 
ATOM      6  C   UNL     1       2.496   4.904  18.901  0.00  0.00    +0.000 A 
ENDROOT
BRANCH   1   7
ATOM      7  C   UNL     1       1.824   5.949  21.104  0.00  0.00    +0.000 C 
BRANCH   7  10
ATOM      8  O   UNL     1       0.033   8.082  21.498  0.00  0.00    +0.000 OA
ATOM      9  C   UNL     1       0.966   8.219  20.719  0.00  0.00    +0.000 C 
ATOM     10  N   UNL     1       1.902   7.240  20.464  0.00  0.00    +0.000 N 
ATOM     11  H   UNL     1       2.762   7.485  19.993  0.00  0.00    +0.000 HD
BRANCH   9  12
ATOM     12  C   UNL     1       1.165   9.502  19.994  0.00  0.00    +0.000 A 
ATOM     13  C   UNL     1       0.841  10.710  20.631  0.00  0.00    +0.000 A 
ATOM     14  C   UNL     1       0.993  11.922  19.951  0.00  0.00    +0.000 A 
ATOM     15  C   UNL     1       1.460  11.918  18.639  0.00  0.00    +0.000 A 
ATOM     16  C   UNL     1       1.779  10.728  17.996  0.00  0.00    +0.000 A 
ATOM     17  C   UNL     1       1.630   9.516  18.672  0.00  0.00    +0.000 A 
BRANCH  15  18
ATOM     18  O   UNL     1       1.612  13.073  17.930  0.00  0.00    +0.000 OA
ATOM     19  H   UNL     1       1.481  12.881  16.986  0.00  0.00    +0.000 HD
ENDBRANCH  15  18
ENDBRANCH   9  12
ENDBRANCH   7  10
ENDBRANCH   1   7
BRANCH   5  20
ATOM     20  O   UNL     1       3.205   3.796  16.826  0.00  0.00    +0.000 OA
BRANCH  20  21
ATOM     21  C   UNL     1       4.601   3.530  17.016  0.00  0.00    +0.000 C 
BRANCH  21  22
ATOM     22  C   UNL     1       5.422   4.466  16.128  0.00  0.00    +0.000 C 
BRANCH  22  23
ATOM     23  C   UNL     1       6.355   5.328  16.945  0.00  0.00    +0.000 A 
ATOM     24  C   UNL     1       7.103   4.763  17.986  0.00  0.00    +0.000 A 
ATOM     25  C   UNL     1       7.928   5.561  18.783  0.00  0.00    +0.000 A 
ATOM     26  C   UNL     1       8.012   6.931  18.547  0.00  0.00    +0.000 A 
ATOM     27  C   UNL     1       7.279   7.504  17.512  0.00  0.00    +0.000 A 
ATOM     28  C   UNL     1       6.452   6.706  16.712  0.00  0.00    +0.000 A 
ENDBRANCH  22  23
ENDBRANCH  21  22
ENDBRANCH  20  21
ENDBRANCH   5  20
TORSDOF 8
ENDMDL
MODEL 7
REMARK VINA RESULT:      -7.8      4.108      5.969
REMARK  Name = 
REMARK  8 active torsions:
REMARK  status: ('A' for Active; 'I' for Inactive)
REMARK    1  A    between atoms: C_2  and  C_20
REMARK    2  A    between atoms: N_3  and  C_4
REMARK    3  A    between atoms: C_4  and  C_5
REMARK    4  A    between atoms: C_9  and  O_10
REMARK    5  A    between atoms: O_10  and  C_11
REMARK    6  A    between atoms: C_11  and  C_12
REMARK    7  A    between atoms: C_12  and  C_13
REMARK    8  A    between atoms: C_23  and  O_24
REMARK                            x       y       z     vdW  Elec       q    Type
REMARK                         _______ _______ _______ _____ _____    ______ ____
ROOT
ATOM      1  C   UNL     1       2.168   7.043  18.766  0.00  0.00    +0.000 A 
ATOM      2  C   UNL     1       2.125   6.929  20.162  0.00  0.00    +0.000 A 
ATOM      3  C   UNL     1       1.977   5.678  20.762  0.00  0.00    +0.000 A 
ATOM      4  C   UNL     1       1.894   4.529  19.974  0.00  0.00    +0.000 A 
ATOM      5  C   UNL     1       1.978   4.620  18.584  0.00  0.00    +0.000 A 
ATOM      6  C   UNL     1       2.090   5.878  17.983  0.00  0.00    +0.000 A 
ENDROOT
BRANCH   1   7
ATOM      7  C   UNL     1       2.359   8.388  18.115  0.00  0.00    +0.000 C 
BRANCH   7  10
ATOM      8  O   UNL     1       1.088  10.210  19.842  0.00  0.00    +0.000 OA
ATOM      9  C   UNL     1       0.544   9.900  18.791  0.00  0.00    +0.000 C 
ATOM     10  N   UNL     1       1.087   9.026  17.874  0.00  0.00    +0.000 N 
ATOM     11  H   UNL     1       0.705   8.984  16.940  0.00  0.00    +0.000 HD
BRANCH   9  12
ATOM     12  C   UNL     1      -0.771  10.487  18.417  0.00  0.00    +0.000 A 
ATOM     13  C   UNL     1      -1.311  11.519  19.199  0.00  0.00    +0.000 A 
ATOM     14  C   UNL     1      -2.560  12.060  18.879  0.00  0.00    +0.000 A 
ATOM     15  C   UNL     1      -3.263  11.558  17.786  0.00  0.00    +0.000 A 
ATOM     16  C   UNL     1      -2.741  10.533  17.007  0.00  0.00    +0.000 A 
ATOM     17  C   UNL     1      -1.494   9.992  17.323  0.00  0.00    +0.000 A 
BRANCH  15  18
ATOM     18  O   UNL     1      -4.490  12.043  17.442  0.00  0.00    +0.000 OA
ATOM     19  H   UNL     1      -4.424  12.480  16.576  0.00  0.00    +0.000 HD
ENDBRANCH  15  18
ENDBRANCH   9  12
ENDBRANCH   7  10
ENDBRANCH   1   7
BRANCH   5  20
ATOM     20  O   UNL     1       1.943   3.426  17.910  0.00  0.00    +0.000 OA
BRANCH  20  21
ATOM     21  C   UNL     1       2.971   3.250  16.926  0.00  0.00    +0.000 C 
BRANCH  21  22
ATOM     22  C   UNL     1       4.302   2.977  17.629  0.00  0.00    +0.000 C 
BRANCH  22  23
ATOM     23  C   UNL     1       5.281   4.109  17.420  0.00  0.00    +0.000 A 
ATOM     24  C   UNL     1       5.855   4.318  16.159  0.00  0.00    +0.000 A 
ATOM     25  C   UNL     1       6.802   5.327  15.968  0.00  0.00    +0.000 A 
ATOM     26  C   UNL     1       7.185   6.137  17.036  0.00  0.00    +0.000 A 
ATOM     27  C   UNL     1       6.617   5.944  18.292  0.00  0.00    +0.000 A 
ATOM     28  C   UNL     1       5.668   4.933  18.486  0.00  0.00    +0.000 A 
ENDBRANCH  22  23
ENDBRANCH  21  22
ENDBRANCH  20  21
ENDBRANCH   5  20
TORSDOF 8
ENDMDL
MODEL 8
REMARK VINA RESULT:      -7.7      3.700      5.602
REMARK  Name = 
REMARK  8 active torsions:
REMARK  status: ('A' for Active; 'I' for Inactive)
REMARK    1  A    between atoms: C_2  and  C_20
REMARK    2  A    between atoms: N_3  and  C_4
REMARK    3  A    between atoms: C_4  and  C_5
REMARK    4  A    between atoms: C_9  and  O_10
REMARK    5  A    between atoms: O_10  and  C_11
REMARK    6  A    between atoms: C_11  and  C_12
REMARK    7  A    between atoms: C_12  and  C_13
REMARK    8  A    between atoms: C_23  and  O_24
REMARK                            x       y       z     vdW  Elec       q    Type
REMARK                         _______ _______ _______ _____ _____    ______ ____
ROOT
ATOM      1  C   UNL     1       2.196   7.117  18.785  0.00  0.00    +0.000 A 
ATOM      2  C   UNL     1       1.978   6.992  20.164  0.00  0.00    +0.000 A 
ATOM      3  C   UNL     1       1.895   5.730  20.753  0.00  0.00    +0.000 A 
ATOM      4  C   UNL     1       2.053   4.582  19.974  0.00  0.00    +0.000 A 
ATOM      5  C   UNL     1       2.313   4.689  18.607  0.00  0.00    +0.000 A 
ATOM      6  C   UNL     1       2.360   5.954  18.012  0.00  0.00    +0.000 A 
ENDROOT
BRANCH   1   7
ATOM      7  C   UNL     1       2.318   8.478  18.151  0.00  0.00    +0.000 C 
BRANCH   7  10
ATOM      8  O   UNL     1       1.084  10.371  19.826  0.00  0.00    +0.000 OA
ATOM      9  C   UNL     1       0.495   9.979  18.829  0.00  0.00    +0.000 C 
ATOM     10  N   UNL     1       1.016   9.063  17.941  0.00  0.00    +0.000 N 
ATOM     11  H   UNL     1       0.586   8.950  17.033  0.00  0.00    +0.000 HD
BRANCH   9  12
ATOM     12  C   UNL     1      -0.856  10.503  18.492  0.00  0.00    +0.000 A 
ATOM     13  C   UNL     1      -1.496  10.056  17.326  0.00  0.00    +0.000 A 
ATOM     14  C   UNL     1      -2.753  10.562  16.980  0.00  0.00    +0.000 A 
ATOM     15  C   UNL     1      -3.355  11.516  17.796  0.00  0.00    +0.000 A 
ATOM     16  C   UNL     1      -2.728  11.971  18.950  0.00  0.00    +0.000 A 
ATOM     17  C   UNL     1      -1.476  11.467  19.299  0.00  0.00    +0.000 A 
BRANCH  15  18
ATOM     18  O   UNL     1      -4.573  12.050  17.493  0.00  0.00    +0.000 OA
ATOM     19  H   UNL     1      -5.256  11.582  18.003  0.00  0.00    +0.000 HD
ENDBRANCH  15  18
ENDBRANCH   9  12
ENDBRANCH   7  10
ENDBRANCH   1   7
BRANCH   5  20
ATOM     20  O   UNL     1       2.506   3.502  17.947  0.00  0.00    +0.000 OA
BRANCH  20  21
ATOM     21  C   UNL     1       3.817   3.317  17.396  0.00  0.00    +0.000 C 
BRANCH  21  22
ATOM     22  C   UNL     1       4.863   3.543  18.489  0.00  0.00    +0.000 C 
BRANCH  22  23
ATOM     23  C   UNL     1       5.776   4.698  18.152  0.00  0.00    +0.000 A 
ATOM     24  C   UNL     1       5.787   5.231  16.856  0.00  0.00    +0.000 A 
ATOM     25  C   UNL     1       6.665   6.263  16.520  0.00  0.00    +0.000 A 
ATOM     26  C   UNL     1       7.543   6.773  17.474  0.00  0.00    +0.000 A 
ATOM     27  C   UNL     1       7.537   6.257  18.767  0.00  0.00    +0.000 A 
ATOM     28  C   UNL     1       6.658   5.222  19.107  0.00  0.00    +0.000 A 
ENDBRANCH  22  23
ENDBRANCH  21  22
ENDBRANCH  20  21
ENDBRANCH   5  20
TORSDOF 8
ENDMDL
MODEL 9
REMARK VINA RESULT:      -7.7      3.541      5.249
REMARK  Name = 
REMARK  8 active torsions:
REMARK  status: ('A' for Active; 'I' for Inactive)
REMARK    1  A    between atoms: C_2  and  C_20
REMARK    2  A    between atoms: N_3  and  C_4
REMARK    3  A    between atoms: C_4  and  C_5
REMARK    4  A    between atoms: C_9  and  O_10
REMARK    5  A    between atoms: O_10  and  C_11
REMARK    6  A    between atoms: C_11  and  C_12
REMARK    7  A    between atoms: C_12  and  C_13
REMARK    8  A    between atoms: C_23  and  O_24
REMARK                            x       y       z     vdW  Elec       q    Type
REMARK                         _______ _______ _______ _____ _____    ______ ____
ROOT
ATOM      1  C   UNL     1       2.103   5.691  19.801  0.00  0.00    +0.000 A 
ATOM      2  C   UNL     1       1.204   4.872  20.496  0.00  0.00    +0.000 A 
ATOM      3  C   UNL     1       0.857   3.618  19.991  0.00  0.00    +0.000 A 
ATOM      4  C   UNL     1       1.424   3.163  18.798  0.00  0.00    +0.000 A 
ATOM      5  C   UNL     1       2.353   3.948  18.115  0.00  0.00    +0.000 A 
ATOM      6  C   UNL     1       2.672   5.219  18.605  0.00  0.00    +0.000 A 
ENDROOT
BRANCH   1   7
ATOM      7  C   UNL     1       2.504   7.032  20.359  0.00  0.00    +0.000 C 
BRANCH   7  10
ATOM      8  O   UNL     1       1.308   8.886  22.103  0.00  0.00    +0.000 OA
ATOM      9  C   UNL     1       1.017   8.907  20.915  0.00  0.00    +0.000 C 
ATOM     10  N   UNL     1       1.554   8.049  19.979  0.00  0.00    +0.000 N 
ATOM     11  H   UNL     1       1.449   8.257  18.996  0.00  0.00    +0.000 HD
BRANCH   9  12
ATOM     12  C   UNL     1       0.050   9.908  20.388  0.00  0.00    +0.000 A 
ATOM     13  C   UNL     1      -0.247   9.922  19.017  0.00  0.00    +0.000 A 
ATOM     14  C   UNL     1      -1.130  10.876  18.502  0.00  0.00    +0.000 A 
ATOM     15  C   UNL     1      -1.702  11.813  19.360  0.00  0.00    +0.000 A 
ATOM     16  C   UNL     1      -1.411  11.812  20.719  0.00  0.00    +0.000 A 
ATOM     17  C   UNL     1      -0.532  10.860  21.236  0.00  0.00    +0.000 A 
BRANCH  15  18
ATOM     18  O   UNL     1      -2.558  12.771  18.903  0.00  0.00    +0.000 OA
ATOM     19  H   UNL     1      -2.300  13.017  17.999  0.00  0.00    +0.000 HD
ENDBRANCH  15  18
ENDBRANCH   9  12
ENDBRANCH   7  10
ENDBRANCH   1   7
BRANCH   5  20
ATOM     20  O   UNL     1       2.890   3.382  16.987  0.00  0.00    +0.000 OA
BRANCH  20  21
ATOM     21  C   UNL     1       4.315   3.224  17.002  0.00  0.00    +0.000 C 
BRANCH  21  22
ATOM     22  C   UNL     1       4.950   4.259  16.072  0.00  0.00    +0.000 C 
BRANCH  22  23
ATOM     23  C   UNL     1       5.938   5.133  16.808  0.00  0.00    +0.000 A 
ATOM     24  C   UNL     1       6.818   4.568  17.739  0.00  0.00    +0.000 A 
ATOM     25  C   UNL     1       7.698   5.374  18.465  0.00  0.00    +0.000 A 
ATOM     26  C   UNL     1       7.706   6.753  18.269  0.00  0.00    +0.000 A 
ATOM     27  C   UNL     1       6.840   7.326  17.342  0.00  0.00    +0.000 A 
ATOM     28  C   UNL     1       5.957   6.521  16.613  0.00  0.00    +0.000 A 
ENDBRANCH  22  23
ENDBRANCH  21  22
ENDBRANCH  20  21
ENDBRANCH   5  20
TORSDOF 8
ENDMDL
