MODEL 1
REMARK VINA RESULT:      -9.5      0.000      0.000
REMARK  Name = 
REMARK  6 active torsions:
REMARK  status: ('A' for Active; 'I' for Inactive)
REMARK    1  A    between atoms: C_1  and  C_2
REMARK    2  A    between atoms: N_11  and  C_12
REMARK    3  A    between atoms: C_12  and  C_13
REMARK    4  A    between atoms: N_15  and  C_16
REMARK    5  A    between atoms: C_16  and  C_17
REMARK    6  A    between atoms: C_17  and  C_18
REMARK                            x       y       z     vdW  Elec       q    Type
REMARK                         _______ _______ _______ _____ _____    ______ ____
ROOT
ATOM      1  C   UNL     1       2.487   5.559  20.452  0.00  0.00    +0.000 C 
ATOM      2  C   UNL     1       2.161   4.490  19.408  0.00  0.00    +0.000 C 
ATOM      3  C   UNL     1       1.994   3.113  20.076  0.00  0.00    +0.000 C 
ATOM      4  C   UNL     1       1.658   2.013  19.070  0.00  0.00    +0.000 C 
ATOM      5  C   UNL     1       2.647   1.964  17.914  0.00  0.00    +0.000 C 
ATOM      6  C   UNL     1       2.792   3.328  17.244  0.00  0.00    +0.000 C 
ATOM      7  C   UNL     1       3.172   4.438  18.251  0.00  0.00    +0.000 C 
ATOM      8  N   UNL     1       3.322   5.695  17.537  0.00  0.00    +0.000 N 
ATOM      9  C   UNL     1       4.627   5.894  17.133  0.00  0.00    +0.000 C 
ATOM     10  O   UNL     1       5.007   6.798  16.410  0.00  0.00    +0.000 OA
ATOM     11  N   UNL     1       5.400   4.943  17.723  0.00  0.00    +0.000 N 
ATOM     12  C   UNL     1       4.658   4.245  18.635  0.00  0.00    +0.000 C 
ATOM     13  O   UNL     1       5.091   3.505  19.504  0.00  0.00    +0.000 OA
ATOM     14  H   UNL     1       2.572   6.279  17.193  0.00  0.00    +0.000 HD
ENDROOT
BRANCH  11  15
ATOM     15  C   UNL     1       6.819   4.792  17.503  0.00  0.00    +0.000 C 
BRANCH  15  16
ATOM     16  C   UNL     1       7.593   5.776  18.359  0.00  0.00    +0.000 C 
ATOM     17  O   UNL     1       7.945   5.503  19.508  0.00  0.00    +0.000 OA
ATOM     18  N   UNL     1       7.816   7.017  17.786  0.00  0.00    +0.000 N 
ATOM     19  H   UNL     1       7.169   7.299  17.049  0.00  0.00    +0.000 HD
BRANCH  18  20
ATOM     20  C   UNL     1       8.434   8.042  18.609  0.00  0.00    +0.000 C 
BRANCH  20  21
ATOM     21  C   UNL     1       8.228   9.470  18.105  0.00  0.00    +0.000 C 
BRANCH  21  22
ATOM     22  C   UNL     1       9.276  10.418  18.652  0.00  0.00    +0.000 A 
ATOM     23  C   UNL     1       9.329  10.691  20.027  0.00  0.00    +0.000 A 
ATOM     24  C   UNL     1      10.287  11.568  20.543  0.00  0.00    +0.000 A 
ATOM     25  C   UNL     1      11.192  12.176  19.679  0.00  0.00    +0.000 A 
ATOM     26  F   UNL     1      12.113  13.015  20.178  0.00  0.00    +0.000 F 
ATOM     27  C   UNL     1      11.153  11.931  18.319  0.00  0.00    +0.000 A 
ATOM     28  C   UNL     1      10.191  11.055  17.796  0.00  0.00    +0.000 A 
ENDBRANCH  21  22
ENDBRANCH  20  21
ENDBRANCH  18  20
ENDBRANCH  15  16
ENDBRANCH  11  15
TORSDOF 5
ENDMDL
MODEL 2
REMARK VINA RESULT:      -8.4      1.695      1.945
REMARK  Name = 
REMARK  6 active torsions:
REMARK  status: ('A' for Active; 'I' for Inactive)
REMARK    1  A    between atoms: C_1  and  C_2
REMARK    2  A    between atoms: N_11  and  C_12
REMARK    3  A    between atoms: C_12  and  C_13
REMARK    4  A    between atoms: N_15  and  C_16
REMARK    5  A    between atoms: C_16  and  C_17
REMARK    6  A    between atoms: C_17  and  C_18
REMARK                            x       y       z     vdW  Elec       q    Type
REMARK                         _______ _______ _______ _____ _____    ______ ____
ROOT
ATOM      1  C   UNL     1       2.046   5.868  18.109  0.00  0.00    +0.000 C 
ATOM      2  C   UNL     1       2.274   4.507  18.768  0.00  0.00    +0.000 C 
ATOM      3  C   UNL     1       2.090   4.605  20.294  0.00  0.00    +0.000 C 
ATOM      4  C   UNL     1       2.299   3.264  20.994  0.00  0.00    +0.000 C 
ATOM      5  C   UNL     1       3.628   2.620  20.626  0.00  0.00    +0.000 C 
ATOM      6  C   UNL     1       3.795   2.507  19.113  0.00  0.00    +0.000 C 
ATOM      7  C   UNL     1       3.624   3.870  18.402  0.00  0.00    +0.000 C 
ATOM      8  N   UNL     1       3.827   3.688  16.975  0.00  0.00    +0.000 N 
ATOM      9  C   UNL     1       5.146   3.896  16.621  0.00  0.00    +0.000 C 
ATOM     10  O   UNL     1       5.617   3.687  15.518  0.00  0.00    +0.000 OA
ATOM     11  N   UNL     1       5.793   4.416  17.697  0.00  0.00    +0.000 N 
ATOM     12  C   UNL     1       4.890   4.715  18.680  0.00  0.00    +0.000 C 
ATOM     13  O   UNL     1       5.093   5.413  19.661  0.00  0.00    +0.000 OA
ATOM     14  H   UNL     1       3.169   3.279  16.325  0.00  0.00    +0.000 HD
ENDROOT
BRANCH  11  15
ATOM     15  C   UNL     1       7.204   4.723  17.734  0.00  0.00    +0.000 C 
BRANCH  15  16
ATOM     16  C   UNL     1       7.444   6.155  17.296  0.00  0.00    +0.000 C 
ATOM     17  O   UNL     1       7.632   6.452  16.116  0.00  0.00    +0.000 OA
ATOM     18  N   UNL     1       7.503   7.088  18.318  0.00  0.00    +0.000 N 
ATOM     19  H   UNL     1       7.748   6.733  19.243  0.00  0.00    +0.000 HD
BRANCH  18  20
ATOM     20  C   UNL     1       7.863   8.452  17.970  0.00  0.00    +0.000 C 
BRANCH  20  21
ATOM     21  C   UNL     1       9.141   8.960  18.637  0.00  0.00    +0.000 C 
BRANCH  21  22
ATOM     22  C   UNL     1       9.098  10.458  18.869  0.00  0.00    +0.000 A 
ATOM     23  C   UNL     1       9.308  10.977  20.154  0.00  0.00    +0.000 A 
ATOM     24  C   UNL     1       9.264  12.355  20.382  0.00  0.00    +0.000 A 
ATOM     25  C   UNL     1       9.006  13.215  19.319  0.00  0.00    +0.000 A 
ATOM     26  F   UNL     1       8.968  14.538  19.540  0.00  0.00    +0.000 F 
ATOM     27  C   UNL     1       8.786  12.726  18.045  0.00  0.00    +0.000 A 
ATOM     28  C   UNL     1       8.824  11.343  17.812  0.00  0.00    +0.000 A 
ENDBRANCH  21  22
ENDBRANCH  20  21
ENDBRANCH  18  20
ENDBRANCH  15  16
ENDBRANCH  11  15
TORSDOF 5
ENDMDL
MODEL 3
REMARK VINA RESULT:      -8.4      0.974      1.029
REMARK  Name = 
REMARK  6 active torsions:
REMARK  status: ('A' for Active; 'I' for Inactive)
REMARK    1  A    between atoms: C_1  and  C_2
REMARK    2  A    between atoms: N_11  and  C_12
REMARK    3  A    between atoms: C_12  and  C_13
REMARK    4  A    between atoms: N_15  and  C_16
REMARK    5  A    between atoms: C_16  and  C_17
REMARK    6  A    between atoms: C_17  and  C_18
REMARK                            x       y       z     vdW  Elec       q    Type
REMARK                         _______ _______ _______ _____ _____    ______ ____
ROOT
ATOM      1  C   UNL     1       2.444   6.145  18.213  0.00  0.00    +0.000 C 
ATOM      2  C   UNL     1       2.395   4.640  17.944  0.00  0.00    +0.000 C 
ATOM      3  C   UNL     1       1.946   3.877  19.204  0.00  0.00    +0.000 C 
ATOM      4  C   UNL     1       1.874   2.368  18.979  0.00  0.00    +0.000 C 
ATOM      5  C   UNL     1       3.169   1.805  18.410  0.00  0.00    +0.000 C 
ATOM      6  C   UNL     1       3.597   2.552  17.149  0.00  0.00    +0.000 C 
ATOM      7  C   UNL     1       3.710   4.077  17.382  0.00  0.00    +0.000 C 
ATOM      8  N   UNL     1       4.150   4.713  16.152  0.00  0.00    +0.000 N 
ATOM      9  C   UNL     1       5.526   4.821  16.103  0.00  0.00    +0.000 C 
ATOM     10  O   UNL     1       6.166   5.196  15.137  0.00  0.00    +0.000 OA
ATOM     11  N   UNL     1       6.019   4.487  17.325  0.00  0.00    +0.000 N 
ATOM     12  C   UNL     1       4.989   4.338  18.213  0.00  0.00    +0.000 C 
ATOM     13  O   UNL     1       5.085   4.288  19.430  0.00  0.00    +0.000 OA
ATOM     14  H   UNL     1       3.581   4.891  15.335  0.00  0.00    +0.000 HD
ENDROOT
BRANCH  11  15
ATOM     15  C   UNL     1       7.424   4.431  17.654  0.00  0.00    +0.000 C 
BRANCH  15  16
ATOM     16  C   UNL     1       7.809   5.609  18.527  0.00  0.00    +0.000 C 
ATOM     17  O   UNL     1       7.913   5.507  19.750  0.00  0.00    +0.000 OA
ATOM     18  N   UNL     1       7.969   6.815  17.864  0.00  0.00    +0.000 N 
ATOM     19  H   UNL     1       7.482   6.910  16.972  0.00  0.00    +0.000 HD
BRANCH  18  20
ATOM     20  C   UNL     1       8.206   8.003  18.666  0.00  0.00    +0.000 C 
BRANCH  20  21
ATOM     21  C   UNL     1       8.278   9.304  17.867  0.00  0.00    +0.000 C 
BRANCH  21  22
ATOM     22  C   UNL     1       9.187  10.321  18.526  0.00  0.00    +0.000 A 
ATOM     23  C   UNL     1       9.183  10.468  19.921  0.00  0.00    +0.000 A 
ATOM     24  C   UNL     1      10.013  11.408  20.540  0.00  0.00    +0.000 A 
ATOM     25  C   UNL     1      10.845  12.203  19.761  0.00  0.00    +0.000 A 
ATOM     26  F   UNL     1      11.643  13.101  20.358  0.00  0.00    +0.000 F 
ATOM     27  C   UNL     1      10.859  12.083  18.383  0.00  0.00    +0.000 A 
ATOM     28  C   UNL     1      10.025  11.146  17.757  0.00  0.00    +0.000 A 
ENDBRANCH  21  22
ENDBRANCH  20  21
ENDBRANCH  18  20
ENDBRANCH  15  16
ENDBRANCH  11  15
TORSDOF 5
ENDMDL
MODEL 4
REMARK VINA RESULT:      -8.1      1.216      1.438
REMARK  Name = 
REMARK  6 active torsions:
REMARK  status: ('A' for Active; 'I' for Inactive)
REMARK    1  A    between atoms: C_1  and  C_2
REMARK    2  A    between atoms: N_11  and  C_12
REMARK    3  A    between atoms: C_12  and  C_13
REMARK    4  A    between atoms: N_15  and  C_16
REMARK    5  A    between atoms: C_16  and  C_17
REMARK    6  A    between atoms: C_17  and  C_18
REMARK                            x       y       z     vdW  Elec       q    Type
REMARK                         _______ _______ _______ _____ _____    ______ ____
ROOT
ATOM      1  C   UNL     1       2.406   5.695  20.483  0.00  0.00    +0.000 C 
ATOM      2  C   UNL     1       2.068   4.590  19.481  0.00  0.00    +0.000 C 
ATOM      3  C   UNL     1       1.920   3.234  20.196  0.00  0.00    +0.000 C 
ATOM      4  C   UNL     1       1.573   2.100  19.232  0.00  0.00    +0.000 C 
ATOM      5  C   UNL     1       2.542   2.019  18.061  0.00  0.00    +0.000 C 
ATOM      6  C   UNL     1       2.668   3.360  17.344  0.00  0.00    +0.000 C 
ATOM      7  C   UNL     1       3.058   4.505  18.308  0.00  0.00    +0.000 C 
ATOM      8  N   UNL     1       3.189   5.738  17.551  0.00  0.00    +0.000 N 
ATOM      9  C   UNL     1       4.486   5.930  17.118  0.00  0.00    +0.000 C 
ATOM     10  O   UNL     1       4.849   6.812  16.359  0.00  0.00    +0.000 OA
ATOM     11  N   UNL     1       5.275   5.004  17.724  0.00  0.00    +0.000 N 
ATOM     12  C   UNL     1       4.553   4.332  18.672  0.00  0.00    +0.000 C 
ATOM     13  O   UNL     1       5.005   3.623  19.557  0.00  0.00    +0.000 OA
ATOM     14  H   UNL     1       2.430   6.308  17.201  0.00  0.00    +0.000 HD
ENDROOT
BRANCH  11  15
ATOM     15  C   UNL     1       6.691   4.852  17.485  0.00  0.00    +0.000 C 
BRANCH  15  16
ATOM     16  C   UNL     1       7.292   6.166  17.025  0.00  0.00    +0.000 C 
ATOM     17  O   UNL     1       7.753   6.310  15.892  0.00  0.00    +0.000 OA
ATOM     18  N   UNL     1       7.345   7.165  17.984  0.00  0.00    +0.000 N 
ATOM     19  H   UNL     1       7.337   6.860  18.958  0.00  0.00    +0.000 HD
BRANCH  18  20
ATOM     20  C   UNL     1       8.031   8.398  17.639  0.00  0.00    +0.000 C 
BRANCH  20  21
ATOM     21  C   UNL     1       8.826   9.024  18.786  0.00  0.00    +0.000 C 
BRANCH  21  22
ATOM     22  C   UNL     1       9.147  10.481  18.519  0.00  0.00    +0.000 A 
ATOM     23  C   UNL     1      10.325  11.045  19.028  0.00  0.00    +0.000 A 
ATOM     24  C   UNL     1      10.630  12.390  18.794  0.00  0.00    +0.000 A 
ATOM     25  C   UNL     1       9.750  13.170  18.051  0.00  0.00    +0.000 A 
ATOM     26  F   UNL     1      10.047  14.459  17.826  0.00  0.00    +0.000 F 
ATOM     27  C   UNL     1       8.578  12.638  17.548  0.00  0.00    +0.000 A 
ATOM     28  C   UNL     1       8.265  11.291  17.784  0.00  0.00    +0.000 A 
ENDBRANCH  21  22
ENDBRANCH  20  21
ENDBRANCH  18  20
ENDBRANCH  15  16
ENDBRANCH  11  15
TORSDOF 5
ENDMDL
MODEL 5
REMARK VINA RESULT:      -8.1      1.421      1.787
REMARK  Name = 
REMARK  6 active torsions:
REMARK  status: ('A' for Active; 'I' for Inactive)
REMARK    1  A    between atoms: C_1  and  C_2
REMARK    2  A    between atoms: N_11  and  C_12
REMARK    3  A    between atoms: C_12  and  C_13
REMARK    4  A    between atoms: N_15  and  C_16
REMARK    5  A    between atoms: C_16  and  C_17
REMARK    6  A    between atoms: C_17  and  C_18
REMARK                            x       y       z     vdW  Elec       q    Type
REMARK                         _______ _______ _______ _____ _____    ______ ____
ROOT
ATOM      1  C   UNL     1       2.087   5.792  17.727  0.00  0.00    +0.000 C 
ATOM      2  C   UNL     1       2.456   4.407  18.260  0.00  0.00    +0.000 C 
ATOM      3  C   UNL     1       2.051   4.268  19.739  0.00  0.00    +0.000 C 
ATOM      4  C   UNL     1       2.393   2.893  20.312  0.00  0.00    +0.000 C 
ATOM      5  C   UNL     1       3.852   2.520  20.088  0.00  0.00    +0.000 C 
ATOM      6  C   UNL     1       4.241   2.640  18.617  0.00  0.00    +0.000 C 
ATOM      7  C   UNL     1       3.933   4.043  18.042  0.00  0.00    +0.000 C 
ATOM      8  N   UNL     1       4.358   4.089  16.653  0.00  0.00    +0.000 N 
ATOM      9  C   UNL     1       5.656   4.546  16.537  0.00  0.00    +0.000 C 
ATOM     10  O   UNL     1       6.303   4.564  15.505  0.00  0.00    +0.000 OA
ATOM     11  N   UNL     1       6.050   5.010  17.752  0.00  0.00    +0.000 N 
ATOM     12  C   UNL     1       4.983   5.029  18.607  0.00  0.00    +0.000 C 
ATOM     13  O   UNL     1       4.926   5.611  19.680  0.00  0.00    +0.000 OA
ATOM     14  H   UNL     1       3.876   3.674  15.867  0.00  0.00    +0.000 HD
ENDROOT
BRANCH  11  15
ATOM     15  C   UNL     1       7.367   5.525  18.043  0.00  0.00    +0.000 C 
BRANCH  15  16
ATOM     16  C   UNL     1       7.390   7.033  17.890  0.00  0.00    +0.000 C 
ATOM     17  O   UNL     1       6.594   7.626  17.161  0.00  0.00    +0.000 OA
ATOM     18  N   UNL     1       8.406   7.685  18.570  0.00  0.00    +0.000 N 
ATOM     19  H   UNL     1       9.232   7.129  18.794  0.00  0.00    +0.000 HD
BRANCH  18  20
ATOM     20  C   UNL     1       8.559   9.114  18.352  0.00  0.00    +0.000 C 
BRANCH  20  21
ATOM     21  C   UNL     1       9.035   9.895  19.577  0.00  0.00    +0.000 C 
BRANCH  21  22
ATOM     22  C   UNL     1       9.925  11.060  19.191  0.00  0.00    +0.000 A 
ATOM     23  C   UNL     1      10.117  12.124  20.083  0.00  0.00    +0.000 A 
ATOM     24  C   UNL     1      10.929  13.207  19.735  0.00  0.00    +0.000 A 
ATOM     25  C   UNL     1      11.549  13.225  18.490  0.00  0.00    +0.000 A 
ATOM     26  F   UNL     1      12.331  14.264  18.161  0.00  0.00    +0.000 F 
ATOM     27  C   UNL     1      11.366  12.191  17.590  0.00  0.00    +0.000 A 
ATOM     28  C   UNL     1      10.548  11.105  17.931  0.00  0.00    +0.000 A 
ENDBRANCH  21  22
ENDBRANCH  20  21
ENDBRANCH  18  20
ENDBRANCH  15  16
ENDBRANCH  11  15
TORSDOF 5
ENDMDL
MODEL 6
REMARK VINA RESULT:      -8.0      1.348      1.809
REMARK  Name = 
REMARK  6 active torsions:
REMARK  status: ('A' for Active; 'I' for Inactive)
REMARK    1  A    between atoms: C_1  and  C_2
REMARK    2  A    between atoms: N_11  and  C_12
REMARK    3  A    between atoms: C_12  and  C_13
REMARK    4  A    between atoms: N_15  and  C_16
REMARK    5  A    between atoms: C_16  and  C_17
REMARK    6  A    between atoms: C_17  and  C_18
REMARK                            x       y       z     vdW  Elec       q    Type
REMARK                         _______ _______ _______ _____ _____    ______ ____
ROOT
ATOM      1  C   UNL     1       2.127   6.417  18.728  0.00  0.00    +0.000 C 
ATOM      2  C   UNL     1       2.172   4.950  19.159  0.00  0.00    +0.000 C 
ATOM      3  C   UNL     1       2.124   4.832  20.694  0.00  0.00    +0.000 C 
ATOM      4  C   UNL     1       2.157   3.381  21.170  0.00  0.00    +0.000 C 
ATOM      5  C   UNL     1       3.327   2.606  20.581  0.00  0.00    +0.000 C 
ATOM      6  C   UNL     1       3.357   2.709  19.058  0.00  0.00    +0.000 C 
ATOM      7  C   UNL     1       3.364   4.177  18.571  0.00  0.00    +0.000 C 
ATOM      8  N   UNL     1       3.424   4.194  17.119  0.00  0.00    +0.000 N 
ATOM      9  C   UNL     1       4.728   4.249  16.668  0.00  0.00    +0.000 C 
ATOM     10  O   UNL     1       5.072   4.147  15.504  0.00  0.00    +0.000 OA
ATOM     11  N   UNL     1       5.534   4.486  17.737  0.00  0.00    +0.000 N 
ATOM     12  C   UNL     1       4.772   4.761  18.838  0.00  0.00    +0.000 C 
ATOM     13  O   UNL     1       5.163   5.255  19.884  0.00  0.00    +0.000 OA
ATOM     14  H   UNL     1       2.659   3.999  16.487  0.00  0.00    +0.000 HD
ENDROOT
BRANCH  11  15
ATOM     15  C   UNL     1       6.975   4.561  17.675  0.00  0.00    +0.000 C 
BRANCH  15  16
ATOM     16  C   UNL     1       7.409   5.880  17.065  0.00  0.00    +0.000 C 
ATOM     17  O   UNL     1       7.557   6.018  15.851  0.00  0.00    +0.000 OA
ATOM     18  N   UNL     1       7.689   6.890  17.971  0.00  0.00    +0.000 N 
ATOM     19  H   UNL     1       7.940   6.597  18.916  0.00  0.00    +0.000 HD
BRANCH  18  20
ATOM     20  C   UNL     1       8.237   8.132  17.452  0.00  0.00    +0.000 C 
BRANCH  20  21
ATOM     21  C   UNL     1       7.602   9.396  18.031  0.00  0.00    +0.000 C 
BRANCH  21  22
ATOM     22  C   UNL     1       8.646  10.430  18.406  0.00  0.00    +0.000 A 
ATOM     23  C   UNL     1       8.792  11.593  17.636  0.00  0.00    +0.000 A 
ATOM     24  C   UNL     1       9.755  12.550  17.968  0.00  0.00    +0.000 A 
ATOM     25  C   UNL     1      10.576  12.339  19.071  0.00  0.00    +0.000 A 
ATOM     26  F   UNL     1      11.498  13.261  19.389  0.00  0.00    +0.000 F 
ATOM     27  C   UNL     1      10.458  11.194  19.838  0.00  0.00    +0.000 A 
ATOM     28  C   UNL     1       9.496  10.229  19.507  0.00  0.00    +0.000 A 
ENDBRANCH  21  22
ENDBRANCH  20  21
ENDBRANCH  18  20
ENDBRANCH  15  16
ENDBRANCH  11  15
TORSDOF 5
ENDMDL
MODEL 7
REMARK VINA RESULT:      -7.9      4.773      6.055
REMARK  Name = 
REMARK  6 active torsions:
REMARK  status: ('A' for Active; 'I' for Inactive)
REMARK    1  A    between atoms: C_1  and  C_2
REMARK    2  A    between atoms: N_11  and  C_12
REMARK    3  A    between atoms: C_12  and  C_13
REMARK    4  A    between atoms: N_15  and  C_16
REMARK    5  A    between atoms: C_16  and  C_17
REMARK    6  A    between atoms: C_17  and  C_18
REMARK                            x       y       z     vdW  Elec       q    Type
REMARK                         _______ _______ _______ _____ _____    ______ ____
ROOT
ATOM      1  C   UNL     1       3.937   0.965  18.569  0.00  0.00    +0.000 C 
ATOM      2  C   UNL     1       3.275   2.130  19.307  0.00  0.00    +0.000 C 
ATOM      3  C   UNL     1       1.771   2.193  18.984  0.00  0.00    +0.000 C 
ATOM      4  C   UNL     1       1.065   3.338  19.708  0.00  0.00    +0.000 C 
ATOM      5  C   UNL     1       1.750   4.678  19.477  0.00  0.00    +0.000 C 
ATOM      6  C   UNL     1       3.235   4.614  19.819  0.00  0.00    +0.000 C 
ATOM      7  C   UNL     1       3.964   3.481  19.058  0.00  0.00    +0.000 C 
ATOM      8  N   UNL     1       5.373   3.504  19.410  0.00  0.00    +0.000 N 
ATOM      9  C   UNL     1       6.101   4.286  18.535  0.00  0.00    +0.000 C 
ATOM     10  O   UNL     1       7.275   4.581  18.669  0.00  0.00    +0.000 OA
ATOM     11  N   UNL     1       5.292   4.615  17.493  0.00  0.00    +0.000 N 
ATOM     12  C   UNL     1       4.118   3.921  17.582  0.00  0.00    +0.000 C 
ATOM     13  O   UNL     1       3.286   3.790  16.697  0.00  0.00    +0.000 OA
ATOM     14  H   UNL     1       5.778   3.168  20.274  0.00  0.00    +0.000 HD
ENDROOT
BRANCH  11  15
ATOM     15  C   UNL     1       5.680   5.470  16.395  0.00  0.00    +0.000 C 
BRANCH  15  16
ATOM     16  C   UNL     1       4.785   6.693  16.338  0.00  0.00    +0.000 C 
ATOM     17  O   UNL     1       4.609   7.322  15.294  0.00  0.00    +0.000 OA
ATOM     18  N   UNL     1       4.236   7.087  17.547  0.00  0.00    +0.000 N 
ATOM     19  H   UNL     1       4.733   6.792  18.389  0.00  0.00    +0.000 HD
BRANCH  18  20
ATOM     20  C   UNL     1       3.480   8.327  17.576  0.00  0.00    +0.000 C 
BRANCH  20  21
ATOM     21  C   UNL     1       1.973   8.148  17.757  0.00  0.00    +0.000 C 
BRANCH  21  22
ATOM     22  C   UNL     1       1.491   8.724  19.073  0.00  0.00    +0.000 A 
ATOM     23  C   UNL     1       0.836   9.963  19.101  0.00  0.00    +0.000 A 
ATOM     24  C   UNL     1       0.392  10.508  20.309  0.00  0.00    +0.000 A 
ATOM     25  C   UNL     1       0.609   9.811  21.493  0.00  0.00    +0.000 A 
ATOM     26  F   UNL     1       0.179  10.335  22.651  0.00  0.00    +0.000 F 
ATOM     27  C   UNL     1       1.262   8.592  21.492  0.00  0.00    +0.000 A 
ATOM     28  C   UNL     1       1.713   8.044  20.283  0.00  0.00    +0.000 A 
ENDBRANCH  21  22
ENDBRANCH  20  21
ENDBRANCH  18  20
ENDBRANCH  15  16
ENDBRANCH  11  15
TORSDOF 5
ENDMDL
MODEL 8
REMARK VINA RESULT:      -7.9      4.617      7.349
REMARK  Name = 
REMARK  6 active torsions:
REMARK  status: ('A' for Active; 'I' for Inactive)
REMARK    1  A    between atoms: C_1  and  C_2
REMARK    2  A    between atoms: N_11  and  C_12
REMARK    3  A    between atoms: C_12  and  C_13
REMARK    4  A    between atoms: N_15  and  C_16
REMARK    5  A    between atoms: C_16  and  C_17
REMARK    6  A    between atoms: C_17  and  C_18
REMARK                            x       y       z     vdW  Elec       q    Type
REMARK                         _______ _______ _______ _____ _____    ______ ____
ROOT
ATOM      1  C   UNL     1       7.484   5.544  18.438  0.00  0.00    +0.000 C 
ATOM      2  C   UNL     1       7.091   4.746  17.194  0.00  0.00    +0.000 C 
ATOM      3  C   UNL     1       7.464   5.518  15.914  0.00  0.00    +0.000 C 
ATOM      4  C   UNL     1       7.097   4.753  14.644  0.00  0.00    +0.000 C 
ATOM      5  C   UNL     1       5.640   4.312  14.634  0.00  0.00    +0.000 C 
ATOM      6  C   UNL     1       5.283   3.530  15.895  0.00  0.00    +0.000 C 
ATOM      7  C   UNL     1       5.615   4.317  17.185  0.00  0.00    +0.000 C 
ATOM      8  N   UNL     1       5.220   3.525  18.338  0.00  0.00    +0.000 N 
ATOM      9  C   UNL     1       3.930   3.816  18.733  0.00  0.00    +0.000 C 
ATOM     10  O   UNL     1       3.305   3.213  19.587  0.00  0.00    +0.000 OA
ATOM     11  N   UNL     1       3.515   4.911  18.042  0.00  0.00    +0.000 N 
ATOM     12  C   UNL     1       4.563   5.440  17.342  0.00  0.00    +0.000 C 
ATOM     13  O   UNL     1       4.603   6.547  16.826  0.00  0.00    +0.000 OA
ATOM     14  H   UNL     1       5.715   2.726  18.711  0.00  0.00    +0.000 HD
ENDROOT
BRANCH  11  15
ATOM     15  C   UNL     1       2.196   5.491  18.144  0.00  0.00    +0.000 C 
BRANCH  15  16
ATOM     16  C   UNL     1       2.280   6.894  18.714  0.00  0.00    +0.000 C 
ATOM     17  O   UNL     1       2.531   7.100  19.902  0.00  0.00    +0.000 OA
ATOM     18  N   UNL     1       1.989   7.916  17.825  0.00  0.00    +0.000 N 
ATOM     19  H   UNL     1       1.411   7.668  17.021  0.00  0.00    +0.000 HD
BRANCH  18  20
ATOM     20  C   UNL     1       1.923   9.270  18.348  0.00  0.00    +0.000 C 
BRANCH  20  21
ATOM     21  C   UNL     1       0.529   9.896  18.314  0.00  0.00    +0.000 C 
BRANCH  21  22
ATOM     22  C   UNL     1       0.056  10.297  19.697  0.00  0.00    +0.000 A 
ATOM     23  C   UNL     1       0.469   9.566  20.820  0.00  0.00    +0.000 A 
ATOM     24  C   UNL     1       0.034   9.922  22.100  0.00  0.00    +0.000 A 
ATOM     25  C   UNL     1      -0.818  11.010  22.254  0.00  0.00    +0.000 A 
ATOM     26  F   UNL     1      -1.230  11.351  23.485  0.00  0.00    +0.000 F 
ATOM     27  C   UNL     1      -1.246  11.739  21.161  0.00  0.00    +0.000 A 
ATOM     28  C   UNL     1      -0.817  11.383  19.874  0.00  0.00    +0.000 A 
ENDBRANCH  21  22
ENDBRANCH  20  21
ENDBRANCH  18  20
ENDBRANCH  15  16
ENDBRANCH  11  15
TORSDOF 5
ENDMDL
MODEL 9
REMARK VINA RESULT:      -7.9      5.090      6.998
REMARK  Name = 
REMARK  6 active torsions:
REMARK  status: ('A' for Active; 'I' for Inactive)
REMARK    1  A    between atoms: C_1  and  C_2
REMARK    2  A    between atoms: N_11  and  C_12
REMARK    3  A    between atoms: C_12  and  C_13
REMARK    4  A    between atoms: N_15  and  C_16
REMARK    5  A    between atoms: C_16  and  C_17
REMARK    6  A    between atoms: C_17  and  C_18
REMARK                            x       y       z     vdW  Elec       q    Type
REMARK                         _______ _______ _______ _____ _____    ______ ____
ROOT
ATOM      1  C   UNL     1       2.878   1.908  17.472  0.00  0.00    +0.000 C 
ATOM      2  C   UNL     1       2.501   2.464  18.846  0.00  0.00    +0.000 C 
ATOM      3  C   UNL     1       0.971   2.488  19.021  0.00  0.00    +0.000 C 
ATOM      4  C   UNL     1       0.547   3.028  20.386  0.00  0.00    +0.000 C 
ATOM      5  C   UNL     1       1.172   4.382  20.692  0.00  0.00    +0.000 C 
ATOM      6  C   UNL     1       2.690   4.345  20.537  0.00  0.00    +0.000 C 
ATOM      7  C   UNL     1       3.125   3.837  19.143  0.00  0.00    +0.000 C 
ATOM      8  N   UNL     1       4.575   3.860  19.061  0.00  0.00    +0.000 N 
ATOM      9  C   UNL     1       5.033   5.056  18.545  0.00  0.00    +0.000 C 
ATOM     10  O   UNL     1       6.203   5.392  18.487  0.00  0.00    +0.000 OA
ATOM     11  N   UNL     1       3.962   5.752  18.079  0.00  0.00    +0.000 N 
ATOM     12  C   UNL     1       2.847   4.962  18.117  0.00  0.00    +0.000 C 
ATOM     13  O   UNL     1       1.786   5.180  17.552  0.00  0.00    +0.000 OA
ATOM     14  H   UNL     1       5.208   3.196  19.487  0.00  0.00    +0.000 HD
ENDROOT
BRANCH  11  15
ATOM     15  C   UNL     1       4.032   7.077  17.510  0.00  0.00    +0.000 C 
BRANCH  15  16
ATOM     16  C   UNL     1       2.838   7.903  17.948  0.00  0.00    +0.000 C 
ATOM     17  O   UNL     1       2.331   8.754  17.217  0.00  0.00    +0.000 OA
ATOM     18  N   UNL     1       2.404   7.680  19.245  0.00  0.00    +0.000 N 
ATOM     19  H   UNL     1       3.090   7.294  19.894  0.00  0.00    +0.000 HD
BRANCH  18  20
ATOM     20  C   UNL     1       1.350   8.536  19.763  0.00  0.00    +0.000 C 
BRANCH  20  21
ATOM     21  C   UNL     1       1.274   8.595  21.288  0.00  0.00    +0.000 C 
BRANCH  21  22
ATOM     22  C   UNL     1       0.454   9.778  21.765  0.00  0.00    +0.000 A 
ATOM     23  C   UNL     1      -0.468   9.620  22.810  0.00  0.00    +0.000 A 
ATOM     24  C   UNL     1      -1.234  10.701  23.254  0.00  0.00    +0.000 A 
ATOM     25  C   UNL     1      -1.077  11.944  22.648  0.00  0.00    +0.000 A 
ATOM     26  F   UNL     1      -1.812  12.981  23.079  0.00  0.00    +0.000 F 
ATOM     27  C   UNL     1      -0.182  12.121  21.609  0.00  0.00    +0.000 A 
ATOM     28  C   UNL     1       0.585  11.038  21.157  0.00  0.00    +0.000 A 
ENDBRANCH  21  22
ENDBRANCH  20  21
ENDBRANCH  18  20
ENDBRANCH  15  16
ENDBRANCH  11  15
TORSDOF 5
ENDMDL
