MODEL 1
REMARK VINA RESULT:      -7.4      0.000      0.000
REMARK  Name = 
REMARK  6 active torsions:
REMARK  status: ('A' for Active; 'I' for Inactive)
REMARK    1  A    between atoms: C_5  and  C_6
REMARK    2  A    between atoms: C_6  and  C_7
REMARK    3  A    between atoms: C_6  and  N_16
REMARK    4  A    between atoms: C_7  and  N_8
REMARK    5  A    between atoms: N_8  and  C_9
REMARK    6  A    between atoms: C_9  and  C_10
REMARK                            x       y       z     vdW  Elec       q    Type
REMARK                         _______ _______ _______ _____ _____    ______ ____
ROOT
ATOM      1  C   UNL     1       4.350   5.355  18.507  0.00  0.00    +0.000 C 
ENDROOT
BRANCH   1   6
ATOM      2 CL   UNL     1       0.414   9.916  19.148  0.00  0.00    +0.000 Cl
ATOM      3  C   UNL     1       1.560   8.647  18.970  0.00  0.00    +0.000 A 
ATOM      4  C   UNL     1       1.720   7.707  19.984  0.00  0.00    +0.000 A 
ATOM      5  C   UNL     1       2.644   6.670  19.832  0.00  0.00    +0.000 A 
ATOM      6  C   UNL     1       3.404   6.545  18.653  0.00  0.00    +0.000 A 
ATOM      7  C   UNL     1       3.238   7.516  17.651  0.00  0.00    +0.000 A 
ATOM      8  C   UNL     1       2.325   8.561  17.811  0.00  0.00    +0.000 A 
ENDBRANCH   1   6
BRANCH   1   9
ATOM      9  N   UNL     1       5.755   5.773  18.562  0.00  0.00    +0.000 N 
ATOM     10  C   UNL     1       6.466   6.450  17.608  0.00  0.00    +0.000 A 
ATOM     11  C   UNL     1       7.777   6.438  18.019  0.00  0.00    +0.000 A 
ATOM     12  C   UNL     1       7.765   5.738  19.235  0.00  0.00    +0.000 A 
ATOM     13  N   UNL     1       6.541   5.322  19.571  0.00  0.00    +0.000 NA
ENDBRANCH   1   9
BRANCH   1  14
ATOM     14  C   UNL     1       4.075   4.449  17.271  0.00  0.00    +0.000 C 
BRANCH  14  15
ATOM     15  N   UNL     1       4.324   3.005  17.408  0.00  0.00    +0.000 NA
ATOM     16  H   UNL     1       4.935   2.846  18.213  0.00  0.00    +0.000 HD
BRANCH  15  17
ATOM     17  C   UNL     1       3.103   2.235  17.623  0.00  0.00    +0.000 C 
BRANCH  17  18
ATOM     18  C   UNL     1       2.505   2.585  18.961  0.00  0.00    +0.000 A 
ATOM     19  C   UNL     1       1.249   3.195  19.041  0.00  0.00    +0.000 A 
ATOM     20  C   UNL     1       0.757   3.533  20.291  0.00  0.00    +0.000 A 
ATOM     21  N   UNL     1       1.420   3.313  21.446  0.00  0.00    +0.000 NA
ATOM     22  C   UNL     1       2.637   2.736  21.344  0.00  0.00    +0.000 A 
ATOM     23  C   UNL     1       3.217   2.364  20.142  0.00  0.00    +0.000 A 
ENDBRANCH  17  18
ENDBRANCH  15  17
ENDBRANCH  14  15
ENDBRANCH   1  14
TORSDOF 6
ENDMDL
MODEL 2
REMARK VINA RESULT:      -7.4      0.047      1.004
REMARK  Name = 
REMARK  6 active torsions:
REMARK  status: ('A' for Active; 'I' for Inactive)
REMARK    1  A    between atoms: C_5  and  C_6
REMARK    2  A    between atoms: C_6  and  C_7
REMARK    3  A    between atoms: C_6  and  N_16
REMARK    4  A    between atoms: C_7  and  N_8
REMARK    5  A    between atoms: N_8  and  C_9
REMARK    6  A    between atoms: C_9  and  C_10
REMARK                            x       y       z     vdW  Elec       q    Type
REMARK                         _______ _______ _______ _____ _____    ______ ____
ROOT
ATOM      1  C   UNL     1       4.395   5.347  18.518  0.00  0.00    +0.000 C 
ENDROOT
BRANCH   1   6
ATOM      2 CL   UNL     1       0.420   9.875  19.158  0.00  0.00    +0.000 Cl
ATOM      3  C   UNL     1       1.577   8.616  18.980  0.00  0.00    +0.000 A 
ATOM      4  C   UNL     1       1.753   7.684  19.998  0.00  0.00    +0.000 A 
ATOM      5  C   UNL     1       2.686   6.655  19.846  0.00  0.00    +0.000 A 
ATOM      6  C   UNL     1       3.439   6.529  18.663  0.00  0.00    +0.000 A 
ATOM      7  C   UNL     1       3.256   7.493  17.656  0.00  0.00    +0.000 A 
ATOM      8  C   UNL     1       2.334   8.530  17.816  0.00  0.00    +0.000 A 
ENDBRANCH   1   6
BRANCH   1   9
ATOM      9  N   UNL     1       5.796   5.775  18.591  0.00  0.00    +0.000 N 
ATOM     10  C   UNL     1       6.512   6.465  17.650  0.00  0.00    +0.000 A 
ATOM     11  C   UNL     1       7.818   6.459  18.075  0.00  0.00    +0.000 A 
ATOM     12  C   UNL     1       7.799   5.749  19.285  0.00  0.00    +0.000 A 
ATOM     13  N   UNL     1       6.575   5.322  19.605  0.00  0.00    +0.000 NA
ENDBRANCH   1   9
BRANCH   1  14
ATOM     14  C   UNL     1       4.140   4.449  17.271  0.00  0.00    +0.000 C 
BRANCH  14  15
ATOM     15  N   UNL     1       4.350   3.000  17.414  0.00  0.00    +0.000 NA
ATOM     16  H   UNL     1       4.961   2.827  18.217  0.00  0.00    +0.000 HD
BRANCH  15  17
ATOM     17  C   UNL     1       3.109   2.264  17.639  0.00  0.00    +0.000 C 
BRANCH  17  18
ATOM     18  C   UNL     1       2.526   2.642  18.976  0.00  0.00    +0.000 A 
ATOM     19  C   UNL     1       3.233   2.392  20.156  0.00  0.00    +0.000 A 
ATOM     20  C   UNL     1       2.641   2.722  21.364  0.00  0.00    +0.000 A 
ATOM     21  N   UNL     1       1.412   3.271  21.475  0.00  0.00    +0.000 NA
ATOM     22  C   UNL     1       0.741   3.490  20.323  0.00  0.00    +0.000 A 
ATOM     23  C   UNL     1       1.245   3.193  19.067  0.00  0.00    +0.000 A 
ENDBRANCH  17  18
ENDBRANCH  15  17
ENDBRANCH  14  15
ENDBRANCH   1  14
TORSDOF 6
ENDMDL
MODEL 3
REMARK VINA RESULT:      -7.3      0.403      1.469
REMARK  Name = 
REMARK  6 active torsions:
REMARK  status: ('A' for Active; 'I' for Inactive)
REMARK    1  A    between atoms: C_5  and  C_6
REMARK    2  A    between atoms: C_6  and  C_7
REMARK    3  A    between atoms: C_6  and  N_16
REMARK    4  A    between atoms: C_7  and  N_8
REMARK    5  A    between atoms: N_8  and  C_9
REMARK    6  A    between atoms: C_9  and  C_10
REMARK                            x       y       z     vdW  Elec       q    Type
REMARK                         _______ _______ _______ _____ _____    ______ ____
ROOT
ATOM      1  C   UNL     1       4.375   5.358  18.429  0.00  0.00    +0.000 C 
ENDROOT
BRANCH   1   6
ATOM      2 CL   UNL     1       0.634  10.052  19.255  0.00  0.00    +0.000 Cl
ATOM      3  C   UNL     1       1.665   8.697  19.017  0.00  0.00    +0.000 A 
ATOM      4  C   UNL     1       2.391   8.575  17.836  0.00  0.00    +0.000 A 
ATOM      5  C   UNL     1       3.236   7.477  17.650  0.00  0.00    +0.000 A 
ATOM      6  C   UNL     1       3.387   6.500  18.652  0.00  0.00    +0.000 A 
ATOM      7  C   UNL     1       2.630   6.637  19.829  0.00  0.00    +0.000 A 
ATOM      8  C   UNL     1       1.773   7.726  20.007  0.00  0.00    +0.000 A 
ENDBRANCH   1   6
BRANCH   1   9
ATOM      9  N   UNL     1       5.764   5.818  18.534  0.00  0.00    +0.000 N 
ATOM     10  C   UNL     1       6.468   6.570  17.632  0.00  0.00    +0.000 A 
ATOM     11  C   UNL     1       7.771   6.578  18.067  0.00  0.00    +0.000 A 
ATOM     12  C   UNL     1       7.761   5.811  19.243  0.00  0.00    +0.000 A 
ATOM     13  N   UNL     1       6.547   5.338  19.532  0.00  0.00    +0.000 NA
ENDBRANCH   1   9
BRANCH   1  14
ATOM     14  C   UNL     1       4.145   4.540  17.123  0.00  0.00    +0.000 C 
BRANCH  14  15
ATOM     15  N   UNL     1       3.910   3.094  17.252  0.00  0.00    +0.000 NA
ATOM     16  H   UNL     1       4.505   2.722  17.997  0.00  0.00    +0.000 HD
BRANCH  15  17
ATOM     17  C   UNL     1       2.527   2.769  17.590  0.00  0.00    +0.000 C 
BRANCH  17  18
ATOM     18  C   UNL     1       2.348   2.790  19.086  0.00  0.00    +0.000 A 
ATOM     19  C   UNL     1       3.384   2.381  19.931  0.00  0.00    +0.000 A 
ATOM     20  C   UNL     1       3.161   2.381  21.298  0.00  0.00    +0.000 A 
ATOM     21  N   UNL     1       1.995   2.751  21.871  0.00  0.00    +0.000 NA
ATOM     22  C   UNL     1       1.005   3.129  21.034  0.00  0.00    +0.000 A 
ATOM     23  C   UNL     1       1.128   3.161  19.655  0.00  0.00    +0.000 A 
ENDBRANCH  17  18
ENDBRANCH  15  17
ENDBRANCH  14  15
ENDBRANCH   1  14
TORSDOF 6
ENDMDL
MODEL 4
REMARK VINA RESULT:      -7.3      0.795      1.461
REMARK  Name = 
REMARK  6 active torsions:
REMARK  status: ('A' for Active; 'I' for Inactive)
REMARK    1  A    between atoms: C_5  and  C_6
REMARK    2  A    between atoms: C_6  and  C_7
REMARK    3  A    between atoms: C_6  and  N_16
REMARK    4  A    between atoms: C_7  and  N_8
REMARK    5  A    between atoms: N_8  and  C_9
REMARK    6  A    between atoms: C_9  and  C_10
REMARK                            x       y       z     vdW  Elec       q    Type
REMARK                         _______ _______ _______ _____ _____    ______ ____
ROOT
ATOM      1  C   UNL     1       4.275   4.958  18.219  0.00  0.00    +0.000 C 
ENDROOT
BRANCH   1   6
ATOM      2 CL   UNL     1       0.826   9.692  19.770  0.00  0.00    +0.000 Cl
ATOM      3  C   UNL     1       1.773   8.327  19.327  0.00  0.00    +0.000 A 
ATOM      4  C   UNL     1       2.373   8.274  18.073  0.00  0.00    +0.000 A 
ATOM      5  C   UNL     1       3.150   7.167  17.720  0.00  0.00    +0.000 A 
ATOM      6  C   UNL     1       3.360   6.111  18.626  0.00  0.00    +0.000 A 
ATOM      7  C   UNL     1       2.730   6.179  19.881  0.00  0.00    +0.000 A 
ATOM      8  C   UNL     1       1.939   7.279  20.227  0.00  0.00    +0.000 A 
ENDBRANCH   1   6
BRANCH   1   9
ATOM      9  N   UNL     1       5.675   5.386  18.128  0.00  0.00    +0.000 N 
ATOM     10  C   UNL     1       6.565   5.563  19.152  0.00  0.00    +0.000 A 
ATOM     11  C   UNL     1       7.676   6.157  18.603  0.00  0.00    +0.000 A 
ATOM     12  C   UNL     1       7.371   6.296  17.240  0.00  0.00    +0.000 A 
ATOM     13  N   UNL     1       6.153   5.837  16.942  0.00  0.00    +0.000 NA
ENDBRANCH   1   9
BRANCH   1  14
ATOM     14  C   UNL     1       3.830   4.192  16.938  0.00  0.00    +0.000 C 
BRANCH  14  15
ATOM     15  N   UNL     1       2.550   3.467  16.981  0.00  0.00    +0.000 NA
ATOM     16  H   UNL     1       2.249   3.261  16.025  0.00  0.00    +0.000 HD
BRANCH  15  17
ATOM     17  C   UNL     1       2.638   2.199  17.699  0.00  0.00    +0.000 C 
BRANCH  17  18
ATOM     18  C   UNL     1       2.343   2.417  19.160  0.00  0.00    +0.000 A 
ATOM     19  C   UNL     1       1.078   2.848  19.573  0.00  0.00    +0.000 A 
ATOM     20  C   UNL     1       0.865   3.071  20.923  0.00  0.00    +0.000 A 
ATOM     21  N   UNL     1       1.809   2.899  21.873  0.00  0.00    +0.000 NA
ATOM     22  C   UNL     1       3.026   2.496  21.450  0.00  0.00    +0.000 A 
ATOM     23  C   UNL     1       3.340   2.249  20.123  0.00  0.00    +0.000 A 
ENDBRANCH  17  18
ENDBRANCH  15  17
ENDBRANCH  14  15
ENDBRANCH   1  14
TORSDOF 6
ENDMDL
MODEL 5
REMARK VINA RESULT:      -7.2      0.787      1.009
REMARK  Name = 
REMARK  6 active torsions:
REMARK  status: ('A' for Active; 'I' for Inactive)
REMARK    1  A    between atoms: C_5  and  C_6
REMARK    2  A    between atoms: C_6  and  C_7
REMARK    3  A    between atoms: C_6  and  N_16
REMARK    4  A    between atoms: C_7  and  N_8
REMARK    5  A    between atoms: N_8  and  C_9
REMARK    6  A    between atoms: C_9  and  C_10
REMARK                            x       y       z     vdW  Elec       q    Type
REMARK                         _______ _______ _______ _____ _____    ______ ____
ROOT
ATOM      1  C   UNL     1       4.147   4.951  18.186  0.00  0.00    +0.000 C 
ENDROOT
BRANCH   1   6
ATOM      2 CL   UNL     1       0.790   9.839  19.430  0.00  0.00    +0.000 Cl
ATOM      3  C   UNL     1       1.774   8.473  19.082  0.00  0.00    +0.000 A 
ATOM      4  C   UNL     1       1.845   7.419  19.988  0.00  0.00    +0.000 A 
ATOM      5  C   UNL     1       2.638   6.305  19.698  0.00  0.00    +0.000 A 
ATOM      6  C   UNL     1       3.351   6.219  18.487  0.00  0.00    +0.000 A 
ATOM      7  C   UNL     1       3.278   7.305  17.597  0.00  0.00    +0.000 A 
ATOM      8  C   UNL     1       2.498   8.425  17.895  0.00  0.00    +0.000 A 
ENDBRANCH   1   6
BRANCH   1   9
ATOM      9  N   UNL     1       5.591   5.212  18.171  0.00  0.00    +0.000 N 
ATOM     10  C   UNL     1       6.400   5.504  19.236  0.00  0.00    +0.000 A 
ATOM     11  C   UNL     1       7.619   5.862  18.710  0.00  0.00    +0.000 A 
ATOM     12  C   UNL     1       7.456   5.751  17.320  0.00  0.00    +0.000 A 
ATOM     13  N   UNL     1       6.224   5.364  16.982  0.00  0.00    +0.000 NA
ENDBRANCH   1   9
BRANCH   1  14
ATOM     14  C   UNL     1       3.695   4.183  16.910  0.00  0.00    +0.000 C 
BRANCH  14  15
ATOM     15  N   UNL     1       2.504   3.325  17.011  0.00  0.00    +0.000 NA
ATOM     16  H   UNL     1       2.231   3.018  16.073  0.00  0.00    +0.000 HD
BRANCH  15  17
ATOM     17  C   UNL     1       2.730   2.130  17.817  0.00  0.00    +0.000 C 
BRANCH  17  18
ATOM     18  C   UNL     1       2.384   2.411  19.256  0.00  0.00    +0.000 A 
ATOM     19  C   UNL     1       1.139   2.949  19.596  0.00  0.00    +0.000 A 
ATOM     20  C   UNL     1       0.880   3.226  20.929  0.00  0.00    +0.000 A 
ATOM     21  N   UNL     1       1.762   3.010  21.928  0.00  0.00    +0.000 NA
ATOM     22  C   UNL     1       2.963   2.502  21.575  0.00  0.00    +0.000 A 
ATOM     23  C   UNL     1       3.319   2.195  20.272  0.00  0.00    +0.000 A 
ENDBRANCH  17  18
ENDBRANCH  15  17
ENDBRANCH  14  15
ENDBRANCH   1  14
TORSDOF 6
ENDMDL
MODEL 6
REMARK VINA RESULT:      -7.1      3.499      6.765
REMARK  Name = 
REMARK  6 active torsions:
REMARK  status: ('A' for Active; 'I' for Inactive)
REMARK    1  A    between atoms: C_5  and  C_6
REMARK    2  A    between atoms: C_6  and  C_7
REMARK    3  A    between atoms: C_6  and  N_16
REMARK    4  A    between atoms: C_7  and  N_8
REMARK    5  A    between atoms: N_8  and  C_9
REMARK    6  A    between atoms: C_9  and  C_10
REMARK                            x       y       z     vdW  Elec       q    Type
REMARK                         _______ _______ _______ _____ _____    ______ ____
ROOT
ATOM      1  C   UNL     1       6.202   6.352  17.223  0.00  0.00    +0.000 C 
ENDROOT
BRANCH   1   6
ATOM      2 CL   UNL     1       1.278   5.125  20.534  0.00  0.00    +0.000 Cl
ATOM      3  C   UNL     1       2.670   5.440  19.575  0.00  0.00    +0.000 A 
ATOM      4  C   UNL     1       2.643   6.455  18.623  0.00  0.00    +0.000 A 
ATOM      5  C   UNL     1       3.780   6.715  17.852  0.00  0.00    +0.000 A 
ATOM      6  C   UNL     1       4.967   5.983  18.041  0.00  0.00    +0.000 A 
ATOM      7  C   UNL     1       4.964   4.952  18.997  0.00  0.00    +0.000 A 
ATOM      8  C   UNL     1       3.822   4.681  19.756  0.00  0.00    +0.000 A 
ENDBRANCH   1   6
BRANCH   1   9
ATOM      9  N   UNL     1       6.246   5.621  15.952  0.00  0.00    +0.000 N 
ATOM     10  C   UNL     1       5.330   4.725  15.470  0.00  0.00    +0.000 A 
ATOM     11  C   UNL     1       5.893   4.159  14.351  0.00  0.00    +0.000 A 
ATOM     12  C   UNL     1       7.148   4.777  14.230  0.00  0.00    +0.000 A 
ATOM     13  N   UNL     1       7.374   5.663  15.203  0.00  0.00    +0.000 NA
ENDBRANCH   1   9
BRANCH   1  14
ATOM     14  C   UNL     1       7.552   6.239  17.991  0.00  0.00    +0.000 C 
BRANCH  14  15
ATOM     15  N   UNL     1       8.178   7.483  18.466  0.00  0.00    +0.000 NA
ATOM     16  H   UNL     1       9.196   7.381  18.433  0.00  0.00    +0.000 HD
BRANCH  15  17
ATOM     17  C   UNL     1       7.826   8.644  17.653  0.00  0.00    +0.000 C 
BRANCH  17  18
ATOM     18  C   UNL     1       8.464   9.882  18.226  0.00  0.00    +0.000 A 
ATOM     19  C   UNL     1       8.357  11.109  17.563  0.00  0.00    +0.000 A 
ATOM     20  C   UNL     1       8.992  12.213  18.109  0.00  0.00    +0.000 A 
ATOM     21  N   UNL     1       9.716  12.178  19.249  0.00  0.00    +0.000 NA
ATOM     22  C   UNL     1       9.817  10.980  19.864  0.00  0.00    +0.000 A 
ATOM     23  C   UNL     1       9.222   9.819  19.398  0.00  0.00    +0.000 A 
ENDBRANCH  17  18
ENDBRANCH  15  17
ENDBRANCH  14  15
ENDBRANCH   1  14
TORSDOF 6
ENDMDL
MODEL 7
REMARK VINA RESULT:      -7.1      2.701      4.718
REMARK  Name = 
REMARK  6 active torsions:
REMARK  status: ('A' for Active; 'I' for Inactive)
REMARK    1  A    between atoms: C_5  and  C_6
REMARK    2  A    between atoms: C_6  and  C_7
REMARK    3  A    between atoms: C_6  and  N_16
REMARK    4  A    between atoms: C_7  and  N_8
REMARK    5  A    between atoms: N_8  and  C_9
REMARK    6  A    between atoms: C_9  and  C_10
REMARK                            x       y       z     vdW  Elec       q    Type
REMARK                         _______ _______ _______ _____ _____    ______ ____
ROOT
ATOM      1  C   UNL     1       2.260   6.134  19.057  0.00  0.00    +0.000 C 
ENDROOT
BRANCH   1   6
ATOM      2 CL   UNL     1       7.791   4.427  17.264  0.00  0.00    +0.000 Cl
ATOM      3  C   UNL     1       6.210   4.875  17.771  0.00  0.00    +0.000 A 
ATOM      4  C   UNL     1       5.992   5.295  19.080  0.00  0.00    +0.000 A 
ATOM      5  C   UNL     1       4.708   5.668  19.486  0.00  0.00    +0.000 A 
ATOM      6  C   UNL     1       3.629   5.651  18.583  0.00  0.00    +0.000 A 
ATOM      7  C   UNL     1       3.870   5.206  17.271  0.00  0.00    +0.000 A 
ATOM      8  C   UNL     1       5.151   4.818  16.870  0.00  0.00    +0.000 A 
ENDBRANCH   1   6
BRANCH   1   9
ATOM      9  N   UNL     1       2.121   7.587  18.911  0.00  0.00    +0.000 N 
ATOM     10  C   UNL     1       1.571   8.470  19.801  0.00  0.00    +0.000 A 
ATOM     11  C   UNL     1       1.484   9.676  19.149  0.00  0.00    +0.000 A 
ATOM     12  C   UNL     1       2.010   9.430  17.871  0.00  0.00    +0.000 A 
ATOM     13  N   UNL     1       2.394   8.161  17.714  0.00  0.00    +0.000 NA
ENDBRANCH   1   9
BRANCH   1  14
ATOM     14  C   UNL     1       1.861   5.665  20.487  0.00  0.00    +0.000 C 
BRANCH  14  15
ATOM     15  N   UNL     1       0.812   4.641  20.606  0.00  0.00    +0.000 NA
ATOM     16  H   UNL     1       0.400   4.474  19.684  0.00  0.00    +0.000 HD
BRANCH  15  17
ATOM     17  C   UNL     1       1.317   3.364  21.101  0.00  0.00    +0.000 C 
BRANCH  17  18
ATOM     18  C   UNL     1       2.165   2.705  20.045  0.00  0.00    +0.000 A 
ATOM     19  C   UNL     1       3.506   2.400  20.298  0.00  0.00    +0.000 A 
ATOM     20  C   UNL     1       4.257   1.829  19.284  0.00  0.00    +0.000 A 
ATOM     21  N   UNL     1       3.773   1.549  18.055  0.00  0.00    +0.000 NA
ATOM     22  C   UNL     1       2.480   1.865  17.829  0.00  0.00    +0.000 A 
ATOM     23  C   UNL     1       1.648   2.440  18.775  0.00  0.00    +0.000 A 
ENDBRANCH  17  18
ENDBRANCH  15  17
ENDBRANCH  14  15
ENDBRANCH   1  14
TORSDOF 6
ENDMDL
MODEL 8
REMARK VINA RESULT:      -7.1      3.467      6.674
REMARK  Name = 
REMARK  6 active torsions:
REMARK  status: ('A' for Active; 'I' for Inactive)
REMARK    1  A    between atoms: C_5  and  C_6
REMARK    2  A    between atoms: C_6  and  C_7
REMARK    3  A    between atoms: C_6  and  N_16
REMARK    4  A    between atoms: C_7  and  N_8
REMARK    5  A    between atoms: N_8  and  C_9
REMARK    6  A    between atoms: C_9  and  C_10
REMARK                            x       y       z     vdW  Elec       q    Type
REMARK                         _______ _______ _______ _____ _____    ______ ____
ROOT
ATOM      1  C   UNL     1       6.083   6.336  17.595  0.00  0.00    +0.000 C 
ENDROOT
BRANCH   1   6
ATOM      2 CL   UNL     1       1.056   4.279  20.281  0.00  0.00    +0.000 Cl
ATOM      3  C   UNL     1       2.484   4.892  19.545  0.00  0.00    +0.000 A 
ATOM      4  C   UNL     1       3.681   4.192  19.662  0.00  0.00    +0.000 A 
ATOM      5  C   UNL     1       4.838   4.687  19.054  0.00  0.00    +0.000 A 
ATOM      6  C   UNL     1       4.808   5.875  18.298  0.00  0.00    +0.000 A 
ATOM      7  C   UNL     1       3.590   6.572  18.209  0.00  0.00    +0.000 A 
ATOM      8  C   UNL     1       2.438   6.085  18.831  0.00  0.00    +0.000 A 
ENDBRANCH   1   6
BRANCH   1   9
ATOM      9  N   UNL     1       6.227   5.712  16.276  0.00  0.00    +0.000 N 
ATOM     10  C   UNL     1       5.259   5.094  15.531  0.00  0.00    +0.000 A 
ATOM     11  C   UNL     1       5.904   4.497  14.475  0.00  0.00    +0.000 A 
ATOM     12  C   UNL     1       7.260   4.811  14.659  0.00  0.00    +0.000 A 
ATOM     13  N   UNL     1       7.468   5.543  15.756  0.00  0.00    +0.000 NA
ENDBRANCH   1   9
BRANCH   1  14
ATOM     14  C   UNL     1       7.383   6.191  18.439  0.00  0.00    +0.000 C 
BRANCH  14  15
ATOM     15  N   UNL     1       8.282   7.353  18.521  0.00  0.00    +0.000 NA
ATOM     16  H   UNL     1       9.206   7.088  18.168  0.00  0.00    +0.000 HD
BRANCH  15  17
ATOM     17  C   UNL     1       7.818   8.489  17.730  0.00  0.00    +0.000 C 
BRANCH  17  18
ATOM     18  C   UNL     1       8.436   9.760  18.250  0.00  0.00    +0.000 A 
ATOM     19  C   UNL     1       8.320  10.953  17.529  0.00  0.00    +0.000 A 
ATOM     20  C   UNL     1       8.936  12.089  18.027  0.00  0.00    +0.000 A 
ATOM     21  N   UNL     1       9.651  12.117  19.172  0.00  0.00    +0.000 NA
ATOM     22  C   UNL     1       9.761  10.951  19.845  0.00  0.00    +0.000 A 
ATOM     23  C   UNL     1       9.184   9.762  19.428  0.00  0.00    +0.000 A 
ENDBRANCH  17  18
ENDBRANCH  15  17
ENDBRANCH  14  15
ENDBRANCH   1  14
TORSDOF 6
ENDMDL
MODEL 9
REMARK VINA RESULT:      -7.1      3.560      6.291
REMARK  Name = 
REMARK  6 active torsions:
REMARK  status: ('A' for Active; 'I' for Inactive)
REMARK    1  A    between atoms: C_5  and  C_6
REMARK    2  A    between atoms: C_6  and  C_7
REMARK    3  A    between atoms: C_6  and  N_16
REMARK    4  A    between atoms: C_7  and  N_8
REMARK    5  A    between atoms: N_8  and  C_9
REMARK    6  A    between atoms: C_9  and  C_10
REMARK                            x       y       z     vdW  Elec       q    Type
REMARK                         _______ _______ _______ _____ _____    ______ ____
ROOT
ATOM      1  C   UNL     1       3.392   6.054  18.902  0.00  0.00    +0.000 C 
ENDROOT
BRANCH   1   6
ATOM      2 CL   UNL     1       6.561   4.095  14.124  0.00  0.00    +0.000 Cl
ATOM      3  C   UNL     1       5.632   4.659  15.457  0.00  0.00    +0.000 A 
ATOM      4  C   UNL     1       5.165   3.758  16.409  0.00  0.00    +0.000 A 
ATOM      5  C   UNL     1       4.419   4.220  17.497  0.00  0.00    +0.000 A 
ATOM      6  C   UNL     1       4.151   5.592  17.661  0.00  0.00    +0.000 A 
ATOM      7  C   UNL     1       4.618   6.481  16.676  0.00  0.00    +0.000 A 
ATOM      8  C   UNL     1       5.350   6.015  15.581  0.00  0.00    +0.000 A 
ENDBRANCH   1   6
BRANCH   1   9
ATOM      9  N   UNL     1       2.536   4.990  19.437  0.00  0.00    +0.000 N 
ATOM     10  C   UNL     1       1.565   4.285  18.779  0.00  0.00    +0.000 A 
ATOM     11  C   UNL     1       0.906   3.547  19.732  0.00  0.00    +0.000 A 
ATOM     12  C   UNL     1       1.550   3.864  20.939  0.00  0.00    +0.000 A 
ATOM     13  N   UNL     1       2.538   4.746  20.771  0.00  0.00    +0.000 NA
ENDBRANCH   1   9
BRANCH   1  14
ATOM     14  C   UNL     1       2.603   7.385  18.728  0.00  0.00    +0.000 C 
BRANCH  14  15
ATOM     15  N   UNL     1       1.819   7.874  19.873  0.00  0.00    +0.000 NA
ATOM     16  H   UNL     1       2.437   7.979  20.682  0.00  0.00    +0.000 HD
BRANCH  15  17
ATOM     17  C   UNL     1       1.194   9.170  19.625  0.00  0.00    +0.000 C 
BRANCH  17  18
ATOM     18  C   UNL     1       0.618   9.714  20.906  0.00  0.00    +0.000 A 
ATOM     19  C   UNL     1       0.660   8.958  22.081  0.00  0.00    +0.000 A 
ATOM     20  C   UNL     1       0.084   9.484  23.226  0.00  0.00    +0.000 A 
ATOM     21  N   UNL     1      -0.524  10.689  23.278  0.00  0.00    +0.000 NA
ATOM     22  C   UNL     1      -0.564  11.396  22.127  0.00  0.00    +0.000 A 
ATOM     23  C   UNL     1      -0.020  10.956  20.932  0.00  0.00    +0.000 A 
ENDBRANCH  17  18
ENDBRANCH  15  17
ENDBRANCH  14  15
ENDBRANCH   1  14
TORSDOF 6
ENDMDL
