MODEL 1
REMARK VINA RESULT:      -6.8      0.000      0.000
REMARK  Name = 
REMARK  7 active torsions:
REMARK  status: ('A' for Active; 'I' for Inactive)
REMARK    1  A    between atoms: C_1  and  C_2
REMARK    2  A    between atoms: C_6  and  N_7
REMARK    3  A    between atoms: CA_12  and  C_13
REMARK    4  A    between atoms: C_13  and  OXT_15
REMARK    5  A    between atoms: C_21  and  N_22
REMARK    6  A    between atoms: C_28  and  C_29
REMARK    7  A    between atoms: C_29  and  O_31
REMARK                            x       y       z     vdW  Elec       q    Type
REMARK                         _______ _______ _______ _____ _____    ______ ____
ROOT
ATOM      1  C   UNL     1      -2.047  14.352  23.945  0.00  0.00    +0.000 C 
ATOM      2  C   UNL     1      -2.266  12.961  23.324  0.00  0.00    +0.000 C 
ATOM      3  C   UNL     1      -1.099  12.662  22.378  0.00  0.00    +0.000 C 
ATOM      4  O   UNL     1      -1.376  12.005  21.153  0.00  0.00    +0.000 OA
ATOM      5  C   UNL     1      -2.581  12.285  20.555  0.00  0.00    +0.000 A 
ATOM      6  C   UNL     1      -2.651  12.037  19.152  0.00  0.00    +0.000 A 
ATOM      7  C   UNL     1      -3.936  12.070  18.583  0.00  0.00    +0.000 A 
ATOM      8  F   UNL     1      -4.086  11.863  17.264  0.00  0.00    +0.000 F 
ATOM      9  C   UNL     1      -5.067  12.326  19.355  0.00  0.00    +0.000 A 
ATOM     10  C   UNL     1      -4.979  12.609  20.717  0.00  0.00    +0.000 A 
ATOM     11  C   UNL     1      -6.180  12.888  21.553  0.00  0.00    +0.000 A 
ATOM     12  O   UNL     1      -7.298  13.022  21.068  0.00  0.00    +0.000 OA
ATOM     13  C   UNL     1      -6.014  13.011  23.014  0.00  0.00    +0.000 A 
ATOM     14  C   UNL     1      -4.758  13.005  23.475  0.00  0.00    +0.000 A 
ATOM     15  N   UNL     1      -3.607  12.884  22.715  0.00  0.00    +0.000 N 
ATOM     16  C   UNL     1      -3.709  12.613  21.338  0.00  0.00    +0.000 A 
ENDROOT
BRANCH   6  17
ATOM     17  N   UNL     1      -1.522  11.780  18.382  0.00  0.00    +0.000 N 
ATOM     18  C   UNL     1      -0.465  12.768  18.118  0.00  0.00    +0.000 C 
ATOM     19  C   UNL     1       0.885  12.284  18.664  0.00  0.00    +0.000 C 
ATOM     20  N   UNL     1       1.130  10.888  18.347  0.00  0.00    +0.000 N 
ATOM     21  C   UNL     1       2.305  10.207  18.474  0.00  0.00    +0.000 A 
ATOM     22  CA  UNL     1       1.998   8.901  18.152  0.00  0.00    +0.000 A 
ATOM     23  N   UNL     1       0.654   8.787  17.813  0.00  0.00    +0.000 NA
ATOM     24  C   UNL     1       0.156  10.001  17.958  0.00  0.00    +0.000 A 
ATOM     25  C   UNL     1      -1.269  10.449  17.797  0.00  0.00    +0.000 C 
BRANCH  22  26
ATOM     26  C   UNL     1       2.875   7.738  18.159  0.00  0.00    +0.000 C 
ATOM     27  O   UNL     1       3.739   7.506  17.324  0.00  0.00    +0.000 OA
BRANCH  26  28
ATOM     28  OXT UNL     1       2.631   6.928  19.224  0.00  0.00    +0.000 OA
ATOM     29  HXT UNL     1       3.508   6.699  19.608  0.00  0.00    +0.000 HD
ENDBRANCH  26  28
ENDBRANCH  22  26
ENDBRANCH   6  17
BRANCH   9  30
ATOM     30  N   UNL     1      -6.330  12.204  18.679  0.00  0.00    +0.000 N 
ATOM     31  O   UNL     1      -6.767  13.217  18.118  0.00  0.00    +0.000 OA
ATOM     32  O   UNL     1      -6.840  11.076  18.658  0.00  0.00    +0.000 OA
ENDBRANCH   9  30
BRANCH  13  33
ATOM     33  C   UNL     1      -7.127  13.165  23.974  0.00  0.00    +0.000 C 
ATOM     34  O   UNL     1      -7.916  12.265  24.231  0.00  0.00    +0.000 OA
BRANCH  33  35
ATOM     35  O   UNL     1      -7.219  14.384  24.540  0.00  0.00    +0.000 OA
ATOM     36  H   UNL     1      -6.511  15.018  24.267  0.00  0.00    +0.000 HD
ENDBRANCH  33  35
ENDBRANCH  13  33
TORSDOF 6
ENDMDL
MODEL 2
REMARK VINA RESULT:      -6.7      2.389      3.611
REMARK  Name = 
REMARK  7 active torsions:
REMARK  status: ('A' for Active; 'I' for Inactive)
REMARK    1  A    between atoms: C_1  and  C_2
REMARK    2  A    between atoms: C_6  and  N_7
REMARK    3  A    between atoms: CA_12  and  C_13
REMARK    4  A    between atoms: C_13  and  OXT_15
REMARK    5  A    between atoms: C_21  and  N_22
REMARK    6  A    between atoms: C_28  and  C_29
REMARK    7  A    between atoms: C_29  and  O_31
REMARK                            x       y       z     vdW  Elec       q    Type
REMARK                         _______ _______ _______ _____ _____    ______ ____
ROOT
ATOM      1  C   UNL     1      -2.087  14.658  21.974  0.00  0.00    +0.000 C 
ATOM      2  C   UNL     1      -2.306  13.136  21.918  0.00  0.00    +0.000 C 
ATOM      3  C   UNL     1      -0.955  12.443  22.121  0.00  0.00    +0.000 C 
ATOM      4  O   UNL     1      -0.665  11.290  21.350  0.00  0.00    +0.000 OA
ATOM      5  C   UNL     1      -1.179  11.249  20.076  0.00  0.00    +0.000 A 
ATOM      6  C   UNL     1      -0.512  10.377  19.164  0.00  0.00    +0.000 A 
ATOM      7  C   UNL     1      -1.175  10.130  17.950  0.00  0.00    +0.000 A 
ATOM      8  F   UNL     1      -0.605   9.333  17.030  0.00  0.00    +0.000 F 
ATOM      9  C   UNL     1      -2.412  10.704  17.666  0.00  0.00    +0.000 A 
ATOM     10  C   UNL     1      -3.032  11.587  18.548  0.00  0.00    +0.000 A 
ATOM     11  C   UNL     1      -4.353  12.211  18.255  0.00  0.00    +0.000 A 
ATOM     12  O   UNL     1      -4.905  12.094  17.167  0.00  0.00    +0.000 OA
ATOM     13  C   UNL     1      -5.014  13.000  19.312  0.00  0.00    +0.000 A 
ATOM     14  C   UNL     1      -4.305  13.221  20.425  0.00  0.00    +0.000 A 
ATOM     15  N   UNL     1      -3.020  12.772  20.681  0.00  0.00    +0.000 N 
ATOM     16  C   UNL     1      -2.399  11.892  19.775  0.00  0.00    +0.000 A 
ENDROOT
BRANCH   6  17
ATOM     17  N   UNL     1       0.723   9.803  19.448  0.00  0.00    +0.000 N 
ATOM     18  C   UNL     1       1.082   9.232  20.755  0.00  0.00    +0.000 C 
ATOM     19  C   UNL     1       1.411   7.739  20.627  0.00  0.00    +0.000 C 
ATOM     20  N   UNL     1       2.262   7.466  19.481  0.00  0.00    +0.000 N 
ATOM     21  C   UNL     1       2.924   6.308  19.203  0.00  0.00    +0.000 A 
ATOM     22  CA  UNL     1       3.497   6.512  17.964  0.00  0.00    +0.000 A 
ATOM     23  N   UNL     1       3.204   7.789  17.498  0.00  0.00    +0.000 NA
ATOM     24  C   UNL     1       2.443   8.332  18.430  0.00  0.00    +0.000 A 
ATOM     25  C   UNL     1       1.774   9.677  18.420  0.00  0.00    +0.000 C 
BRANCH  22  26
ATOM     26  C   UNL     1       4.288   5.582  17.169  0.00  0.00    +0.000 C 
ATOM     27  O   UNL     1       4.211   4.363  17.232  0.00  0.00    +0.000 OA
BRANCH  26  28
ATOM     28  OXT UNL     1       5.132   6.233  16.323  0.00  0.00    +0.000 OA
ATOM     29  HXT UNL     1       4.576   6.582  15.589  0.00  0.00    +0.000 HD
ENDBRANCH  26  28
ENDBRANCH  22  26
ENDBRANCH   6  17
BRANCH   9  30
ATOM     30  N   UNL     1      -3.042  10.270  16.449  0.00  0.00    +0.000 N 
ATOM     31  O   UNL     1      -2.766  10.898  15.418  0.00  0.00    +0.000 OA
ATOM     32  O   UNL     1      -3.756   9.261  16.524  0.00  0.00    +0.000 OA
ENDBRANCH   9  30
BRANCH  13  33
ATOM     33  C   UNL     1      -6.373  13.571  19.206  0.00  0.00    +0.000 C 
ATOM     34  O   UNL     1      -7.303  13.219  19.920  0.00  0.00    +0.000 OA
BRANCH  33  35
ATOM     35  O   UNL     1      -6.518  14.506  18.246  0.00  0.00    +0.000 OA
ATOM     36  H   UNL     1      -6.330  14.186  17.330  0.00  0.00    +0.000 HD
ENDBRANCH  33  35
ENDBRANCH  13  33
TORSDOF 6
ENDMDL
MODEL 3
REMARK VINA RESULT:      -6.5      2.599      8.055
REMARK  Name = 
REMARK  7 active torsions:
REMARK  status: ('A' for Active; 'I' for Inactive)
REMARK    1  A    between atoms: C_1  and  C_2
REMARK    2  A    between atoms: C_6  and  N_7
REMARK    3  A    between atoms: CA_12  and  C_13
REMARK    4  A    between atoms: C_13  and  OXT_15
REMARK    5  A    between atoms: C_21  and  N_22
REMARK    6  A    between atoms: C_28  and  C_29
REMARK    7  A    between atoms: C_29  and  O_31
REMARK                            x       y       z     vdW  Elec       q    Type
REMARK                         _______ _______ _______ _____ _____    ______ ____
ROOT
ATOM      1  C   UNL     1      -0.422  10.181  23.098  0.00  0.00    +0.000 C 
ATOM      2  C   UNL     1      -0.595  11.422  22.206  0.00  0.00    +0.000 C 
ATOM      3  C   UNL     1      -1.786  12.232  22.726  0.00  0.00    +0.000 C 
ATOM      4  O   UNL     1      -2.659  12.830  21.782  0.00  0.00    +0.000 OA
ATOM      5  C   UNL     1      -2.858  12.152  20.603  0.00  0.00    +0.000 A 
ATOM      6  C   UNL     1      -4.057  12.470  19.898  0.00  0.00    +0.000 A 
ATOM      7  C   UNL     1      -4.145  11.986  18.581  0.00  0.00    +0.000 A 
ATOM      8  F   UNL     1      -5.249  12.228  17.855  0.00  0.00    +0.000 F 
ATOM      9  C   UNL     1      -3.115  11.244  18.008  0.00  0.00    +0.000 A 
ATOM     10  C   UNL     1      -1.968  10.905  18.723  0.00  0.00    +0.000 A 
ATOM     11  C   UNL     1      -0.860  10.108  18.123  0.00  0.00    +0.000 A 
ATOM     12  O   UNL     1      -0.953   9.589  17.016  0.00  0.00    +0.000 OA
ATOM     13  C   UNL     1       0.387   9.937  18.893  0.00  0.00    +0.000 A 
ATOM     14  C   UNL     1       0.381  10.395  20.150  0.00  0.00    +0.000 A 
ATOM     15  N   UNL     1      -0.676  11.020  20.790  0.00  0.00    +0.000 N 
ATOM     16  C   UNL     1      -1.835  11.344  20.060  0.00  0.00    +0.000 A 
ENDROOT
BRANCH   6  17
ATOM     17  N   UNL     1      -5.085  13.213  20.470  0.00  0.00    +0.000 N 
ATOM     18  C   UNL     1      -6.256  12.619  21.132  0.00  0.00    +0.000 C 
ATOM     19  C   UNL     1      -6.325  13.044  22.605  0.00  0.00    +0.000 C 
ATOM     20  N   UNL     1      -6.062  14.462  22.775  0.00  0.00    +0.000 N 
ATOM     21  C   UNL     1      -6.264  15.210  23.897  0.00  0.00    +0.000 A 
ATOM     22  CA  UNL     1      -5.764  16.459  23.589  0.00  0.00    +0.000 A 
ATOM     23  N   UNL     1      -5.279  16.481  22.286  0.00  0.00    +0.000 NA
ATOM     24  C   UNL     1      -5.459  15.255  21.829  0.00  0.00    +0.000 A 
ATOM     25  C   UNL     1      -5.051  14.688  20.499  0.00  0.00    +0.000 C 
BRANCH  22  26
ATOM     26  C   UNL     1      -5.688  17.637  24.442  0.00  0.00    +0.000 C 
ATOM     27  O   UNL     1      -6.443  18.598  24.381  0.00  0.00    +0.000 OA
BRANCH  26  28
ATOM     28  OXT UNL     1      -4.670  17.545  25.341  0.00  0.00    +0.000 OA
ATOM     29  HXT UNL     1      -5.020  17.035  26.107  0.00  0.00    +0.000 HD
ENDBRANCH  26  28
ENDBRANCH  22  26
ENDBRANCH   6  17
BRANCH   9  30
ATOM     30  N   UNL     1      -3.274  10.919  16.617  0.00  0.00    +0.000 N 
ATOM     31  O   UNL     1      -3.890   9.879  16.349  0.00  0.00    +0.000 OA
ATOM     32  O   UNL     1      -2.838  11.744  15.802  0.00  0.00    +0.000 OA
ENDBRANCH   9  30
BRANCH  13  33
ATOM     33  C   UNL     1       1.606   9.280  18.377  0.00  0.00    +0.000 C 
ATOM     34  O   UNL     1       2.050   8.238  18.841  0.00  0.00    +0.000 OA
BRANCH  33  35
ATOM     35  O   UNL     1       2.206   9.926  17.358  0.00  0.00    +0.000 OA
ATOM     36  H   UNL     1       1.595  10.212  16.637  0.00  0.00    +0.000 HD
ENDBRANCH  33  35
ENDBRANCH  13  33
TORSDOF 6
ENDMDL
MODEL 4
REMARK VINA RESULT:      -6.4      4.983      6.463
REMARK  Name = 
REMARK  7 active torsions:
REMARK  status: ('A' for Active; 'I' for Inactive)
REMARK    1  A    between atoms: C_1  and  C_2
REMARK    2  A    between atoms: C_6  and  N_7
REMARK    3  A    between atoms: CA_12  and  C_13
REMARK    4  A    between atoms: C_13  and  OXT_15
REMARK    5  A    between atoms: C_21  and  N_22
REMARK    6  A    between atoms: C_28  and  C_29
REMARK    7  A    between atoms: C_29  and  O_31
REMARK                            x       y       z     vdW  Elec       q    Type
REMARK                         _______ _______ _______ _____ _____    ______ ____
ROOT
ATOM      1  C   UNL     1      -0.197   9.580  23.227  0.00  0.00    +0.000 C 
ATOM      2  C   UNL     1      -0.564  10.495  22.045  0.00  0.00    +0.000 C 
ATOM      3  C   UNL     1       0.684  10.695  21.180  0.00  0.00    +0.000 C 
ATOM      4  O   UNL     1       0.926  11.979  20.631  0.00  0.00    +0.000 OA
ATOM      5  C   UNL     1       0.532  13.061  21.382  0.00  0.00    +0.000 A 
ATOM      6  C   UNL     1       1.190  14.293  21.090  0.00  0.00    +0.000 A 
ATOM      7  C   UNL     1       0.621  15.445  21.660  0.00  0.00    +0.000 A 
ATOM      8  F   UNL     1       1.190  16.644  21.447  0.00  0.00    +0.000 F 
ATOM      9  C   UNL     1      -0.518  15.376  22.457  0.00  0.00    +0.000 A 
ATOM     10  C   UNL     1      -1.125  14.161  22.770  0.00  0.00    +0.000 A 
ATOM     11  C   UNL     1      -2.342  14.073  23.625  0.00  0.00    +0.000 A 
ATOM     12  O   UNL     1      -2.799  15.046  24.215  0.00  0.00    +0.000 OA
ATOM     13  C   UNL     1      -3.016  12.768  23.767  0.00  0.00    +0.000 A 
ATOM     14  C   UNL     1      -2.395  11.713  23.226  0.00  0.00    +0.000 A 
ATOM     15  N   UNL     1      -1.192  11.733  22.540  0.00  0.00    +0.000 N 
ATOM     16  C   UNL     1      -0.582  12.966  22.244  0.00  0.00    +0.000 A 
ENDROOT
BRANCH   6  17
ATOM     17  N   UNL     1       2.327  14.361  20.293  0.00  0.00    +0.000 N 
ATOM     18  C   UNL     1       2.296  14.498  18.828  0.00  0.00    +0.000 C 
ATOM     19  C   UNL     1       2.988  15.794  18.386  0.00  0.00    +0.000 C 
ATOM     20  N   UNL     1       4.241  16.009  19.088  0.00  0.00    +0.000 N 
ATOM     21  C   UNL     1       5.210  16.920  18.787  0.00  0.00    +0.000 A 
ATOM     22  CA  UNL     1       6.138  16.804  19.803  0.00  0.00    +0.000 A 
ATOM     23  N   UNL     1       5.751  15.819  20.705  0.00  0.00    +0.000 NA
ATOM     24  C   UNL     1       4.593  15.371  20.253  0.00  0.00    +0.000 A 
ATOM     25  C   UNL     1       3.683  14.350  20.874  0.00  0.00    +0.000 C 
BRANCH  22  26
ATOM     26  C   UNL     1       7.361  17.570  20.001  0.00  0.00    +0.000 C 
ATOM     27  O   UNL     1       7.949  17.690  21.067  0.00  0.00    +0.000 OA
BRANCH  26  28
ATOM     28  OXT UNL     1       7.793  18.140  18.843  0.00  0.00    +0.000 OA
ATOM     29  HXT UNL     1       7.928  19.096  19.036  0.00  0.00    +0.000 HD
ENDBRANCH  26  28
ENDBRANCH  22  26
ENDBRANCH   6  17
BRANCH   9  30
ATOM     30  N   UNL     1      -1.072  16.637  22.872  0.00  0.00    +0.000 N 
ATOM     31  O   UNL     1      -0.641  17.120  23.927  0.00  0.00    +0.000 OA
ATOM     32  O   UNL     1      -1.886  17.164  22.102  0.00  0.00    +0.000 OA
ENDBRANCH   9  30
BRANCH  13  33
ATOM     33  C   UNL     1      -4.293  12.558  24.479  0.00  0.00    +0.000 C 
ATOM     34  O   UNL     1      -5.338  12.275  23.908  0.00  0.00    +0.000 OA
BRANCH  33  35
ATOM     35  O   UNL     1      -4.226  12.716  25.816  0.00  0.00    +0.000 OA
ATOM     36  H   UNL     1      -4.077  11.880  26.321  0.00  0.00    +0.000 HD
ENDBRANCH  33  35
ENDBRANCH  13  33
TORSDOF 6
ENDMDL
MODEL 5
REMARK VINA RESULT:      -6.4      2.961      3.572
REMARK  Name = 
REMARK  7 active torsions:
REMARK  status: ('A' for Active; 'I' for Inactive)
REMARK    1  A    between atoms: C_1  and  C_2
REMARK    2  A    between atoms: C_6  and  N_7
REMARK    3  A    between atoms: CA_12  and  C_13
REMARK    4  A    between atoms: C_13  and  OXT_15
REMARK    5  A    between atoms: C_21  and  N_22
REMARK    6  A    between atoms: C_28  and  C_29
REMARK    7  A    between atoms: C_29  and  O_31
REMARK                            x       y       z     vdW  Elec       q    Type
REMARK                         _______ _______ _______ _____ _____    ______ ____
ROOT
ATOM      1  C   UNL     1      -3.215  15.359  24.775  0.00  0.00    +0.000 C 
ATOM      2  C   UNL     1      -2.765  13.992  24.230  0.00  0.00    +0.000 C 
ATOM      3  C   UNL     1      -1.376  14.153  23.603  0.00  0.00    +0.000 C 
ATOM      4  O   UNL     1      -1.094  13.456  22.402  0.00  0.00    +0.000 OA
ATOM      5  C   UNL     1      -2.136  13.282  21.523  0.00  0.00    +0.000 A 
ATOM      6  C   UNL     1      -1.772  13.043  20.165  0.00  0.00    +0.000 A 
ATOM      7  C   UNL     1      -2.805  12.610  19.316  0.00  0.00    +0.000 A 
ATOM      8  F   UNL     1      -2.547  12.379  18.018  0.00  0.00    +0.000 F 
ATOM      9  C   UNL     1      -4.102  12.424  19.786  0.00  0.00    +0.000 A 
ATOM     10  C   UNL     1      -4.454  12.702  21.106  0.00  0.00    +0.000 A 
ATOM     11  C   UNL     1      -5.839  12.512  21.620  0.00  0.00    +0.000 A 
ATOM     12  O   UNL     1      -6.778  12.233  20.882  0.00  0.00    +0.000 OA
ATOM     13  C   UNL     1      -6.087  12.669  23.065  0.00  0.00    +0.000 A 
ATOM     14  C   UNL     1      -5.064  13.118  23.802  0.00  0.00    +0.000 A 
ATOM     15  N   UNL     1      -3.798  13.437  23.338  0.00  0.00    +0.000 N 
ATOM     16  C   UNL     1      -3.460  13.165  21.999  0.00  0.00    +0.000 A 
ENDROOT
BRANCH   6  17
ATOM     17  N   UNL     1      -0.475  13.228  19.697  0.00  0.00    +0.000 N 
ATOM     18  C   UNL     1      -0.105  14.210  18.667  0.00  0.00    +0.000 C 
ATOM     19  C   UNL     1       0.897  15.232  19.220  0.00  0.00    +0.000 C 
ATOM     20  N   UNL     1       1.947  14.597  19.998  0.00  0.00    +0.000 N 
ATOM     21  C   UNL     1       3.107  15.164  20.436  0.00  0.00    +0.000 A 
ATOM     22  CA  UNL     1       3.708  14.195  21.213  0.00  0.00    +0.000 A 
ATOM     23  N   UNL     1       2.933  13.040  21.235  0.00  0.00    +0.000 NA
ATOM     24  C   UNL     1       1.869  13.323  20.506  0.00  0.00    +0.000 A 
ATOM     25  C   UNL     1       0.663  12.466  20.247  0.00  0.00    +0.000 C 
BRANCH  22  26
ATOM     26  C   UNL     1       4.956  14.280  21.959  0.00  0.00    +0.000 C 
ATOM     27  O   UNL     1       6.005  14.736  21.524  0.00  0.00    +0.000 OA
BRANCH  26  28
ATOM     28  OXT UNL     1       4.822  13.797  23.225  0.00  0.00    +0.000 OA
ATOM     29  HXT UNL     1       5.643  13.290  23.418  0.00  0.00    +0.000 HD
ENDBRANCH  26  28
ENDBRANCH  22  26
ENDBRANCH   6  17
BRANCH   9  30
ATOM     30  N   UNL     1      -5.034  11.856  18.849  0.00  0.00    +0.000 N 
ATOM     31  O   UNL     1      -5.145  10.623  18.844  0.00  0.00    +0.000 OA
ATOM     32  O   UNL     1      -5.695  12.656  18.173  0.00  0.00    +0.000 OA
ENDBRANCH   9  30
BRANCH  13  33
ATOM     33  C   UNL     1      -7.377  12.392  23.729  0.00  0.00    +0.000 C 
ATOM     34  O   UNL     1      -7.916  13.179  24.497  0.00  0.00    +0.000 OA
BRANCH  33  35
ATOM     35  O   UNL     1      -7.916  11.192  23.437  0.00  0.00    +0.000 OA
ATOM     36  H   UNL     1      -7.323  10.422  23.614  0.00  0.00    +0.000 HD
ENDBRANCH  33  35
ENDBRANCH  13  33
TORSDOF 6
ENDMDL
MODEL 6
REMARK VINA RESULT:      -6.3      3.043      7.335
REMARK  Name = 
REMARK  7 active torsions:
REMARK  status: ('A' for Active; 'I' for Inactive)
REMARK    1  A    between atoms: C_1  and  C_2
REMARK    2  A    between atoms: C_6  and  N_7
REMARK    3  A    between atoms: CA_12  and  C_13
REMARK    4  A    between atoms: C_13  and  OXT_15
REMARK    5  A    between atoms: C_21  and  N_22
REMARK    6  A    between atoms: C_28  and  C_29
REMARK    7  A    between atoms: C_29  and  O_31
REMARK                            x       y       z     vdW  Elec       q    Type
REMARK                         _______ _______ _______ _____ _____    ______ ____
ROOT
ATOM      1  C   UNL     1      -0.421  10.024  20.354  0.00  0.00    +0.000 C 
ATOM      2  C   UNL     1      -0.797  11.490  20.073  0.00  0.00    +0.000 C 
ATOM      3  C   UNL     1      -0.905  12.228  21.410  0.00  0.00    +0.000 C 
ATOM      4  O   UNL     1      -1.946  13.177  21.574  0.00  0.00    +0.000 OA
ATOM      5  C   UNL     1      -3.132  12.917  20.930  0.00  0.00    +0.000 A 
ATOM      6  C   UNL     1      -4.285  13.564  21.466  0.00  0.00    +0.000 A 
ATOM      7  C   UNL     1      -5.443  13.517  20.671  0.00  0.00    +0.000 A 
ATOM      8  F   UNL     1      -6.577  14.088  21.112  0.00  0.00    +0.000 F 
ATOM      9  C   UNL     1      -5.451  12.877  19.434  0.00  0.00    +0.000 A 
ATOM     10  C   UNL     1      -4.329  12.212  18.943  0.00  0.00    +0.000 A 
ATOM     11  C   UNL     1      -4.326  11.521  17.623  0.00  0.00    +0.000 A 
ATOM     12  O   UNL     1      -5.346  11.377  16.957  0.00  0.00    +0.000 OA
ATOM     13  C   UNL     1      -3.052  10.987  17.105  0.00  0.00    +0.000 A 
ATOM     14  C   UNL     1      -2.002  11.038  17.934  0.00  0.00    +0.000 A 
ATOM     15  N   UNL     1      -1.998  11.549  19.221  0.00  0.00    +0.000 N 
ATOM     16  C   UNL     1      -3.143  12.206  19.711  0.00  0.00    +0.000 A 
ENDROOT
BRANCH   6  17
ATOM     17  N   UNL     1      -4.276  14.204  22.700  0.00  0.00    +0.000 N 
ATOM     18  C   UNL     1      -4.652  13.555  23.965  0.00  0.00    +0.000 C 
ATOM     19  C   UNL     1      -3.476  13.556  24.951  0.00  0.00    +0.000 C 
ATOM     20  N   UNL     1      -2.802  14.842  24.992  0.00  0.00    +0.000 N 
ATOM     21  C   UNL     1      -1.880  15.261  25.905  0.00  0.00    +0.000 A 
ATOM     22  CA  UNL     1      -1.466  16.498  25.452  0.00  0.00    +0.000 A 
ATOM     23  N   UNL     1      -2.141  16.840  24.286  0.00  0.00    +0.000 NA
ATOM     24  C   UNL     1      -2.928  15.811  24.027  0.00  0.00    +0.000 A 
ATOM     25  C   UNL     1      -3.831  15.604  22.844  0.00  0.00    +0.000 C 
BRANCH  22  26
ATOM     26  C   UNL     1      -0.460  17.380  26.028  0.00  0.00    +0.000 C 
ATOM     27  O   UNL     1      -0.655  18.538  26.371  0.00  0.00    +0.000 OA
BRANCH  26  28
ATOM     28  OXT UNL     1       0.744  16.758  26.156  0.00  0.00    +0.000 OA
ATOM     29  HXT UNL     1       1.323  17.371  26.664  0.00  0.00    +0.000 HD
ENDBRANCH  26  28
ENDBRANCH  22  26
ENDBRANCH   6  17
BRANCH   9  30
ATOM     30  N   UNL     1      -6.659  13.011  18.665  0.00  0.00    +0.000 N 
ATOM     31  O   UNL     1      -7.542  12.164  18.853  0.00  0.00    +0.000 OA
ATOM     32  O   UNL     1      -6.739  14.004  17.929  0.00  0.00    +0.000 OA
ENDBRANCH   9  30
BRANCH  13  33
ATOM     33  C   UNL     1      -2.876  10.390  15.765  0.00  0.00    +0.000 C 
ATOM     34  O   UNL     1      -2.304   9.324  15.579  0.00  0.00    +0.000 OA
BRANCH  33  35
ATOM     35  O   UNL     1      -3.384  11.119  14.752  0.00  0.00    +0.000 OA
ATOM     36  H   UNL     1      -4.119  11.726  15.011  0.00  0.00    +0.000 HD
ENDBRANCH  33  35
ENDBRANCH  13  33
TORSDOF 6
ENDMDL
MODEL 7
REMARK VINA RESULT:      -6.2      3.179      8.098
REMARK  Name = 
REMARK  7 active torsions:
REMARK  status: ('A' for Active; 'I' for Inactive)
REMARK    1  A    between atoms: C_1  and  C_2
REMARK    2  A    between atoms: C_6  and  N_7
REMARK    3  A    between atoms: CA_12  and  C_13
REMARK    4  A    between atoms: C_13  and  OXT_15
REMARK    5  A    between atoms: C_21  and  N_22
REMARK    6  A    between atoms: C_28  and  C_29
REMARK    7  A    between atoms: C_29  and  O_31
REMARK                            x       y       z     vdW  Elec       q    Type
REMARK                         _______ _______ _______ _____ _____    ______ ____
ROOT
ATOM      1  C   UNL     1      -6.813  13.899  16.585  0.00  0.00    +0.000 C 
ATOM      2  C   UNL     1      -6.607  12.829  17.671  0.00  0.00    +0.000 C 
ATOM      3  C   UNL     1      -6.878  13.466  19.038  0.00  0.00    +0.000 C 
ATOM      4  O   UNL     1      -6.042  13.109  20.125  0.00  0.00    +0.000 OA
ATOM      5  C   UNL     1      -4.726  12.838  19.836  0.00  0.00    +0.000 A 
ATOM      6  C   UNL     1      -3.811  12.967  20.923  0.00  0.00    +0.000 A 
ATOM      7  C   UNL     1      -2.523  12.447  20.709  0.00  0.00    +0.000 A 
ATOM      8  F   UNL     1      -1.597  12.544  21.678  0.00  0.00    +0.000 F 
ATOM      9  C   UNL     1      -2.173  11.841  19.505  0.00  0.00    +0.000 A 
ATOM     10  C   UNL     1      -3.065  11.760  18.436  0.00  0.00    +0.000 A 
ATOM     11  C   UNL     1      -2.702  11.118  17.142  0.00  0.00    +0.000 A 
ATOM     12  O   UNL     1      -1.560  10.748  16.892  0.00  0.00    +0.000 OA
ATOM     13  C   UNL     1      -3.755  10.926  16.126  0.00  0.00    +0.000 A 
ATOM     14  C   UNL     1      -4.945  11.480  16.387  0.00  0.00    +0.000 A 
ATOM     15  N   UNL     1      -5.282  12.203  17.520  0.00  0.00    +0.000 N 
ATOM     16  C   UNL     1      -4.367  12.289  18.586  0.00  0.00    +0.000 A 
ENDROOT
BRANCH   6  17
ATOM     17  N   UNL     1      -4.161  13.571  22.126  0.00  0.00    +0.000 N 
ATOM     18  C   UNL     1      -4.623  12.834  23.311  0.00  0.00    +0.000 C 
ATOM     19  C   UNL     1      -3.675  13.056  24.497  0.00  0.00    +0.000 C 
ATOM     20  N   UNL     1      -3.298  14.451  24.637  0.00  0.00    +0.000 N 
ATOM     21  C   UNL     1      -2.666  15.033  25.697  0.00  0.00    +0.000 A 
ATOM     22  CA  UNL     1      -2.437  16.337  25.305  0.00  0.00    +0.000 A 
ATOM     23  N   UNL     1      -2.942  16.556  24.028  0.00  0.00    +0.000 NA
ATOM     24  C   UNL     1      -3.439  15.393  23.648  0.00  0.00    +0.000 A 
ATOM     25  C   UNL     1      -4.046  15.029  22.323  0.00  0.00    +0.000 C 
BRANCH  22  26
ATOM     26  C   UNL     1      -1.757  17.394  26.040  0.00  0.00    +0.000 C 
ATOM     27  O   UNL     1      -2.035  18.584  25.977  0.00  0.00    +0.000 OA
BRANCH  26  28
ATOM     28  OXT UNL     1      -0.764  16.902  26.830  0.00  0.00    +0.000 OA
ATOM     29  HXT UNL     1      -1.203  16.361  27.525  0.00  0.00    +0.000 HD
ENDBRANCH  26  28
ENDBRANCH  22  26
ENDBRANCH   6  17
BRANCH   9  30
ATOM     30  N   UNL     1      -0.869  11.237  19.461  0.00  0.00    +0.000 N 
ATOM     31  O   UNL     1      -0.793  10.039  19.764  0.00  0.00    +0.000 OA
ATOM     32  O   UNL     1       0.058  11.952  19.058  0.00  0.00    +0.000 OA
ENDBRANCH   9  30
BRANCH  13  33
ATOM     33  C   UNL     1      -3.569  10.199  14.854  0.00  0.00    +0.000 C 
ATOM     34  O   UNL     1      -2.471  10.016  14.343  0.00  0.00    +0.000 OA
BRANCH  33  35
ATOM     35  O   UNL     1      -4.708   9.760  14.284  0.00  0.00    +0.000 OA
ATOM     36  H   UNL     1      -4.723   9.820  13.297  0.00  0.00    +0.000 HD
ENDBRANCH  33  35
ENDBRANCH  13  33
TORSDOF 6
ENDMDL
MODEL 8
REMARK VINA RESULT:      -6.1      3.371      5.402
REMARK  Name = 
REMARK  7 active torsions:
REMARK  status: ('A' for Active; 'I' for Inactive)
REMARK    1  A    between atoms: C_1  and  C_2
REMARK    2  A    between atoms: C_6  and  N_7
REMARK    3  A    between atoms: CA_12  and  C_13
REMARK    4  A    between atoms: C_13  and  OXT_15
REMARK    5  A    between atoms: C_21  and  N_22
REMARK    6  A    between atoms: C_28  and  C_29
REMARK    7  A    between atoms: C_29  and  O_31
REMARK                            x       y       z     vdW  Elec       q    Type
REMARK                         _______ _______ _______ _____ _____    ______ ____
ROOT
ATOM      1  C   UNL     1      -3.906  13.449  24.516  0.00  0.00    +0.000 C 
ATOM      2  C   UNL     1      -3.505  13.801  23.072  0.00  0.00    +0.000 C 
ATOM      3  C   UNL     1      -3.464  12.508  22.252  0.00  0.00    +0.000 C 
ATOM      4  O   UNL     1      -2.426  12.347  21.299  0.00  0.00    +0.000 OA
ATOM      5  C   UNL     1      -1.209  12.907  21.603  0.00  0.00    +0.000 A 
ATOM      6  C   UNL     1      -0.082  12.351  20.929  0.00  0.00    +0.000 A 
ATOM      7  C   UNL     1       1.117  13.077  21.031  0.00  0.00    +0.000 A 
ATOM      8  F   UNL     1       2.229  12.611  20.437  0.00  0.00    +0.000 F 
ATOM      9  C   UNL     1       1.188  14.269  21.747  0.00  0.00    +0.000 A 
ATOM     10  C   UNL     1       0.089  14.778  22.437  0.00  0.00    +0.000 A 
ATOM     11  C   UNL     1       0.153  16.051  23.210  0.00  0.00    +0.000 A 
ATOM     12  O   UNL     1       1.206  16.649  23.399  0.00  0.00    +0.000 OA
ATOM     13  C   UNL     1      -1.096  16.603  23.769  0.00  0.00    +0.000 A 
ATOM     14  C   UNL     1      -2.188  15.838  23.663  0.00  0.00    +0.000 A 
ATOM     15  N   UNL     1      -2.258  14.588  23.071  0.00  0.00    +0.000 N 
ATOM     16  C   UNL     1      -1.137  14.078  22.390  0.00  0.00    +0.000 A 
ENDROOT
BRANCH   6  17
ATOM     17  N   UNL     1      -0.154  11.161  20.212  0.00  0.00    +0.000 N 
ATOM     18  C   UNL     1      -0.390  11.088  18.762  0.00  0.00    +0.000 C 
ATOM     19  C   UNL     1       0.789  10.415  18.049  0.00  0.00    +0.000 C 
ATOM     20  N   UNL     1       1.241   9.226  18.750  0.00  0.00    +0.000 N 
ATOM     21  C   UNL     1       2.100   8.272  18.289  0.00  0.00    +0.000 A 
ATOM     22  CA  UNL     1       2.293   7.418  19.356  0.00  0.00    +0.000 A 
ATOM     23  N   UNL     1       1.546   7.834  20.453  0.00  0.00    +0.000 NA
ATOM     24  C   UNL     1       0.936   8.937  20.058  0.00  0.00    +0.000 A 
ATOM     25  C   UNL     1       0.056   9.852  20.861  0.00  0.00    +0.000 C 
BRANCH  22  26
ATOM     26  C   UNL     1       3.150   6.243  19.429  0.00  0.00    +0.000 C 
ATOM     27  O   UNL     1       3.973   5.920  18.583  0.00  0.00    +0.000 OA
BRANCH  26  28
ATOM     28  OXT UNL     1       2.939   5.534  20.572  0.00  0.00    +0.000 OA
ATOM     29  HXT UNL     1       2.264   4.851  20.356  0.00  0.00    +0.000 HD
ENDBRANCH  26  28
ENDBRANCH  22  26
ENDBRANCH   6  17
BRANCH   9  30
ATOM     30  N   UNL     1       2.437  14.977  21.666  0.00  0.00    +0.000 N 
ATOM     31  O   UNL     1       3.297  14.698  22.511  0.00  0.00    +0.000 OA
ATOM     32  O   UNL     1       2.569  15.759  20.715  0.00  0.00    +0.000 OA
ENDBRANCH   9  30
BRANCH  13  33
ATOM     33  C   UNL     1      -1.203  17.910  24.449  0.00  0.00    +0.000 C 
ATOM     34  O   UNL     1      -2.200  18.617  24.385  0.00  0.00    +0.000 OA
BRANCH  33  35
ATOM     35  O   UNL     1      -0.105  18.278  25.140  0.00  0.00    +0.000 OA
ATOM     36  H   UNL     1       0.639  17.629  25.103  0.00  0.00    +0.000 HD
ENDBRANCH  33  35
ENDBRANCH  13  33
TORSDOF 6
ENDMDL
MODEL 9
REMARK VINA RESULT:      -6.1      3.865      5.517
REMARK  Name = 
REMARK  7 active torsions:
REMARK  status: ('A' for Active; 'I' for Inactive)
REMARK    1  A    between atoms: C_1  and  C_2
REMARK    2  A    between atoms: C_6  and  N_7
REMARK    3  A    between atoms: CA_12  and  C_13
REMARK    4  A    between atoms: C_13  and  OXT_15
REMARK    5  A    between atoms: C_21  and  N_22
REMARK    6  A    between atoms: C_28  and  C_29
REMARK    7  A    between atoms: C_29  and  O_31
REMARK                            x       y       z     vdW  Elec       q    Type
REMARK                         _______ _______ _______ _____ _____    ______ ____
ROOT
ATOM      1  C   UNL     1      -3.028   9.826  17.533  0.00  0.00    +0.000 C 
ATOM      2  C   UNL     1      -2.979  11.362  17.614  0.00  0.00    +0.000 C 
ATOM      3  C   UNL     1      -1.526  11.812  17.436  0.00  0.00    +0.000 C 
ATOM      4  O   UNL     1      -1.050  12.884  18.232  0.00  0.00    +0.000 OA
ATOM      5  C   UNL     1      -1.564  12.994  19.501  0.00  0.00    +0.000 A 
ATOM      6  C   UNL     1      -0.768  13.720  20.435  0.00  0.00    +0.000 A 
ATOM      7  C   UNL     1      -1.393  14.059  21.647  0.00  0.00    +0.000 A 
ATOM      8  F   UNL     1      -0.705  14.730  22.586  0.00  0.00    +0.000 F 
ATOM      9  C   UNL     1      -2.714  13.705  21.908  0.00  0.00    +0.000 A 
ATOM     10  C   UNL     1      -3.467  12.958  21.004  0.00  0.00    +0.000 A 
ATOM     11  C   UNL     1      -4.881  12.569  21.273  0.00  0.00    +0.000 A 
ATOM     12  O   UNL     1      -5.417  12.763  22.359  0.00  0.00    +0.000 OA
ATOM     13  C   UNL     1      -5.656  11.925  20.196  0.00  0.00    +0.000 A 
ATOM     14  C   UNL     1      -4.982  11.602  19.086  0.00  0.00    +0.000 A 
ATOM     15  N   UNL     1      -3.635  11.824  18.851  0.00  0.00    +0.000 N 
ATOM     16  C   UNL     1      -2.882  12.568  19.778  0.00  0.00    +0.000 A 
ENDROOT
BRANCH   6  17
ATOM     17  N   UNL     1       0.552  14.075  20.173  0.00  0.00    +0.000 N 
ATOM     18  C   UNL     1       0.947  15.301  19.462  0.00  0.00    +0.000 C 
ATOM     19  C   UNL     1       1.815  16.196  20.357  0.00  0.00    +0.000 C 
ATOM     20  N   UNL     1       2.828  15.435  21.067  0.00  0.00    +0.000 N 
ATOM     21  C   UNL     1       3.897  15.926  21.756  0.00  0.00    +0.000 A 
ATOM     22  CA  UNL     1       4.489  14.821  22.334  0.00  0.00    +0.000 A 
ATOM     23  N   UNL     1       3.801  13.664  21.986  0.00  0.00    +0.000 NA
ATOM     24  C   UNL     1       2.794  14.072  21.235  0.00  0.00    +0.000 A 
ATOM     25  C   UNL     1       1.683  13.253  20.642  0.00  0.00    +0.000 C 
BRANCH  22  26
ATOM     26  C   UNL     1       5.650  14.774  23.212  0.00  0.00    +0.000 C 
ATOM     27  O   UNL     1       6.811  14.905  22.849  0.00  0.00    +0.000 OA
BRANCH  26  28
ATOM     28  OXT UNL     1       5.294  14.573  24.510  0.00  0.00    +0.000 OA
ATOM     29  HXT UNL     1       4.955  15.436  24.842  0.00  0.00    +0.000 HD
ENDBRANCH  26  28
ENDBRANCH  22  26
ENDBRANCH   6  17
BRANCH   9  30
ATOM     30  N   UNL     1      -3.274  14.222  23.127  0.00  0.00    +0.000 N 
ATOM     31  O   UNL     1      -3.115  13.545  24.151  0.00  0.00    +0.000 OA
ATOM     32  O   UNL     1      -3.811  15.336  23.061  0.00  0.00    +0.000 OA
ENDBRANCH   9  30
BRANCH  13  33
ATOM     33  C   UNL     1      -7.094  11.598  20.279  0.00  0.00    +0.000 C 
ATOM     34  O   UNL     1      -7.911  11.962  19.443  0.00  0.00    +0.000 OA
BRANCH  33  35
ATOM     35  O   UNL     1      -7.446  10.875  21.361  0.00  0.00    +0.000 OA
ATOM     36  H   UNL     1      -7.324   9.900  21.260  0.00  0.00    +0.000 HD
ENDBRANCH  33  35
ENDBRANCH  13  33
TORSDOF 6
ENDMDL
