MODEL 1
REMARK VINA RESULT:      -9.1      0.000      0.000
REMARK  Name = 
REMARK  2 active torsions:
REMARK  status: ('A' for Active; 'I' for Inactive)
REMARK    1  A    between atoms: C_2  and  C_3
REMARK    2  A    between atoms: C_18  and  C_20
REMARK                            x       y       z     vdW  Elec       q    Type
REMARK                         _______ _______ _______ _____ _____    ______ ____
ROOT
ATOM      1  O   UNL     1       4.814   4.866  15.636  0.00  0.00    +0.000 OA
ATOM      2  C   UNL     1       4.979   4.651  16.840  0.00  0.00    +0.000 C 
ATOM      3  N   UNL     1       4.189   3.723  17.551  0.00  0.00    +0.000 N 
ATOM      4  C   UNL     1       4.296   3.424  18.977  0.00  0.00    +0.000 C 
ATOM      5  C   UNL     1       3.092   3.980  19.803  0.00  0.00    +0.000 C 
ATOM      6  C   UNL     1       2.013   2.887  19.918  0.00  0.00    +0.000 C 
ATOM      7  C   UNL     1       1.161   2.762  18.657  0.00  0.00    +0.000 C 
ATOM      8  C   UNL     1       1.674   3.608  17.489  0.00  0.00    +0.000 C 
ATOM      9  C   UNL     1       3.019   3.129  16.892  0.00  0.00    +0.000 C 
ATOM     10  C   UNL     1       1.770   5.061  17.955  0.00  0.00    +0.000 C 
ATOM     11  N   UNL     1       2.476   5.224  19.240  0.00  0.00    +0.000 N 
ATOM     12  C   UNL     1       2.514   6.431  19.983  0.00  0.00    +0.000 C 
ATOM     13  O   UNL     1       3.079   6.469  21.076  0.00  0.00    +0.000 OA
ENDROOT
BRANCH  12  14
ATOM     14  C   UNL     1       1.891   7.702  19.442  0.00  0.00    +0.000 A 
ATOM     15  C   UNL     1       2.284   8.161  18.173  0.00  0.00    +0.000 A 
ATOM     16  C   UNL     1       1.683   9.257  17.566  0.00  0.00    +0.000 A 
ATOM     17  C   UNL     1       0.804  10.040  18.294  0.00  0.00    +0.000 A 
ATOM     18  C   UNL     1       0.529   9.736  19.629  0.00  0.00    +0.000 A 
ATOM     19  C   UNL     1      -0.211  10.664  20.378  0.00  0.00    +0.000 A 
ATOM     20  C   UNL     1      -0.516  10.422  21.713  0.00  0.00    +0.000 A 
ATOM     21  C   UNL     1      -0.134   9.222  22.291  0.00  0.00    +0.000 A 
ATOM     22  C   UNL     1       0.606   8.284  21.555  0.00  0.00    +0.000 A 
ATOM     23  C   UNL     1       1.016   8.531  20.218  0.00  0.00    +0.000 A 
ENDBRANCH  12  14
BRANCH   2  24
ATOM     24  C   UNL     1       6.065   5.417  17.522  0.00  0.00    +0.000 A 
ATOM     25  C   UNL     1       6.763   4.924  18.628  0.00  0.00    +0.000 A 
ATOM     26  C   UNL     1       7.839   5.616  19.182  0.00  0.00    +0.000 A 
ATOM     27  C   UNL     1       8.171   6.872  18.689  0.00  0.00    +0.000 A 
ATOM     28  C   UNL     1       7.419   7.433  17.660  0.00  0.00    +0.000 A 
ATOM     29  C   UNL     1       6.371   6.710  17.072  0.00  0.00    +0.000 A 
ENDBRANCH   2  24
TORSDOF 2
ENDMDL
MODEL 2
REMARK VINA RESULT:      -8.8      1.473      1.861
REMARK  Name = 
REMARK  2 active torsions:
REMARK  status: ('A' for Active; 'I' for Inactive)
REMARK    1  A    between atoms: C_2  and  C_3
REMARK    2  A    between atoms: C_18  and  C_20
REMARK                            x       y       z     vdW  Elec       q    Type
REMARK                         _______ _______ _______ _____ _____    ______ ____
ROOT
ATOM      1  O   UNL     1       2.322   3.191  15.986  0.00  0.00    +0.000 OA
ATOM      2  C   UNL     1       3.157   3.312  16.887  0.00  0.00    +0.000 C 
ATOM      3  N   UNL     1       2.933   2.817  18.188  0.00  0.00    +0.000 N 
ATOM      4  C   UNL     1       3.850   2.938  19.320  0.00  0.00    +0.000 C 
ATOM      5  C   UNL     1       3.346   3.946  20.401  0.00  0.00    +0.000 C 
ATOM      6  C   UNL     1       2.541   3.181  21.467  0.00  0.00    +0.000 C 
ATOM      7  C   UNL     1       1.116   2.865  21.019  0.00  0.00    +0.000 C 
ATOM      8  C   UNL     1       0.850   3.204  19.550  0.00  0.00    +0.000 C 
ATOM      9  C   UNL     1       1.601   2.306  18.538  0.00  0.00    +0.000 C 
ATOM     10  C   UNL     1       1.190   4.679  19.330  0.00  0.00    +0.000 C 
ATOM     11  N   UNL     1       2.510   5.066  19.862  0.00  0.00    +0.000 N 
ATOM     12  C   UNL     1       2.965   6.405  19.972  0.00  0.00    +0.000 C 
ATOM     13  O   UNL     1       4.060   6.649  20.480  0.00  0.00    +0.000 OA
ENDROOT
BRANCH  12  14
ATOM     14  C   UNL     1       2.137   7.558  19.445  0.00  0.00    +0.000 A 
ATOM     15  C   UNL     1       2.270   7.925  18.094  0.00  0.00    +0.000 A 
ATOM     16  C   UNL     1       1.470   8.901  17.512  0.00  0.00    +0.000 A 
ATOM     17  C   UNL     1       0.645   9.671  18.313  0.00  0.00    +0.000 A 
ATOM     18  C   UNL     1       0.623   9.474  19.696  0.00  0.00    +0.000 A 
ATOM     19  C   UNL     1      -0.079  10.402  20.482  0.00  0.00    +0.000 A 
ATOM     20  C   UNL     1      -0.137  10.264  21.864  0.00  0.00    +0.000 A 
ATOM     21  C   UNL     1       0.454   9.164  22.464  0.00  0.00    +0.000 A 
ATOM     22  C   UNL     1       1.157   8.227  21.691  0.00  0.00    +0.000 A 
ATOM     23  C   UNL     1       1.318   8.379  20.288  0.00  0.00    +0.000 A 
ENDBRANCH  12  14
BRANCH   2  24
ATOM     24  C   UNL     1       4.433   4.007  16.538  0.00  0.00    +0.000 A 
ATOM     25  C   UNL     1       5.515   3.354  15.942  0.00  0.00    +0.000 A 
ATOM     26  C   UNL     1       6.655   4.046  15.536  0.00  0.00    +0.000 A 
ATOM     27  C   UNL     1       6.765   5.403  15.812  0.00  0.00    +0.000 A 
ATOM     28  C   UNL     1       5.747   6.054  16.504  0.00  0.00    +0.000 A 
ATOM     29  C   UNL     1       4.581   5.363  16.865  0.00  0.00    +0.000 A 
ENDBRANCH   2  24
TORSDOF 2
ENDMDL
MODEL 3
REMARK VINA RESULT:      -8.5      7.000     10.094
REMARK  Name = 
REMARK  2 active torsions:
REMARK  status: ('A' for Active; 'I' for Inactive)
REMARK    1  A    between atoms: C_2  and  C_3
REMARK    2  A    between atoms: C_18  and  C_20
REMARK                            x       y       z     vdW  Elec       q    Type
REMARK                         _______ _______ _______ _____ _____    ______ ____
ROOT
ATOM      1  O   UNL     1      -2.477  15.974  20.807  0.00  0.00    +0.000 OA
ATOM      2  C   UNL     1      -1.841  15.076  21.368  0.00  0.00    +0.000 C 
ATOM      3  N   UNL     1      -0.472  14.857  21.114  0.00  0.00    +0.000 N 
ATOM      4  C   UNL     1       0.351  13.806  21.710  0.00  0.00    +0.000 C 
ATOM      5  C   UNL     1       0.729  12.684  20.692  0.00  0.00    +0.000 C 
ATOM      6  C   UNL     1       2.086  13.023  20.048  0.00  0.00    +0.000 C 
ATOM      7  C   UNL     1       1.970  14.067  18.939  0.00  0.00    +0.000 C 
ATOM      8  C   UNL     1       0.574  14.688  18.830  0.00  0.00    +0.000 C 
ATOM      9  C   UNL     1       0.179  15.592  20.022  0.00  0.00    +0.000 C 
ATOM     10  C   UNL     1      -0.439  13.558  18.641  0.00  0.00    +0.000 C 
ATOM     11  N   UNL     1      -0.286  12.459  19.613  0.00  0.00    +0.000 N 
ATOM     12  C   UNL     1      -0.956  11.213  19.521  0.00  0.00    +0.000 C 
ATOM     13  O   UNL     1      -0.732  10.324  20.344  0.00  0.00    +0.000 OA
ENDROOT
BRANCH  12  14
ATOM     14  C   UNL     1      -1.981  10.954  18.435  0.00  0.00    +0.000 A 
ATOM     15  C   UNL     1      -1.572  10.298  17.261  0.00  0.00    +0.000 A 
ATOM     16  C   UNL     1      -2.472   9.932  16.268  0.00  0.00    +0.000 A 
ATOM     17  C   UNL     1      -3.779  10.384  16.335  0.00  0.00    +0.000 A 
ATOM     18  C   UNL     1      -4.186  11.207  17.387  0.00  0.00    +0.000 A 
ATOM     19  C   UNL     1      -5.459  11.795  17.309  0.00  0.00    +0.000 A 
ATOM     20  C   UNL     1      -5.923  12.626  18.323  0.00  0.00    +0.000 A 
ATOM     21  C   UNL     1      -5.142  12.826  19.450  0.00  0.00    +0.000 A 
ATOM     22  C   UNL     1      -3.868  12.244  19.542  0.00  0.00    +0.000 A 
ATOM     23  C   UNL     1      -3.320  11.463  18.491  0.00  0.00    +0.000 A 
ENDBRANCH  12  14
BRANCH   2  24
ATOM     24  C   UNL     1      -2.589  14.225  22.341  0.00  0.00    +0.000 A 
ATOM     25  C   UNL     1      -2.357  12.855  22.488  0.00  0.00    +0.000 A 
ATOM     26  C   UNL     1      -2.998  12.104  23.473  0.00  0.00    +0.000 A 
ATOM     27  C   UNL     1      -3.963  12.705  24.270  0.00  0.00    +0.000 A 
ATOM     28  C   UNL     1      -4.292  14.043  24.069  0.00  0.00    +0.000 A 
ATOM     29  C   UNL     1      -3.607  14.806  23.111  0.00  0.00    +0.000 A 
ENDBRANCH   2  24
TORSDOF 2
ENDMDL
MODEL 4
REMARK VINA RESULT:      -8.2      8.571     11.640
REMARK  Name = 
REMARK  2 active torsions:
REMARK  status: ('A' for Active; 'I' for Inactive)
REMARK    1  A    between atoms: C_2  and  C_3
REMARK    2  A    between atoms: C_18  and  C_20
REMARK                            x       y       z     vdW  Elec       q    Type
REMARK                         _______ _______ _______ _____ _____    ______ ____
ROOT
ATOM      1  O   UNL     1       4.430  13.418  22.325  0.00  0.00    +0.000 OA
ATOM      2  C   UNL     1       5.311  14.104  22.851  0.00  0.00    +0.000 C 
ATOM      3  N   UNL     1       5.630  15.397  22.390  0.00  0.00    +0.000 N 
ATOM      4  C   UNL     1       6.671  16.267  22.933  0.00  0.00    +0.000 C 
ATOM      5  C   UNL     1       7.896  16.414  21.975  0.00  0.00    +0.000 C 
ATOM      6  C   UNL     1       7.691  17.650  21.080  0.00  0.00    +0.000 C 
ATOM      7  C   UNL     1       6.741  17.385  19.914  0.00  0.00    +0.000 C 
ATOM      8  C   UNL     1       6.053  16.019  19.987  0.00  0.00    +0.000 C 
ATOM      9  C   UNL     1       5.029  15.877  21.138  0.00  0.00    +0.000 C 
ATOM     10  C   UNL     1       7.135  14.942  20.081  0.00  0.00    +0.000 C 
ATOM     11  N   UNL     1       8.154  15.217  21.111  0.00  0.00    +0.000 N 
ATOM     12  C   UNL     1       9.363  14.490  21.253  0.00  0.00    +0.000 C 
ATOM     13  O   UNL     1      10.189  14.818  22.105  0.00  0.00    +0.000 OA
ENDROOT
BRANCH  12  14
ATOM     14  C   UNL     1       9.655  13.281  20.387  0.00  0.00    +0.000 A 
ATOM     15  C   UNL     1       9.433  11.999  20.919  0.00  0.00    +0.000 A 
ATOM     16  C   UNL     1       9.576  10.848  20.153  0.00  0.00    +0.000 A 
ATOM     17  C   UNL     1      10.130  10.937  18.888  0.00  0.00    +0.000 A 
ATOM     18  C   UNL     1      10.550  12.172  18.389  0.00  0.00    +0.000 A 
ATOM     19  C   UNL     1      11.279  12.185  17.189  0.00  0.00    +0.000 A 
ATOM     20  C   UNL     1      11.727  13.381  16.640  0.00  0.00    +0.000 A 
ATOM     21  C   UNL     1      11.397  14.578  17.255  0.00  0.00    +0.000 A 
ATOM     22  C   UNL     1      10.668  14.581  18.454  0.00  0.00    +0.000 A 
ATOM     23  C   UNL     1      10.270  13.379  19.096  0.00  0.00    +0.000 A 
ENDBRANCH  12  14
BRANCH   2  24
ATOM     24  C   UNL     1       6.032  13.503  24.014  0.00  0.00    +0.000 A 
ATOM     25  C   UNL     1       5.583  13.628  25.332  0.00  0.00    +0.000 A 
ATOM     26  C   UNL     1       6.219  12.974  26.387  0.00  0.00    +0.000 A 
ATOM     27  C   UNL     1       7.382  12.256  26.144  0.00  0.00    +0.000 A 
ATOM     28  C   UNL     1       7.911  12.209  24.856  0.00  0.00    +0.000 A 
ATOM     29  C   UNL     1       7.239  12.825  23.791  0.00  0.00    +0.000 A 
ENDBRANCH   2  24
TORSDOF 2
ENDMDL
MODEL 5
REMARK VINA RESULT:      -8.0      7.308     10.713
REMARK  Name = 
REMARK  2 active torsions:
REMARK  status: ('A' for Active; 'I' for Inactive)
REMARK    1  A    between atoms: C_2  and  C_3
REMARK    2  A    between atoms: C_18  and  C_20
REMARK                            x       y       z     vdW  Elec       q    Type
REMARK                         _______ _______ _______ _____ _____    ______ ____
ROOT
ATOM      1  O   UNL     1      -1.251  17.517  21.427  0.00  0.00    +0.000 OA
ATOM      2  C   UNL     1      -0.655  16.569  21.948  0.00  0.00    +0.000 C 
ATOM      3  N   UNL     1       0.512  16.016  21.382  0.00  0.00    +0.000 N 
ATOM      4  C   UNL     1       1.265  14.882  21.913  0.00  0.00    +0.000 C 
ATOM      5  C   UNL     1       1.109  13.593  21.045  0.00  0.00    +0.000 C 
ATOM      6  C   UNL     1       2.251  13.538  20.014  0.00  0.00    +0.000 C 
ATOM      7  C   UNL     1       2.006  14.445  18.810  0.00  0.00    +0.000 C 
ATOM      8  C   UNL     1       0.781  15.350  18.969  0.00  0.00    +0.000 C 
ATOM      9  C   UNL     1       0.933  16.452  20.045  0.00  0.00    +0.000 C 
ATOM     10  C   UNL     1      -0.433  14.466  19.258  0.00  0.00    +0.000 C 
ATOM     11  N   UNL     1      -0.204  13.482  20.332  0.00  0.00    +0.000 N 
ATOM     12  C   UNL     1      -1.089  12.418  20.643  0.00  0.00    +0.000 C 
ATOM     13  O   UNL     1      -0.798  11.604  21.520  0.00  0.00    +0.000 OA
ENDROOT
BRANCH  12  14
ATOM     14  C   UNL     1      -2.419  12.276  19.932  0.00  0.00    +0.000 A 
ATOM     15  C   UNL     1      -3.572  12.800  20.541  0.00  0.00    +0.000 A 
ATOM     16  C   UNL     1      -4.808  12.802  19.905  0.00  0.00    +0.000 A 
ATOM     17  C   UNL     1      -4.963  12.106  18.719  0.00  0.00    +0.000 A 
ATOM     18  C   UNL     1      -3.889  11.400  18.171  0.00  0.00    +0.000 A 
ATOM     19  C   UNL     1      -4.144  10.556  17.079  0.00  0.00    +0.000 A 
ATOM     20  C   UNL     1      -3.118   9.825  16.489  0.00  0.00    +0.000 A 
ATOM     21  C   UNL     1      -1.820   9.980  16.948  0.00  0.00    +0.000 A 
ATOM     22  C   UNL     1      -1.550  10.822  18.039  0.00  0.00    +0.000 A 
ATOM     23  C   UNL     1      -2.580  11.515  18.727  0.00  0.00    +0.000 A 
ENDBRANCH  12  14
BRANCH   2  24
ATOM     24  C   UNL     1      -1.224  16.029  23.220  0.00  0.00    +0.000 A 
ATOM     25  C   UNL     1      -0.812  16.466  24.482  0.00  0.00    +0.000 A 
ATOM     26  C   UNL     1      -1.429  16.019  25.649  0.00  0.00    +0.000 A 
ATOM     27  C   UNL     1      -2.414  15.044  25.571  0.00  0.00    +0.000 A 
ATOM     28  C   UNL     1      -2.765  14.512  24.332  0.00  0.00    +0.000 A 
ATOM     29  C   UNL     1      -2.177  15.003  23.157  0.00  0.00    +0.000 A 
ENDBRANCH   2  24
TORSDOF 2
ENDMDL
MODEL 6
REMARK VINA RESULT:      -7.9      6.803      9.876
REMARK  Name = 
REMARK  2 active torsions:
REMARK  status: ('A' for Active; 'I' for Inactive)
REMARK    1  A    between atoms: C_2  and  C_3
REMARK    2  A    between atoms: C_18  and  C_20
REMARK                            x       y       z     vdW  Elec       q    Type
REMARK                         _______ _______ _______ _____ _____    ______ ____
ROOT
ATOM      1  O   UNL     1      -0.659   9.918  19.238  0.00  0.00    +0.000 OA
ATOM      2  C   UNL     1      -0.866  11.012  18.703  0.00  0.00    +0.000 C 
ATOM      3  N   UNL     1       0.115  12.024  18.664  0.00  0.00    +0.000 N 
ATOM      4  C   UNL     1      -0.050  13.353  18.077  0.00  0.00    +0.000 C 
ATOM      5  C   UNL     1      -0.131  14.482  19.153  0.00  0.00    +0.000 C 
ATOM      6  C   UNL     1       1.280  15.048  19.398  0.00  0.00    +0.000 C 
ATOM      7  C   UNL     1       2.123  14.162  20.313  0.00  0.00    +0.000 C 
ATOM      8  C   UNL     1       1.462  12.820  20.638  0.00  0.00    +0.000 C 
ATOM      9  C   UNL     1       1.352  11.850  19.436  0.00  0.00    +0.000 C 
ATOM     10  C   UNL     1       0.085  13.098  21.243  0.00  0.00    +0.000 C 
ATOM     11  N   UNL     1      -0.723  14.052  20.460  0.00  0.00    +0.000 N 
ATOM     12  C   UNL     1      -1.935  14.631  20.913  0.00  0.00    +0.000 C 
ATOM     13  O   UNL     1      -2.522  15.463  20.220  0.00  0.00    +0.000 OA
ENDROOT
BRANCH  12  14
ATOM     14  C   UNL     1      -2.552  14.221  22.234  0.00  0.00    +0.000 A 
ATOM     15  C   UNL     1      -3.663  13.360  22.225  0.00  0.00    +0.000 A 
ATOM     16  C   UNL     1      -4.217  12.857  23.396  0.00  0.00    +0.000 A 
ATOM     17  C   UNL     1      -3.794  13.354  24.616  0.00  0.00    +0.000 A 
ATOM     18  C   UNL     1      -2.824  14.358  24.670  0.00  0.00    +0.000 A 
ATOM     19  C   UNL     1      -2.570  14.963  25.911  0.00  0.00    +0.000 A 
ATOM     20  C   UNL     1      -1.619  15.970  26.032  0.00  0.00    +0.000 A 
ATOM     21  C   UNL     1      -0.873  16.337  24.924  0.00  0.00    +0.000 A 
ATOM     22  C   UNL     1      -1.115  15.740  23.677  0.00  0.00    +0.000 A 
ATOM     23  C   UNL     1      -2.138  14.773  23.491  0.00  0.00    +0.000 A 
ENDBRANCH  12  14
BRANCH   2  24
ATOM     24  C   UNL     1      -2.210  11.219  18.087  0.00  0.00    +0.000 A 
ATOM     25  C   UNL     1      -2.480  10.948  16.742  0.00  0.00    +0.000 A 
ATOM     26  C   UNL     1      -3.767  11.055  16.217  0.00  0.00    +0.000 A 
ATOM     27  C   UNL     1      -4.794  11.535  17.019  0.00  0.00    +0.000 A 
ATOM     28  C   UNL     1      -4.528  11.917  18.331  0.00  0.00    +0.000 A 
ATOM     29  C   UNL     1      -3.242  11.758  18.869  0.00  0.00    +0.000 A 
ENDBRANCH   2  24
TORSDOF 2
ENDMDL
MODEL 7
REMARK VINA RESULT:      -7.8      7.263     11.392
REMARK  Name = 
REMARK  2 active torsions:
REMARK  status: ('A' for Active; 'I' for Inactive)
REMARK    1  A    between atoms: C_2  and  C_3
REMARK    2  A    between atoms: C_18  and  C_20
REMARK                            x       y       z     vdW  Elec       q    Type
REMARK                         _______ _______ _______ _____ _____    ______ ____
ROOT
ATOM      1  O   UNL     1      -4.322  12.531  24.989  0.00  0.00    +0.000 OA
ATOM      2  C   UNL     1      -4.166  13.580  24.357  0.00  0.00    +0.000 C 
ATOM      3  N   UNL     1      -5.114  14.039  23.419  0.00  0.00    +0.000 N 
ATOM      4  C   UNL     1      -5.001  15.250  22.610  0.00  0.00    +0.000 C 
ATOM      5  C   UNL     1      -4.734  14.946  21.101  0.00  0.00    +0.000 C 
ATOM      6  C   UNL     1      -6.079  14.883  20.354  0.00  0.00    +0.000 C 
ATOM      7  C   UNL     1      -6.803  13.554  20.551  0.00  0.00    +0.000 C 
ATOM      8  C   UNL     1      -6.139  12.646  21.589  0.00  0.00    +0.000 C 
ATOM      9  C   UNL     1      -6.231  13.161  23.045  0.00  0.00    +0.000 C 
ATOM     10  C   UNL     1      -4.682  12.432  21.175  0.00  0.00    +0.000 C 
ATOM     11  N   UNL     1      -3.971  13.682  20.850  0.00  0.00    +0.000 N 
ATOM     12  C   UNL     1      -2.690  13.738  20.244  0.00  0.00    +0.000 C 
ATOM     13  O   UNL     1      -2.187  14.824  19.952  0.00  0.00    +0.000 OA
ENDROOT
BRANCH  12  14
ATOM     14  C   UNL     1      -1.899  12.475  19.969  0.00  0.00    +0.000 A 
ATOM     15  C   UNL     1      -0.782  12.188  20.772  0.00  0.00    +0.000 A 
ATOM     16  C   UNL     1      -0.072  11.000  20.651  0.00  0.00    +0.000 A 
ATOM     17  C   UNL     1      -0.343  10.150  19.592  0.00  0.00    +0.000 A 
ATOM     18  C   UNL     1      -1.317  10.489  18.649  0.00  0.00    +0.000 A 
ATOM     19  C   UNL     1      -1.420   9.696  17.495  0.00  0.00    +0.000 A 
ATOM     20  C   UNL     1      -2.367   9.981  16.517  0.00  0.00    +0.000 A 
ATOM     21  C   UNL     1      -3.257  11.024  16.716  0.00  0.00    +0.000 A 
ATOM     22  C   UNL     1      -3.167  11.824  17.866  0.00  0.00    +0.000 A 
ATOM     23  C   UNL     1      -2.158  11.623  18.844  0.00  0.00    +0.000 A 
ENDBRANCH  12  14
BRANCH   2  24
ATOM     24  C   UNL     1      -2.920  14.356  24.632  0.00  0.00    +0.000 A 
ATOM     25  C   UNL     1      -1.814  14.347  23.777  0.00  0.00    +0.000 A 
ATOM     26  C   UNL     1      -0.704  15.158  24.007  0.00  0.00    +0.000 A 
ATOM     27  C   UNL     1      -0.646  15.926  25.163  0.00  0.00    +0.000 A 
ATOM     28  C   UNL     1      -1.687  15.868  26.086  0.00  0.00    +0.000 A 
ATOM     29  C   UNL     1      -2.825  15.090  25.824  0.00  0.00    +0.000 A 
ENDBRANCH   2  24
TORSDOF 2
ENDMDL
MODEL 8
REMARK VINA RESULT:      -7.8      8.982     12.096
REMARK  Name = 
REMARK  2 active torsions:
REMARK  status: ('A' for Active; 'I' for Inactive)
REMARK    1  A    between atoms: C_2  and  C_3
REMARK    2  A    between atoms: C_18  and  C_20
REMARK                            x       y       z     vdW  Elec       q    Type
REMARK                         _______ _______ _______ _____ _____    ______ ____
ROOT
ATOM      1  O   UNL     1       4.691  14.115  23.443  0.00  0.00    +0.000 OA
ATOM      2  C   UNL     1       5.653  14.831  23.739  0.00  0.00    +0.000 C 
ATOM      3  N   UNL     1       5.929  16.033  23.056  0.00  0.00    +0.000 N 
ATOM      4  C   UNL     1       7.056  16.927  23.320  0.00  0.00    +0.000 C 
ATOM      5  C   UNL     1       8.134  16.888  22.191  0.00  0.00    +0.000 C 
ATOM      6  C   UNL     1       7.829  17.995  21.164  0.00  0.00    +0.000 C 
ATOM      7  C   UNL     1       6.717  17.609  20.191  0.00  0.00    +0.000 C 
ATOM      8  C   UNL     1       6.018  16.296  20.554  0.00  0.00    +0.000 C 
ATOM      9  C   UNL     1       5.167  16.358  21.844  0.00  0.00    +0.000 C 
ATOM     10  C   UNL     1       7.080  15.199  20.651  0.00  0.00    +0.000 C 
ATOM     11  N   UNL     1       8.241  15.573  21.481  0.00  0.00    +0.000 N 
ATOM     12  C   UNL     1       9.442  14.824  21.556  0.00  0.00    +0.000 C 
ATOM     13  O   UNL     1      10.388  15.233  22.230  0.00  0.00    +0.000 OA
ENDROOT
BRANCH  12  14
ATOM     14  C   UNL     1       9.581  13.495  20.841  0.00  0.00    +0.000 A 
ATOM     15  C   UNL     1       9.318  12.312  21.554  0.00  0.00    +0.000 A 
ATOM     16  C   UNL     1       9.322  11.065  20.941  0.00  0.00    +0.000 A 
ATOM     17  C   UNL     1       9.777  10.949  19.639  0.00  0.00    +0.000 A 
ATOM     18  C   UNL     1      10.237  12.074  18.950  0.00  0.00    +0.000 A 
ATOM     19  C   UNL     1      10.866  11.877  17.711  0.00  0.00    +0.000 A 
ATOM     20  C   UNL     1      11.348  12.955  16.977  0.00  0.00    +0.000 A 
ATOM     21  C   UNL     1      11.150  14.242  17.448  0.00  0.00    +0.000 A 
ATOM     22  C   UNL     1      10.521  14.455  18.685  0.00  0.00    +0.000 A 
ATOM     23  C   UNL     1      10.096  13.379  19.508  0.00  0.00    +0.000 A 
ENDBRANCH  12  14
BRANCH   2  24
ATOM     24  C   UNL     1       6.519  14.369  24.865  0.00  0.00    +0.000 A 
ATOM     25  C   UNL     1       7.676  13.609  24.671  0.00  0.00    +0.000 A 
ATOM     26  C   UNL     1       8.520  13.276  25.730  0.00  0.00    +0.000 A 
ATOM     27  C   UNL     1       8.159  13.623  27.025  0.00  0.00    +0.000 A 
ATOM     28  C   UNL     1       6.955  14.283  27.256  0.00  0.00    +0.000 A 
ATOM     29  C   UNL     1       6.136  14.660  26.182  0.00  0.00    +0.000 A 
ENDBRANCH   2  24
TORSDOF 2
ENDMDL
MODEL 9
REMARK VINA RESULT:      -7.8      4.867      9.193
REMARK  Name = 
REMARK  2 active torsions:
REMARK  status: ('A' for Active; 'I' for Inactive)
REMARK    1  A    between atoms: C_2  and  C_3
REMARK    2  A    between atoms: C_18  and  C_20
REMARK                            x       y       z     vdW  Elec       q    Type
REMARK                         _______ _______ _______ _____ _____    ______ ____
ROOT
ATOM      1  O   UNL     1       2.317  15.012  22.549  0.00  0.00    +0.000 OA
ATOM      2  C   UNL     1       1.565  15.102  21.574  0.00  0.00    +0.000 C 
ATOM      3  N   UNL     1       0.178  15.315  21.714  0.00  0.00    +0.000 N 
ATOM      4  C   UNL     1      -0.787  15.409  20.621  0.00  0.00    +0.000 C 
ATOM      5  C   UNL     1      -1.725  14.162  20.536  0.00  0.00    +0.000 C 
ATOM      6  C   UNL     1      -3.005  14.437  21.347  0.00  0.00    +0.000 C 
ATOM      7  C   UNL     1      -2.804  14.252  22.849  0.00  0.00    +0.000 C 
ATOM      8  C   UNL     1      -1.344  14.019  23.245  0.00  0.00    +0.000 C 
ATOM      9  C   UNL     1      -0.423  15.247  23.052  0.00  0.00    +0.000 C 
ATOM     10  C   UNL     1      -0.821  12.815  22.459  0.00  0.00    +0.000 C 
ATOM     11  N   UNL     1      -1.104  12.886  21.014  0.00  0.00    +0.000 N 
ATOM     12  C   UNL     1      -0.913  11.810  20.109  0.00  0.00    +0.000 C 
ATOM     13  O   UNL     1      -1.226  11.932  18.925  0.00  0.00    +0.000 OA
ENDROOT
BRANCH  12  14
ATOM     14  C   UNL     1      -0.296  10.504  20.567  0.00  0.00    +0.000 A 
ATOM     15  C   UNL     1      -0.470  10.105  21.903  0.00  0.00    +0.000 A 
ATOM     16  C   UNL     1      -0.025   8.874  22.370  0.00  0.00    +0.000 A 
ATOM     17  C   UNL     1       0.776   8.089  21.559  0.00  0.00    +0.000 A 
ATOM     18  C   UNL     1       1.141   8.534  20.286  0.00  0.00    +0.000 A 
ATOM     19  C   UNL     1       2.106   7.797  19.582  0.00  0.00    +0.000 A 
ATOM     20  C   UNL     1       2.515   8.188  18.312  0.00  0.00    +0.000 A 
ATOM     21  C   UNL     1       1.916   9.285  17.712  0.00  0.00    +0.000 A 
ATOM     22  C   UNL     1       0.948  10.030  18.403  0.00  0.00    +0.000 A 
ATOM     23  C   UNL     1       0.569   9.719  19.736  0.00  0.00    +0.000 A 
ENDBRANCH  12  14
BRANCH   2  24
ATOM     24  C   UNL     1       2.192  14.979  20.223  0.00  0.00    +0.000 A 
ATOM     25  C   UNL     1       2.286  13.765  19.537  0.00  0.00    +0.000 A 
ATOM     26  C   UNL     1       2.785  13.696  18.237  0.00  0.00    +0.000 A 
ATOM     27  C   UNL     1       3.291  14.842  17.637  0.00  0.00    +0.000 A 
ATOM     28  C   UNL     1       3.310  16.042  18.343  0.00  0.00    +0.000 A 
ATOM     29  C   UNL     1       2.760  16.116  19.631  0.00  0.00    +0.000 A 
ENDBRANCH   2  24
TORSDOF 2
ENDMDL
