MODEL 1
REMARK VINA RESULT:      -7.7      0.000      0.000
REMARK  Name = 
REMARK  5 active torsions:
REMARK  status: ('A' for Active; 'I' for Inactive)
REMARK    1  A    between atoms: C_1  and  C_2
REMARK    2  A    between atoms: C_2  and  N_3
REMARK    3  A    between atoms: C_10  and  C_11
REMARK    4  A    between atoms: C_11  and  C_13
REMARK    5  A    between atoms: C_20  and  N_21
REMARK                            x       y       z     vdW  Elec       q    Type
REMARK                         _______ _______ _______ _____ _____    ______ ____
ROOT
ATOM      1  N   UNL     1       4.424   4.028  17.745  0.00  0.00    +0.000 NA
ATOM      2  C   UNL     1       4.560   3.783  19.195  0.00  0.00    +0.000 C 
ATOM      3  C   UNL     1       3.443   4.417  20.036  0.00  0.00    +0.000 C 
ATOM      4  C   UNL     1       3.052   5.795  19.561  0.00  0.00    +0.000 A 
ATOM      5  N   UNL     1       2.188   6.454  20.360  0.00  0.00    +0.000 NA
ATOM      6  C   UNL     1       1.816   7.667  19.910  0.00  0.00    +0.000 A 
ATOM      7  S   UNL     1       0.757   8.623  20.829  0.00  0.00    +0.000 S 
ATOM      8  C   UNL     1       0.721   9.855  19.637  0.00  0.00    +0.000 A 
ATOM      9  C   UNL     1       1.586   9.568  18.597  0.00  0.00    +0.000 A 
ATOM     10  C   UNL     1       2.219   8.287  18.733  0.00  0.00    +0.000 A 
ATOM     11  C   UNL     1       3.129   7.564  17.931  0.00  0.00    +0.000 A 
ATOM     12  C   UNL     1       3.529   6.283  18.343  0.00  0.00    +0.000 A 
ATOM     13  C   UNL     1       4.502   5.482  17.519  0.00  0.00    +0.000 C 
ENDROOT
BRANCH   9  14
ATOM     14  N   UNL     1       1.771  10.395  17.542  0.00  0.00    +0.000 N 
ATOM     15  H   UNL     1       2.609  10.302  16.962  0.00  0.00    +0.000 HD
ATOM     16  H   UNL     1       0.999  10.838  17.053  0.00  0.00    +0.000 HD
ENDBRANCH   9  14
BRANCH   1  18
ATOM     17  C   UNL     1       2.952   1.974  17.716  0.00  0.00    +0.000 C 
ATOM     18  C   UNL     1       3.207   3.389  17.211  0.00  0.00    +0.000 C 
ENDBRANCH   1  18
BRANCH   8  19
ATOM     19  C   UNL     1      -0.104  11.040  19.822  0.00  0.00    +0.000 C 
ATOM     20  O   UNL     1       0.276  12.033  20.443  0.00  0.00    +0.000 OA
BRANCH  19  21
ATOM     21  C   UNL     1      -1.463  11.097  19.201  0.00  0.00    +0.000 A 
ATOM     22  C   UNL     1      -1.843  10.180  18.208  0.00  0.00    +0.000 A 
ATOM     23  C   UNL     1      -3.135  10.214  17.681  0.00  0.00    +0.000 A 
ATOM     24  C   UNL     1      -4.024  11.186  18.116  0.00  0.00    +0.000 A 
ATOM     25  F   UNL     1      -5.267  11.213  17.613  0.00  0.00    +0.000 F 
ATOM     26  C   UNL     1      -3.648  12.135  19.064  0.00  0.00    +0.000 A 
ATOM     27  C   UNL     1      -2.361  12.093  19.607  0.00  0.00    +0.000 A 
ENDBRANCH  19  21
ENDBRANCH   8  19
TORSDOF 4
ENDMDL
MODEL 2
REMARK VINA RESULT:      -7.6      2.387      3.525
REMARK  Name = 
REMARK  5 active torsions:
REMARK  status: ('A' for Active; 'I' for Inactive)
REMARK    1  A    between atoms: C_1  and  C_2
REMARK    2  A    between atoms: C_2  and  N_3
REMARK    3  A    between atoms: C_10  and  C_11
REMARK    4  A    between atoms: C_11  and  C_13
REMARK    5  A    between atoms: C_20  and  N_21
REMARK                            x       y       z     vdW  Elec       q    Type
REMARK                         _______ _______ _______ _____ _____    ______ ____
ROOT
ATOM      1  N   UNL     1       6.514   4.432  17.484  0.00  0.00    +0.000 NA
ATOM      2  C   UNL     1       6.030   4.689  16.113  0.00  0.00    +0.000 C 
ATOM      3  C   UNL     1       5.300   6.029  15.957  0.00  0.00    +0.000 C 
ATOM      4  C   UNL     1       4.399   6.354  17.123  0.00  0.00    +0.000 A 
ATOM      5  N   UNL     1       3.619   7.442  16.960  0.00  0.00    +0.000 NA
ATOM      6  C   UNL     1       2.845   7.746  18.020  0.00  0.00    +0.000 A 
ATOM      7  S   UNL     1       1.789   9.072  17.945  0.00  0.00    +0.000 S 
ATOM      8  C   UNL     1       1.280   8.850  19.567  0.00  0.00    +0.000 A 
ATOM      9  C   UNL     1       1.849   7.715  20.116  0.00  0.00    +0.000 A 
ATOM     10  C   UNL     1       2.779   7.070  19.233  0.00  0.00    +0.000 A 
ATOM     11  C   UNL     1       3.606   5.933  19.356  0.00  0.00    +0.000 A 
ATOM     12  C   UNL     1       4.451   5.588  18.290  0.00  0.00    +0.000 A 
ATOM     13  C   UNL     1       5.345   4.380  18.379  0.00  0.00    +0.000 C 
ENDROOT
BRANCH   9  14
ATOM     14  N   UNL     1       1.587   7.295  21.376  0.00  0.00    +0.000 N 
ATOM     15  H   UNL     1       0.738   6.754  21.567  0.00  0.00    +0.000 HD
ATOM     16  H   UNL     1       2.317   7.139  22.063  0.00  0.00    +0.000 HD
ENDBRANCH   9  14
BRANCH   1  18
ATOM     17  C   UNL     1       7.675   5.640  19.377  0.00  0.00    +0.000 C 
ATOM     18  C   UNL     1       7.543   5.414  17.876  0.00  0.00    +0.000 C 
ENDBRANCH   1  18
BRANCH   8  19
ATOM     19  C   UNL     1       0.322   9.761  20.174  0.00  0.00    +0.000 C 
ATOM     20  O   UNL     1      -0.393   9.448  21.128  0.00  0.00    +0.000 OA
BRANCH  19  21
ATOM     21  C   UNL     1       0.212  11.162  19.664  0.00  0.00    +0.000 A 
ATOM     22  C   UNL     1      -0.799  11.525  18.760  0.00  0.00    +0.000 A 
ATOM     23  C   UNL     1      -0.919  12.850  18.340  0.00  0.00    +0.000 A 
ATOM     24  C   UNL     1      -0.008  13.795  18.789  0.00  0.00    +0.000 A 
ATOM     25  F   UNL     1      -0.130  15.068  18.389  0.00  0.00    +0.000 F 
ATOM     26  C   UNL     1       1.031  13.442  19.648  0.00  0.00    +0.000 A 
ATOM     27  C   UNL     1       1.144  12.120  20.085  0.00  0.00    +0.000 A 
ENDBRANCH  19  21
ENDBRANCH   8  19
TORSDOF 4
ENDMDL
MODEL 3
REMARK VINA RESULT:      -7.6      1.476      2.348
REMARK  Name = 
REMARK  5 active torsions:
REMARK  status: ('A' for Active; 'I' for Inactive)
REMARK    1  A    between atoms: C_1  and  C_2
REMARK    2  A    between atoms: C_2  and  N_3
REMARK    3  A    between atoms: C_10  and  C_11
REMARK    4  A    between atoms: C_11  and  C_13
REMARK    5  A    between atoms: C_20  and  N_21
REMARK                            x       y       z     vdW  Elec       q    Type
REMARK                         _______ _______ _______ _____ _____    ______ ____
ROOT
ATOM      1  N   UNL     1       5.473   4.274  18.756  0.00  0.00    +0.000 NA
ATOM      2  C   UNL     1       5.244   4.416  17.305  0.00  0.00    +0.000 C 
ATOM      3  C   UNL     1       4.791   5.821  16.885  0.00  0.00    +0.000 C 
ATOM      4  C   UNL     1       3.803   6.437  17.845  0.00  0.00    +0.000 A 
ATOM      5  N   UNL     1       3.258   7.602  17.438  0.00  0.00    +0.000 NA
ATOM      6  C   UNL     1       2.405   8.164  18.316  0.00  0.00    +0.000 A 
ATOM      7  S   UNL     1       1.620   9.616  17.924  0.00  0.00    +0.000 S 
ATOM      8  C   UNL     1       0.852   9.697  19.456  0.00  0.00    +0.000 A 
ATOM      9  C   UNL     1       1.128   8.572  20.211  0.00  0.00    +0.000 A 
ATOM     10  C   UNL     1       2.047   7.677  19.568  0.00  0.00    +0.000 A 
ATOM     11  C   UNL     1       2.635   6.451  19.949  0.00  0.00    +0.000 A 
ATOM     12  C   UNL     1       3.550   5.837  19.080  0.00  0.00    +0.000 A 
ATOM     13  C   UNL     1       4.196   4.527  19.446  0.00  0.00    +0.000 C 
ENDROOT
BRANCH   9  14
ATOM     14  N   UNL     1       0.617   8.372  21.448  0.00  0.00    +0.000 N 
ATOM     15  H   UNL     1      -0.379   8.536  21.622  0.00  0.00    +0.000 HD
ATOM     16  H   UNL     1       1.032   7.726  22.113  0.00  0.00    +0.000 HD
ENDBRANCH   9  14
BRANCH   1  18
ATOM     17  C   UNL     1       7.831   5.072  18.320  0.00  0.00    +0.000 C 
ATOM     18  C   UNL     1       6.590   5.127  19.202  0.00  0.00    +0.000 C 
ENDBRANCH   1  18
BRANCH   8  19
ATOM     19  C   UNL     1      -0.009  10.821  19.794  0.00  0.00    +0.000 C 
ATOM     20  O   UNL     1       0.331  11.719  20.565  0.00  0.00    +0.000 OA
BRANCH  19  21
ATOM     21  C   UNL     1      -1.355  10.937  19.154  0.00  0.00    +0.000 A 
ATOM     22  C   UNL     1      -1.773  10.020  18.177  0.00  0.00    +0.000 A 
ATOM     23  C   UNL     1      -3.055  10.112  17.634  0.00  0.00    +0.000 A 
ATOM     24  C   UNL     1      -3.895  11.141  18.035  0.00  0.00    +0.000 A 
ATOM     25  F   UNL     1      -5.128  11.224  17.516  0.00  0.00    +0.000 F 
ATOM     26  C   UNL     1      -3.478  12.090  18.967  0.00  0.00    +0.000 A 
ATOM     27  C   UNL     1      -2.202  11.990  19.527  0.00  0.00    +0.000 A 
ENDBRANCH  19  21
ENDBRANCH   8  19
TORSDOF 4
ENDMDL
MODEL 4
REMARK VINA RESULT:      -7.5      0.607      1.140
REMARK  Name = 
REMARK  5 active torsions:
REMARK  status: ('A' for Active; 'I' for Inactive)
REMARK    1  A    between atoms: C_1  and  C_2
REMARK    2  A    between atoms: C_2  and  N_3
REMARK    3  A    between atoms: C_10  and  C_11
REMARK    4  A    between atoms: C_11  and  C_13
REMARK    5  A    between atoms: C_20  and  N_21
REMARK                            x       y       z     vdW  Elec       q    Type
REMARK                         _______ _______ _______ _____ _____    ______ ____
ROOT
ATOM      1  N   UNL     1       3.811   4.116  17.947  0.00  0.00    +0.000 NA
ATOM      2  C   UNL     1       3.940   3.872  19.397  0.00  0.00    +0.000 C 
ATOM      3  C   UNL     1       2.888   4.602  20.242  0.00  0.00    +0.000 C 
ATOM      4  C   UNL     1       2.608   6.004  19.759  0.00  0.00    +0.000 A 
ATOM      5  N   UNL     1       1.809   6.739  20.560  0.00  0.00    +0.000 NA
ATOM      6  C   UNL     1       1.535   7.976  20.104  0.00  0.00    +0.000 A 
ATOM      7  S   UNL     1       0.568   9.024  21.024  0.00  0.00    +0.000 S 
ATOM      8  C   UNL     1       0.623  10.246  19.822  0.00  0.00    +0.000 A 
ATOM      9  C   UNL     1       1.452   9.879  18.777  0.00  0.00    +0.000 A 
ATOM     10  C   UNL     1       1.977   8.551  18.918  0.00  0.00    +0.000 A 
ATOM     11  C   UNL     1       2.816   7.749  18.114  0.00  0.00    +0.000 A 
ATOM     12  C   UNL     1       3.113   6.443  18.533  0.00  0.00    +0.000 A 
ATOM     13  C   UNL     1       4.008   5.556  17.708  0.00  0.00    +0.000 C 
ENDROOT
BRANCH   9  14
ATOM     14  N   UNL     1       1.695  10.680  17.714  0.00  0.00    +0.000 N 
ATOM     15  H   UNL     1       0.978  11.337  17.396  0.00  0.00    +0.000 HD
ATOM     16  H   UNL     1       2.633  10.957  17.441  0.00  0.00    +0.000 HD
ENDBRANCH   9  14
BRANCH   1  18
ATOM     17  C   UNL     1       2.295   2.105  17.737  0.00  0.00    +0.000 C 
ATOM     18  C   UNL     1       2.541   3.577  17.428  0.00  0.00    +0.000 C 
ENDBRANCH   1  18
BRANCH   8  19
ATOM     19  C   UNL     1      -0.098  11.496  20.004  0.00  0.00    +0.000 C 
ATOM     20  O   UNL     1       0.421  12.510  20.474  0.00  0.00    +0.000 OA
BRANCH  19  21
ATOM     21  C   UNL     1      -1.525  11.595  19.567  0.00  0.00    +0.000 A 
ATOM     22  C   UNL     1      -2.436  12.410  20.256  0.00  0.00    +0.000 A 
ATOM     23  C   UNL     1      -3.749  12.533  19.798  0.00  0.00    +0.000 A 
ATOM     24  C   UNL     1      -4.156  11.811  18.686  0.00  0.00    +0.000 A 
ATOM     25  F   UNL     1      -5.415  11.935  18.245  0.00  0.00    +0.000 F 
ATOM     26  C   UNL     1      -3.277  10.958  18.020  0.00  0.00    +0.000 A 
ATOM     27  C   UNL     1      -1.957  10.846  18.464  0.00  0.00    +0.000 A 
ENDBRANCH  19  21
ENDBRANCH   8  19
TORSDOF 4
ENDMDL
MODEL 5
REMARK VINA RESULT:      -7.5      1.176      1.758
REMARK  Name = 
REMARK  5 active torsions:
REMARK  status: ('A' for Active; 'I' for Inactive)
REMARK    1  A    between atoms: C_1  and  C_2
REMARK    2  A    between atoms: C_2  and  N_3
REMARK    3  A    between atoms: C_10  and  C_11
REMARK    4  A    between atoms: C_11  and  C_13
REMARK    5  A    between atoms: C_20  and  N_21
REMARK                            x       y       z     vdW  Elec       q    Type
REMARK                         _______ _______ _______ _____ _____    ______ ____
ROOT
ATOM      1  N   UNL     1       3.545   2.539  19.678  0.00  0.00    +0.000 NA
ATOM      2  C   UNL     1       3.321   2.612  21.135  0.00  0.00    +0.000 C 
ATOM      3  C   UNL     1       2.250   3.631  21.546  0.00  0.00    +0.000 C 
ATOM      4  C   UNL     1       2.315   4.912  20.751  0.00  0.00    +0.000 A 
ATOM      5  N   UNL     1       1.498   5.896  21.181  0.00  0.00    +0.000 NA
ATOM      6  C   UNL     1       1.535   7.023  20.444  0.00  0.00    +0.000 A 
ATOM      7  S   UNL     1       0.583   8.356  20.887  0.00  0.00    +0.000 S 
ATOM      8  C   UNL     1       1.092   9.263  19.523  0.00  0.00    +0.000 A 
ATOM      9  C   UNL     1       2.051   8.577  18.799  0.00  0.00    +0.000 A 
ATOM     10  C   UNL     1       2.307   7.262  19.313  0.00  0.00    +0.000 A 
ATOM     11  C   UNL     1       3.153   6.208  18.904  0.00  0.00    +0.000 A 
ATOM     12  C   UNL     1       3.133   5.003  19.623  0.00  0.00    +0.000 A 
ATOM     13  C   UNL     1       4.023   3.856  19.224  0.00  0.00    +0.000 C 
ENDROOT
BRANCH   9  14
ATOM     14  N   UNL     1       2.643   9.086  17.694  0.00  0.00    +0.000 N 
ATOM     15  H   UNL     1       2.207   8.957  16.777  0.00  0.00    +0.000 HD
ATOM     16  H   UNL     1       3.263   9.889  17.726  0.00  0.00    +0.000 HD
ENDBRANCH   9  14
BRANCH   1  18
ATOM     17  C   UNL     1       2.344   2.259  17.471  0.00  0.00    +0.000 C 
ATOM     18  C   UNL     1       2.341   2.050  18.980  0.00  0.00    +0.000 C 
ENDBRANCH   1  18
BRANCH   8  19
ATOM     19  C   UNL     1       0.566  10.598  19.284  0.00  0.00    +0.000 C 
ATOM     20  O   UNL     1       1.228  11.623  19.454  0.00  0.00    +0.000 OA
BRANCH  19  21
ATOM     21  C   UNL     1      -0.826  10.760  18.764  0.00  0.00    +0.000 A 
ATOM     22  C   UNL     1      -1.726  11.651  19.370  0.00  0.00    +0.000 A 
ATOM     23  C   UNL     1      -3.002  11.829  18.835  0.00  0.00    +0.000 A 
ATOM     24  C   UNL     1      -3.388  11.089  17.727  0.00  0.00    +0.000 A 
ATOM     25  F   UNL     1      -4.613  11.266  17.212  0.00  0.00    +0.000 F 
ATOM     26  C   UNL     1      -2.525  10.163  17.143  0.00  0.00    +0.000 A 
ATOM     27  C   UNL     1      -1.240   9.994  17.665  0.00  0.00    +0.000 A 
ENDBRANCH  19  21
ENDBRANCH   8  19
TORSDOF 4
ENDMDL
MODEL 6
REMARK VINA RESULT:      -7.5      3.685      8.121
REMARK  Name = 
REMARK  5 active torsions:
REMARK  status: ('A' for Active; 'I' for Inactive)
REMARK    1  A    between atoms: C_1  and  C_2
REMARK    2  A    between atoms: C_2  and  N_3
REMARK    3  A    between atoms: C_10  and  C_11
REMARK    4  A    between atoms: C_11  and  C_13
REMARK    5  A    between atoms: C_20  and  N_21
REMARK                            x       y       z     vdW  Elec       q    Type
REMARK                         _______ _______ _______ _____ _____    ______ ____
ROOT
ATOM      1  N   UNL     1      -1.782  13.055  22.181  0.00  0.00    +0.000 NA
ATOM      2  C   UNL     1      -2.270  11.986  23.075  0.00  0.00    +0.000 C 
ATOM      3  C   UNL     1      -1.298  10.808  23.219  0.00  0.00    +0.000 C 
ATOM      4  C   UNL     1      -0.632  10.427  21.919  0.00  0.00    +0.000 A 
ATOM      5  N   UNL     1       0.110   9.301  21.963  0.00  0.00    +0.000 NA
ATOM      6  C   UNL     1       0.730   8.988  20.809  0.00  0.00    +0.000 A 
ATOM      7  S   UNL     1       1.672   7.580  20.709  0.00  0.00    +0.000 S 
ATOM      8  C   UNL     1       2.137   7.921  19.094  0.00  0.00    +0.000 A 
ATOM      9  C   UNL     1       1.497   9.051  18.619  0.00  0.00    +0.000 A 
ATOM     10  C   UNL     1       0.687   9.696  19.614  0.00  0.00    +0.000 A 
ATOM     11  C   UNL     1      -0.107  10.863  19.611  0.00  0.00    +0.000 A 
ATOM     12  C   UNL     1      -0.755  11.247  20.796  0.00  0.00    +0.000 A 
ATOM     13  C   UNL     1      -1.615  12.482  20.835  0.00  0.00    +0.000 C 
ENDROOT
BRANCH   9  14
ATOM     14  N   UNL     1       1.664   9.519  17.360  0.00  0.00    +0.000 N 
ATOM     15  H   UNL     1       0.945  10.112  16.937  0.00  0.00    +0.000 HD
ATOM     16  H   UNL     1       2.580   9.651  16.943  0.00  0.00    +0.000 HD
ENDBRANCH   9  14
BRANCH   1  18
ATOM     17  C   UNL     1       0.079  14.726  21.818  0.00  0.00    +0.000 C 
ATOM     18  C   UNL     1      -0.571  13.693  22.730  0.00  0.00    +0.000 C 
ENDBRANCH   1  18
BRANCH   8  19
ATOM     19  C   UNL     1       3.048   7.036  18.383  0.00  0.00    +0.000 C 
ATOM     20  O   UNL     1       3.968   7.447  17.675  0.00  0.00    +0.000 OA
BRANCH  19  21
ATOM     21  C   UNL     1       2.909   5.555  18.539  0.00  0.00    +0.000 A 
ATOM     22  C   UNL     1       3.834   4.819  19.296  0.00  0.00    +0.000 A 
ATOM     23  C   UNL     1       3.655   3.446  19.476  0.00  0.00    +0.000 A 
ATOM     24  C   UNL     1       2.583   2.811  18.867  0.00  0.00    +0.000 A 
ATOM     25  F   UNL     1       2.410   1.494  19.047  0.00  0.00    +0.000 F 
ATOM     26  C   UNL     1       1.684   3.519  18.071  0.00  0.00    +0.000 A 
ATOM     27  C   UNL     1       1.849   4.896  17.903  0.00  0.00    +0.000 A 
ENDBRANCH  19  21
ENDBRANCH   8  19
TORSDOF 4
ENDMDL
MODEL 7
REMARK VINA RESULT:      -7.5      1.778      2.939
REMARK  Name = 
REMARK  5 active torsions:
REMARK  status: ('A' for Active; 'I' for Inactive)
REMARK    1  A    between atoms: C_1  and  C_2
REMARK    2  A    between atoms: C_2  and  N_3
REMARK    3  A    between atoms: C_10  and  C_11
REMARK    4  A    between atoms: C_11  and  C_13
REMARK    5  A    between atoms: C_20  and  N_21
REMARK                            x       y       z     vdW  Elec       q    Type
REMARK                         _______ _______ _______ _____ _____    ______ ____
ROOT
ATOM      1  N   UNL     1       6.451   4.309  17.473  0.00  0.00    +0.000 NA
ATOM      2  C   UNL     1       6.064   4.640  16.087  0.00  0.00    +0.000 C 
ATOM      3  C   UNL     1       5.435   6.032  15.936  0.00  0.00    +0.000 C 
ATOM      4  C   UNL     1       4.492   6.381  17.062  0.00  0.00    +0.000 A 
ATOM      5  N   UNL     1       3.796   7.524  16.894  0.00  0.00    +0.000 NA
ATOM      6  C   UNL     1       2.984   7.847  17.919  0.00  0.00    +0.000 A 
ATOM      7  S   UNL     1       2.024   9.244  17.831  0.00  0.00    +0.000 S 
ATOM      8  C   UNL     1       1.409   9.006  19.414  0.00  0.00    +0.000 A 
ATOM      9  C   UNL     1       1.869   7.819  19.954  0.00  0.00    +0.000 A 
ATOM     10  C   UNL     1       2.803   7.140  19.102  0.00  0.00    +0.000 A 
ATOM     11  C   UNL     1       3.545   5.946  19.231  0.00  0.00    +0.000 A 
ATOM     12  C   UNL     1       4.425   5.577  18.202  0.00  0.00    +0.000 A 
ATOM     13  C   UNL     1       5.231   4.309  18.298  0.00  0.00    +0.000 C 
ENDROOT
BRANCH   9  14
ATOM     14  N   UNL     1       1.507   7.378  21.181  0.00  0.00    +0.000 N 
ATOM     15  H   UNL     1       0.883   7.945  21.763  0.00  0.00    +0.000 HD
ATOM     16  H   UNL     1       1.487   6.393  21.424  0.00  0.00    +0.000 HD
ENDBRANCH   9  14
BRANCH   1  18
ATOM     17  C   UNL     1       7.400   5.614  19.418  0.00  0.00    +0.000 C 
ATOM     18  C   UNL     1       7.517   5.206  17.955  0.00  0.00    +0.000 C 
ENDBRANCH   1  18
BRANCH   8  19
ATOM     19  C   UNL     1       0.480   9.962  19.998  0.00  0.00    +0.000 C 
ATOM     20  O   UNL     1       0.604  10.408  21.140  0.00  0.00    +0.000 OA
BRANCH  19  21
ATOM     21  C   UNL     1      -0.662  10.475  19.180  0.00  0.00    +0.000 A 
ATOM     22  C   UNL     1      -0.957  11.846  19.132  0.00  0.00    +0.000 A 
ATOM     23  C   UNL     1      -1.991  12.311  18.318  0.00  0.00    +0.000 A 
ATOM     24  C   UNL     1      -2.750  11.404  17.592  0.00  0.00    +0.000 A 
ATOM     25  F   UNL     1      -3.738  11.854  16.807  0.00  0.00    +0.000 F 
ATOM     26  C   UNL     1      -2.502  10.035  17.668  0.00  0.00    +0.000 A 
ATOM     27  C   UNL     1      -1.456   9.567  18.468  0.00  0.00    +0.000 A 
ENDBRANCH  19  21
ENDBRANCH   8  19
TORSDOF 4
ENDMDL
MODEL 8
REMARK VINA RESULT:      -7.5      2.560      3.701
REMARK  Name = 
REMARK  5 active torsions:
REMARK  status: ('A' for Active; 'I' for Inactive)
REMARK    1  A    between atoms: C_1  and  C_2
REMARK    2  A    between atoms: C_2  and  N_3
REMARK    3  A    between atoms: C_10  and  C_11
REMARK    4  A    between atoms: C_11  and  C_13
REMARK    5  A    between atoms: C_20  and  N_21
REMARK                            x       y       z     vdW  Elec       q    Type
REMARK                         _______ _______ _______ _____ _____    ______ ____
ROOT
ATOM      1  N   UNL     1       6.398   4.429  17.652  0.00  0.00    +0.000 NA
ATOM      2  C   UNL     1       5.908   4.609  16.271  0.00  0.00    +0.000 C 
ATOM      3  C   UNL     1       5.198   5.949  16.037  0.00  0.00    +0.000 C 
ATOM      4  C   UNL     1       4.311   6.359  17.188  0.00  0.00    +0.000 A 
ATOM      5  N   UNL     1       3.546   7.448  16.964  0.00  0.00    +0.000 NA
ATOM      6  C   UNL     1       2.786   7.829  18.008  0.00  0.00    +0.000 A 
ATOM      7  S   UNL     1       1.749   9.164  17.858  0.00  0.00    +0.000 S 
ATOM      8  C   UNL     1       1.250   9.050  19.495  0.00  0.00    +0.000 A 
ATOM      9  C   UNL     1       1.806   7.942  20.109  0.00  0.00    +0.000 A 
ATOM     10  C   UNL     1       2.718   7.230  19.260  0.00  0.00    +0.000 A 
ATOM     11  C   UNL     1       3.529   6.089  19.448  0.00  0.00    +0.000 A 
ATOM     12  C   UNL     1       4.359   5.666  18.399  0.00  0.00    +0.000 A 
ATOM     13  C   UNL     1       5.235   4.451  18.556  0.00  0.00    +0.000 C 
ENDROOT
BRANCH   9  14
ATOM     14  N   UNL     1       1.546   7.604  21.393  0.00  0.00    +0.000 N 
ATOM     15  H   UNL     1       0.643   7.845  21.812  0.00  0.00    +0.000 HD
ATOM     16  H   UNL     1       1.999   6.821  21.854  0.00  0.00    +0.000 HD
ENDBRANCH   9  14
BRANCH   1  18
ATOM     17  C   UNL     1       7.758   5.557  19.460  0.00  0.00    +0.000 C 
ATOM     18  C   UNL     1       7.445   5.417  17.976  0.00  0.00    +0.000 C 
ENDBRANCH   1  18
BRANCH   8  19
ATOM     19  C   UNL     1       0.311  10.012  20.051  0.00  0.00    +0.000 C 
ATOM     20  O   UNL     1      -0.561   9.707  20.866  0.00  0.00    +0.000 OA
BRANCH  19  21
ATOM     21  C   UNL     1       0.416  11.453  19.666  0.00  0.00    +0.000 A 
ATOM     22  C   UNL     1       1.465  12.254  20.145  0.00  0.00    +0.000 A 
ATOM     23  C   UNL     1       1.578  13.582  19.728  0.00  0.00    +0.000 A 
ATOM     24  C   UNL     1       0.623  14.113  18.874  0.00  0.00    +0.000 A 
ATOM     25  F   UNL     1       0.737  15.386  18.471  0.00  0.00    +0.000 F 
ATOM     26  C   UNL     1      -0.453  13.346  18.429  0.00  0.00    +0.000 A 
ATOM     27  C   UNL     1      -0.559  12.012  18.829  0.00  0.00    +0.000 A 
ENDBRANCH  19  21
ENDBRANCH   8  19
TORSDOF 4
ENDMDL
MODEL 9
REMARK VINA RESULT:      -7.4      1.122      1.243
REMARK  Name = 
REMARK  5 active torsions:
REMARK  status: ('A' for Active; 'I' for Inactive)
REMARK    1  A    between atoms: C_1  and  C_2
REMARK    2  A    between atoms: C_2  and  N_3
REMARK    3  A    between atoms: C_10  and  C_11
REMARK    4  A    between atoms: C_11  and  C_13
REMARK    5  A    between atoms: C_20  and  N_21
REMARK                            x       y       z     vdW  Elec       q    Type
REMARK                         _______ _______ _______ _____ _____    ______ ____
ROOT
ATOM      1  N   UNL     1       3.154   3.860  18.531  0.00  0.00    +0.000 NA
ATOM      2  C   UNL     1       3.269   3.753  19.999  0.00  0.00    +0.000 C 
ATOM      3  C   UNL     1       2.318   4.684  20.763  0.00  0.00    +0.000 C 
ATOM      4  C   UNL     1       2.198   6.052  20.137  0.00  0.00    +0.000 A 
ATOM      5  N   UNL     1       1.499   6.954  20.857  0.00  0.00    +0.000 NA
ATOM      6  C   UNL     1       1.366   8.161  20.274  0.00  0.00    +0.000 A 
ATOM      7  S   UNL     1       0.537   9.403  21.080  0.00  0.00    +0.000 S 
ATOM      8  C   UNL     1       0.721  10.480  19.758  0.00  0.00    +0.000 A 
ATOM      9  C   UNL     1       1.490   9.914  18.758  0.00  0.00    +0.000 A 
ATOM     10  C   UNL     1       1.859   8.555  19.036  0.00  0.00    +0.000 A 
ATOM     11  C   UNL     1       2.590   7.582  18.321  0.00  0.00    +0.000 A 
ATOM     12  C   UNL     1       2.737   6.300  18.873  0.00  0.00    +0.000 A 
ATOM     13  C   UNL     1       3.514   5.235  18.145  0.00  0.00    +0.000 C 
ENDROOT
BRANCH   9  14
ATOM     14  N   UNL     1       1.814  10.567  17.618  0.00  0.00    +0.000 N 
ATOM     15  H   UNL     1       2.557  11.271  17.626  0.00  0.00    +0.000 HD
ATOM     16  H   UNL     1       1.657  10.170  16.697  0.00  0.00    +0.000 HD
ENDBRANCH   9  14
BRANCH   1  18
ATOM     17  C   UNL     1       1.325   2.123  18.690  0.00  0.00    +0.000 C 
ATOM     18  C   UNL     1       1.824   3.422  18.070  0.00  0.00    +0.000 C 
ENDBRANCH   1  18
BRANCH   8  19
ATOM     19  C   UNL     1       0.152  11.818  19.809  0.00  0.00    +0.000 C 
ATOM     20  O   UNL     1       0.836  12.835  19.937  0.00  0.00    +0.000 OA
BRANCH  19  21
ATOM     21  C   UNL     1      -1.324  11.999  19.655  0.00  0.00    +0.000 A 
ATOM     22  C   UNL     1      -2.011  11.437  18.567  0.00  0.00    +0.000 A 
ATOM     23  C   UNL     1      -3.397  11.568  18.472  0.00  0.00    +0.000 A 
ATOM     24  C   UNL     1      -4.083  12.293  19.436  0.00  0.00    +0.000 A 
ATOM     25  F   UNL     1      -5.415  12.413  19.345  0.00  0.00    +0.000 F 
ATOM     26  C   UNL     1      -3.410  12.900  20.495  0.00  0.00    +0.000 A 
ATOM     27  C   UNL     1      -2.025  12.756  20.604  0.00  0.00    +0.000 A 
ENDBRANCH  19  21
ENDBRANCH   8  19
TORSDOF 4
ENDMDL
