MODEL 1
REMARK VINA RESULT:      -9.2      0.000      0.000
REMARK  Name = 
REMARK  8 active torsions:
REMARK  status: ('A' for Active; 'I' for Inactive)
REMARK    1  A    between atoms: C_5  and  N_6
REMARK    2  A    between atoms: N_6  and  C_7
REMARK    3  A    between atoms: N_6  and  C_24
REMARK    4  A    between atoms: C_7  and  C_8
REMARK    5  A    between atoms: C_8  and  C_9
REMARK    6  A    between atoms: C_9  and  C_10
REMARK    7  A    between atoms: C_12  and  C_13
REMARK    8  A    between atoms: C_18  and  C_19
REMARK                            x       y       z     vdW  Elec       q    Type
REMARK                         _______ _______ _______ _____ _____    ______ ____
ROOT
ATOM      1  C   UNL     1       3.685   6.803  17.468  0.00  0.00    +0.000 C 
ENDROOT
BRANCH   1   2
ATOM      2  N   UNL     1       3.889   5.377  17.803  0.00  0.00    +0.000 N 
BRANCH   2   7
ATOM      3  F   UNL     1       0.535   2.745  21.393  0.00  0.00    +0.000 F 
ATOM      4  C   UNL     1       1.356   3.361  20.532  0.00  0.00    +0.000 A 
ATOM      5  C   UNL     1       1.180   3.196  19.173  0.00  0.00    +0.000 A 
ATOM      6  C   UNL     1       2.029   3.866  18.283  0.00  0.00    +0.000 A 
ATOM      7  C   UNL     1       3.083   4.694  18.725  0.00  0.00    +0.000 A 
ATOM      8  C   UNL     1       3.244   4.801  20.116  0.00  0.00    +0.000 A 
ATOM      9  C   UNL     1       2.377   4.162  21.016  0.00  0.00    +0.000 A 
ENDBRANCH   2   7
BRANCH   2  10
ATOM     10  C   UNL     1       5.165   4.708  17.410  0.00  0.00    +0.000 C 
ATOM     11  C   UNL     1       6.439   5.399  17.926  0.00  0.00    +0.000 C 
ATOM     12  C   UNL     1       7.227   6.198  16.892  0.00  0.00    +0.000 C 
ATOM     13  N   UNL     1       7.323   5.519  15.600  0.00  0.00    +0.000 NA
ATOM     14  C   UNL     1       5.985   5.314  15.053  0.00  0.00    +0.000 C 
ATOM     15  C   UNL     1       5.176   4.360  15.913  0.00  0.00    +0.000 C 
ATOM     16  H   UNL     1       7.793   4.619  15.711  0.00  0.00    +0.000 HD
ENDBRANCH   2  10
ENDBRANCH   1   2
BRANCH   1  17
ATOM     17  C   UNL     1       2.472   7.437  18.162  0.00  0.00    +0.000 C 
BRANCH  17  18
ATOM     18  C   UNL     1       2.226   8.895  17.750  0.00  0.00    +0.000 C 
BRANCH  18  19
ATOM     19  C   UNL     1       1.101   9.471  18.587  0.00  0.00    +0.000 A 
ATOM     20  C   UNL     1       1.125   9.369  19.986  0.00  0.00    +0.000 A 
ATOM     21  C   UNL     1       0.021   9.761  20.761  0.00  0.00    +0.000 A 
ATOM     22  C   UNL     1      -1.114  10.275  20.113  0.00  0.00    +0.000 A 
ATOM     23  C   UNL     1      -1.157  10.393  18.714  0.00  0.00    +0.000 A 
ATOM     24  C   UNL     1      -0.040   9.991  17.963  0.00  0.00    +0.000 A 
BRANCH  21  25
ATOM     25  C   UNL     1       0.017   9.598  22.262  0.00  0.00    +0.000 C 
ATOM     26  F   UNL     1      -0.903   8.701  22.714  0.00  0.00    +0.000 F 
ATOM     27  F   UNL     1       1.219   9.177  22.744  0.00  0.00    +0.000 F 
ATOM     28  F   UNL     1      -0.255  10.766  22.910  0.00  0.00    +0.000 F 
ENDBRANCH  21  25
BRANCH  23  29
ATOM     29  C   UNL     1      -2.392  10.898  18.005  0.00  0.00    +0.000 C 
ATOM     30  F   UNL     1      -3.312   9.926  17.754  0.00  0.00    +0.000 F 
ATOM     31  F   UNL     1      -3.046  11.857  18.719  0.00  0.00    +0.000 F 
ATOM     32  F   UNL     1      -2.103  11.459  16.798  0.00  0.00    +0.000 F 
ENDBRANCH  23  29
ENDBRANCH  18  19
ENDBRANCH  17  18
ENDBRANCH   1  17
TORSDOF 8
ENDMDL
MODEL 2
REMARK VINA RESULT:      -9.2      2.200      4.106
REMARK  Name = 
REMARK  8 active torsions:
REMARK  status: ('A' for Active; 'I' for Inactive)
REMARK    1  A    between atoms: C_5  and  N_6
REMARK    2  A    between atoms: N_6  and  C_7
REMARK    3  A    between atoms: N_6  and  C_24
REMARK    4  A    between atoms: C_7  and  C_8
REMARK    5  A    between atoms: C_8  and  C_9
REMARK    6  A    between atoms: C_9  and  C_10
REMARK    7  A    between atoms: C_12  and  C_13
REMARK    8  A    between atoms: C_18  and  C_19
REMARK                            x       y       z     vdW  Elec       q    Type
REMARK                         _______ _______ _______ _____ _____    ______ ____
ROOT
ATOM      1  C   UNL     1       3.255   5.999  19.083  0.00  0.00    +0.000 C 
ENDROOT
BRANCH   1   2
ATOM      2  N   UNL     1       3.867   4.820  18.435  0.00  0.00    +0.000 N 
BRANCH   2   7
ATOM      3  F   UNL     1       7.672   5.072  14.370  0.00  0.00    +0.000 F 
ATOM      4  C   UNL     1       6.746   5.028  15.337  0.00  0.00    +0.000 A 
ATOM      5  C   UNL     1       5.681   4.158  15.234  0.00  0.00    +0.000 A 
ATOM      6  C   UNL     1       4.734   4.104  16.264  0.00  0.00    +0.000 A 
ATOM      7  C   UNL     1       4.815   4.929  17.406  0.00  0.00    +0.000 A 
ATOM      8  C   UNL     1       5.897   5.823  17.449  0.00  0.00    +0.000 A 
ATOM      9  C   UNL     1       6.870   5.860  16.438  0.00  0.00    +0.000 A 
ENDBRANCH   2   7
BRANCH   2  10
ATOM     10  C   UNL     1       3.252   3.473  18.633  0.00  0.00    +0.000 C 
ATOM     11  C   UNL     1       1.723   3.433  18.461  0.00  0.00    +0.000 C 
ATOM     12  C   UNL     1       0.911   3.342  19.749  0.00  0.00    +0.000 C 
ATOM     13  N   UNL     1       1.489   2.416  20.723  0.00  0.00    +0.000 NA
ATOM     14  C   UNL     1       2.828   2.865  21.092  0.00  0.00    +0.000 C 
ATOM     15  C   UNL     1       3.779   2.801  19.910  0.00  0.00    +0.000 C 
ATOM     16  H   UNL     1       1.537   1.476  20.327  0.00  0.00    +0.000 HD
ENDBRANCH   2  10
ENDBRANCH   1   2
BRANCH   1  17
ATOM     17  C   UNL     1       2.279   6.767  18.183  0.00  0.00    +0.000 C 
BRANCH  17  18
ATOM     18  C   UNL     1       2.583   8.269  18.093  0.00  0.00    +0.000 C 
BRANCH  18  19
ATOM     19  C   UNL     1       1.470   9.049  18.764  0.00  0.00    +0.000 A 
ATOM     20  C   UNL     1       1.347   9.064  20.161  0.00  0.00    +0.000 A 
ATOM     21  C   UNL     1       0.236   9.654  20.785  0.00  0.00    +0.000 A 
ATOM     22  C   UNL     1      -0.755  10.248  19.987  0.00  0.00    +0.000 A 
ATOM     23  C   UNL     1      -0.649  10.251  18.586  0.00  0.00    +0.000 A 
ATOM     24  C   UNL     1       0.471   9.651  17.987  0.00  0.00    +0.000 A 
BRANCH  21  25
ATOM     25  C   UNL     1       0.067   9.620  22.286  0.00  0.00    +0.000 C 
ATOM     26  F   UNL     1      -0.898   8.759  22.710  0.00  0.00    +0.000 F 
ATOM     27  F   UNL     1       1.209   9.251  22.930  0.00  0.00    +0.000 F 
ATOM     28  F   UNL     1      -0.271  10.838  22.796  0.00  0.00    +0.000 F 
ENDBRANCH  21  25
BRANCH  23  29
ATOM     29  C   UNL     1      -1.733  10.844  17.717  0.00  0.00    +0.000 C 
ATOM     30  F   UNL     1      -2.977  10.765  18.267  0.00  0.00    +0.000 F 
ATOM     31  F   UNL     1      -1.526  12.164  17.452  0.00  0.00    +0.000 F 
ATOM     32  F   UNL     1      -1.822  10.226  16.506  0.00  0.00    +0.000 F 
ENDBRANCH  23  29
ENDBRANCH  18  19
ENDBRANCH  17  18
ENDBRANCH   1  17
TORSDOF 8
ENDMDL
MODEL 3
REMARK VINA RESULT:      -9.2      0.711      3.262
REMARK  Name = 
REMARK  8 active torsions:
REMARK  status: ('A' for Active; 'I' for Inactive)
REMARK    1  A    between atoms: C_5  and  N_6
REMARK    2  A    between atoms: N_6  and  C_7
REMARK    3  A    between atoms: N_6  and  C_24
REMARK    4  A    between atoms: C_7  and  C_8
REMARK    5  A    between atoms: C_8  and  C_9
REMARK    6  A    between atoms: C_9  and  C_10
REMARK    7  A    between atoms: C_12  and  C_13
REMARK    8  A    between atoms: C_18  and  C_19
REMARK                            x       y       z     vdW  Elec       q    Type
REMARK                         _______ _______ _______ _____ _____    ______ ____
ROOT
ATOM      1  C   UNL     1       3.659   6.839  17.626  0.00  0.00    +0.000 C 
ENDROOT
BRANCH   1   2
ATOM      2  N   UNL     1       3.808   5.397  17.917  0.00  0.00    +0.000 N 
BRANCH   2   7
ATOM      3  F   UNL     1       0.639   2.600  21.549  0.00  0.00    +0.000 F 
ATOM      4  C   UNL     1       1.386   3.289  20.677  0.00  0.00    +0.000 A 
ATOM      5  C   UNL     1       2.447   4.047  21.126  0.00  0.00    +0.000 A 
ATOM      6  C   UNL     1       3.237   4.743  20.201  0.00  0.00    +0.000 A 
ATOM      7  C   UNL     1       2.973   4.717  18.815  0.00  0.00    +0.000 A 
ATOM      8  C   UNL     1       1.861   3.961  18.411  0.00  0.00    +0.000 A 
ATOM      9  C   UNL     1       1.085   3.233  19.326  0.00  0.00    +0.000 A 
ENDBRANCH   2   7
BRANCH   2  10
ATOM     10  C   UNL     1       5.059   4.692  17.507  0.00  0.00    +0.000 C 
ATOM     11  C   UNL     1       6.358   5.330  18.032  0.00  0.00    +0.000 C 
ATOM     12  C   UNL     1       7.170   6.120  17.010  0.00  0.00    +0.000 C 
ATOM     13  N   UNL     1       7.239   5.463  15.705  0.00  0.00    +0.000 NA
ATOM     14  C   UNL     1       5.894   5.314  15.159  0.00  0.00    +0.000 C 
ATOM     15  C   UNL     1       5.055   4.372  16.004  0.00  0.00    +0.000 C 
ATOM     16  H   UNL     1       7.678   4.546  15.798  0.00  0.00    +0.000 HD
ENDBRANCH   2  10
ENDBRANCH   1   2
BRANCH   1  17
ATOM     17  C   UNL     1       2.494   7.506  18.368  0.00  0.00    +0.000 C 
BRANCH  17  18
ATOM     18  C   UNL     1       2.155   8.907  17.840  0.00  0.00    +0.000 C 
BRANCH  18  19
ATOM     19  C   UNL     1       1.069   9.520  18.700  0.00  0.00    +0.000 A 
ATOM     20  C   UNL     1       0.242  10.534  18.196  0.00  0.00    +0.000 A 
ATOM     21  C   UNL     1      -0.663  11.213  19.028  0.00  0.00    +0.000 A 
ATOM     22  C   UNL     1      -0.743  10.851  20.382  0.00  0.00    +0.000 A 
ATOM     23  C   UNL     1       0.070   9.833  20.908  0.00  0.00    +0.000 A 
ATOM     24  C   UNL     1       0.969   9.172  20.054  0.00  0.00    +0.000 A 
BRANCH  21  25
ATOM     25  C   UNL     1      -1.512  12.348  18.505  0.00  0.00    +0.000 C 
ATOM     26  F   UNL     1      -2.617  11.937  17.823  0.00  0.00    +0.000 F 
ATOM     27  F   UNL     1      -1.967  13.160  19.499  0.00  0.00    +0.000 F 
ATOM     28  F   UNL     1      -0.826  13.156  17.649  0.00  0.00    +0.000 F 
ENDBRANCH  21  25
BRANCH  23  29
ATOM     29  C   UNL     1       0.027   9.470  22.373  0.00  0.00    +0.000 C 
ATOM     30  F   UNL     1      -0.371  10.495  23.177  0.00  0.00    +0.000 F 
ATOM     31  F   UNL     1      -0.828   8.441  22.630  0.00  0.00    +0.000 F 
ATOM     32  F   UNL     1       1.243   9.077  22.845  0.00  0.00    +0.000 F 
ENDBRANCH  23  29
ENDBRANCH  18  19
ENDBRANCH  17  18
ENDBRANCH   1  17
TORSDOF 8
ENDMDL
MODEL 4
REMARK VINA RESULT:      -9.1      0.517      1.219
REMARK  Name = 
REMARK  8 active torsions:
REMARK  status: ('A' for Active; 'I' for Inactive)
REMARK    1  A    between atoms: C_5  and  N_6
REMARK    2  A    between atoms: N_6  and  C_7
REMARK    3  A    between atoms: N_6  and  C_24
REMARK    4  A    between atoms: C_7  and  C_8
REMARK    5  A    between atoms: C_8  and  C_9
REMARK    6  A    between atoms: C_9  and  C_10
REMARK    7  A    between atoms: C_12  and  C_13
REMARK    8  A    between atoms: C_18  and  C_19
REMARK                            x       y       z     vdW  Elec       q    Type
REMARK                         _______ _______ _______ _____ _____    ______ ____
ROOT
ATOM      1  C   UNL     1       3.874   6.539  17.684  0.00  0.00    +0.000 C 
ENDROOT
BRANCH   1   2
ATOM      2  N   UNL     1       3.876   5.085  17.950  0.00  0.00    +0.000 N 
BRANCH   2   7
ATOM      3  F   UNL     1       0.577   2.609  21.699  0.00  0.00    +0.000 F 
ATOM      4  C   UNL     1       1.355   3.222  20.797  0.00  0.00    +0.000 A 
ATOM      5  C   UNL     1       2.408   4.009  21.215  0.00  0.00    +0.000 A 
ATOM      6  C   UNL     1       3.230   4.622  20.262  0.00  0.00    +0.000 A 
ATOM      7  C   UNL     1       3.009   4.485  18.875  0.00  0.00    +0.000 A 
ATOM      8  C   UNL     1       1.904   3.704  18.499  0.00  0.00    +0.000 A 
ATOM      9  C   UNL     1       1.096   3.056  19.447  0.00  0.00    +0.000 A 
ENDBRANCH   2   7
BRANCH   2  10
ATOM     10  C   UNL     1       5.025   4.255  17.479  0.00  0.00    +0.000 C 
ATOM     11  C   UNL     1       6.372   4.584  18.148  0.00  0.00    +0.000 C 
ATOM     12  C   UNL     1       7.360   5.377  17.297  0.00  0.00    +0.000 C 
ATOM     13  N   UNL     1       7.407   4.924  15.907  0.00  0.00    +0.000 NA
ATOM     14  C   UNL     1       6.092   5.083  15.295  0.00  0.00    +0.000 C 
ATOM     15  C   UNL     1       5.065   4.174  15.946  0.00  0.00    +0.000 C 
ATOM     16  H   UNL     1       7.690   3.944  15.867  0.00  0.00    +0.000 HD
ENDBRANCH   2  10
ENDBRANCH   1   2
BRANCH   1  17
ATOM     17  C   UNL     1       2.781   7.308  18.437  0.00  0.00    +0.000 C 
BRANCH  17  18
ATOM     18  C   UNL     1       2.310   8.573  17.707  0.00  0.00    +0.000 C 
BRANCH  18  19
ATOM     19  C   UNL     1       1.246   9.266  18.536  0.00  0.00    +0.000 A 
ATOM     20  C   UNL     1       1.213   9.113  19.929  0.00  0.00    +0.000 A 
ATOM     21  C   UNL     1       0.147   9.624  20.689  0.00  0.00    +0.000 A 
ATOM     22  C   UNL     1      -0.888  10.307  20.033  0.00  0.00    +0.000 A 
ATOM     23  C   UNL     1      -0.872  10.478  18.638  0.00  0.00    +0.000 A 
ATOM     24  C   UNL     1       0.205   9.955  17.902  0.00  0.00    +0.000 A 
BRANCH  21  25
ATOM     25  C   UNL     1       0.074   9.411  22.183  0.00  0.00    +0.000 C 
ATOM     26  F   UNL     1      -0.146  10.553  22.890  0.00  0.00    +0.000 F 
ATOM     27  F   UNL     1      -0.922   8.552  22.539  0.00  0.00    +0.000 F 
ATOM     28  F   UNL     1       1.223   8.877  22.687  0.00  0.00    +0.000 F 
ENDBRANCH  21  25
BRANCH  23  29
ATOM     29  C   UNL     1      -2.005  11.168  17.917  0.00  0.00    +0.000 C 
ATOM     30  F   UNL     1      -3.235  10.863  18.416  0.00  0.00    +0.000 F 
ATOM     31  F   UNL     1      -1.908  12.526  17.973  0.00  0.00    +0.000 F 
ATOM     32  F   UNL     1      -2.049  10.848  16.594  0.00  0.00    +0.000 F 
ENDBRANCH  23  29
ENDBRANCH  18  19
ENDBRANCH  17  18
ENDBRANCH   1  17
TORSDOF 8
ENDMDL
MODEL 5
REMARK VINA RESULT:      -9.1      0.733      1.392
REMARK  Name = 
REMARK  8 active torsions:
REMARK  status: ('A' for Active; 'I' for Inactive)
REMARK    1  A    between atoms: C_5  and  N_6
REMARK    2  A    between atoms: N_6  and  C_7
REMARK    3  A    between atoms: N_6  and  C_24
REMARK    4  A    between atoms: C_7  and  C_8
REMARK    5  A    between atoms: C_8  and  C_9
REMARK    6  A    between atoms: C_9  and  C_10
REMARK    7  A    between atoms: C_12  and  C_13
REMARK    8  A    between atoms: C_18  and  C_19
REMARK                            x       y       z     vdW  Elec       q    Type
REMARK                         _______ _______ _______ _____ _____    ______ ____
ROOT
ATOM      1  C   UNL     1       3.706   6.949  17.649  0.00  0.00    +0.000 C 
ENDROOT
BRANCH   1   2
ATOM      2  N   UNL     1       3.835   5.500  17.913  0.00  0.00    +0.000 N 
BRANCH   2   7
ATOM      3  F   UNL     1       0.569   2.668  21.430  0.00  0.00    +0.000 F 
ATOM      4  C   UNL     1       1.338   3.365  20.585  0.00  0.00    +0.000 A 
ATOM      5  C   UNL     1       2.346   4.171  21.073  0.00  0.00    +0.000 A 
ATOM      6  C   UNL     1       3.161   4.874  20.177  0.00  0.00    +0.000 A 
ATOM      7  C   UNL     1       2.976   4.809  18.780  0.00  0.00    +0.000 A 
ATOM      8  C   UNL     1       1.915   4.005  18.333  0.00  0.00    +0.000 A 
ATOM      9  C   UNL     1       1.116   3.269  19.221  0.00  0.00    +0.000 A 
ENDBRANCH   2   7
BRANCH   2  10
ATOM     10  C   UNL     1       5.088   4.792  17.514  0.00  0.00    +0.000 C 
ATOM     11  C   UNL     1       6.387   5.450  18.016  0.00  0.00    +0.000 C 
ATOM     12  C   UNL     1       7.188   6.219  16.970  0.00  0.00    +0.000 C 
ATOM     13  N   UNL     1       7.255   5.530  15.682  0.00  0.00    +0.000 NA
ATOM     14  C   UNL     1       5.907   5.359  15.147  0.00  0.00    +0.000 C 
ATOM     15  C   UNL     1       5.078   4.434  16.020  0.00  0.00    +0.000 C 
ATOM     16  H   UNL     1       7.699   4.618  15.795  0.00  0.00    +0.000 HD
ENDBRANCH   2  10
ENDBRANCH   1   2
BRANCH   1  17
ATOM     17  C   UNL     1       2.634   7.642  18.500  0.00  0.00    +0.000 C 
BRANCH  17  18
ATOM     18  C   UNL     1       1.852   8.720  17.737  0.00  0.00    +0.000 C 
BRANCH  18  19
ATOM     19  C   UNL     1       1.046   9.546  18.720  0.00  0.00    +0.000 A 
ATOM     20  C   UNL     1       0.994   9.196  20.076  0.00  0.00    +0.000 A 
ATOM     21  C   UNL     1       0.132   9.860  20.965  0.00  0.00    +0.000 A 
ATOM     22  C   UNL     1      -0.675  10.900  20.477  0.00  0.00    +0.000 A 
ATOM     23  C   UNL     1      -0.634  11.273  19.123  0.00  0.00    +0.000 A 
ATOM     24  C   UNL     1       0.234  10.590  18.255  0.00  0.00    +0.000 A 
BRANCH  21  25
ATOM     25  C   UNL     1       0.027   9.448  22.414  0.00  0.00    +0.000 C 
ATOM     26  F   UNL     1       1.207   9.038  22.955  0.00  0.00    +0.000 F 
ATOM     27  F   UNL     1      -0.421  10.457  23.212  0.00  0.00    +0.000 F 
ATOM     28  F   UNL     1      -0.844   8.415  22.596  0.00  0.00    +0.000 F 
ENDBRANCH  21  25
BRANCH  23  29
ATOM     29  C   UNL     1      -1.534  12.357  18.579  0.00  0.00    +0.000 C 
ATOM     30  F   UNL     1      -2.141  12.024  17.406  0.00  0.00    +0.000 F 
ATOM     31  F   UNL     1      -2.540  12.680  19.439  0.00  0.00    +0.000 F 
ATOM     32  F   UNL     1      -0.861  13.516  18.334  0.00  0.00    +0.000 F 
ENDBRANCH  23  29
ENDBRANCH  18  19
ENDBRANCH  17  18
ENDBRANCH   1  17
TORSDOF 8
ENDMDL
MODEL 6
REMARK VINA RESULT:      -9.0      0.465      1.075
REMARK  Name = 
REMARK  8 active torsions:
REMARK  status: ('A' for Active; 'I' for Inactive)
REMARK    1  A    between atoms: C_5  and  N_6
REMARK    2  A    between atoms: N_6  and  C_7
REMARK    3  A    between atoms: N_6  and  C_24
REMARK    4  A    between atoms: C_7  and  C_8
REMARK    5  A    between atoms: C_8  and  C_9
REMARK    6  A    between atoms: C_9  and  C_10
REMARK    7  A    between atoms: C_12  and  C_13
REMARK    8  A    between atoms: C_18  and  C_19
REMARK                            x       y       z     vdW  Elec       q    Type
REMARK                         _______ _______ _______ _____ _____    ______ ____
ROOT
ATOM      1  C   UNL     1       3.450   6.361  17.350  0.00  0.00    +0.000 C 
ENDROOT
BRANCH   1   2
ATOM      2  N   UNL     1       3.834   5.044  17.901  0.00  0.00    +0.000 N 
BRANCH   2   7
ATOM      3  F   UNL     1       0.685   2.516  21.742  0.00  0.00    +0.000 F 
ATOM      4  C   UNL     1       1.456   3.107  20.820  0.00  0.00    +0.000 A 
ATOM      5  C   UNL     1       1.185   2.930  19.479  0.00  0.00    +0.000 A 
ATOM      6  C   UNL     1       1.984   3.574  18.525  0.00  0.00    +0.000 A 
ATOM      7  C   UNL     1       3.080   4.387  18.884  0.00  0.00    +0.000 A 
ATOM      8  C   UNL     1       3.337   4.507  20.259  0.00  0.00    +0.000 A 
ATOM      9  C   UNL     1       2.521   3.894  21.224  0.00  0.00    +0.000 A 
ENDBRANCH   2   7
BRANCH   2  10
ATOM     10  C   UNL     1       5.212   4.523  17.660  0.00  0.00    +0.000 C 
ATOM     11  C   UNL     1       6.344   5.457  18.127  0.00  0.00    +0.000 C 
ATOM     12  C   UNL     1       7.075   6.218  17.025  0.00  0.00    +0.000 C 
ATOM     13  N   UNL     1       7.345   5.395  15.847  0.00  0.00    +0.000 NA
ATOM     14  C   UNL     1       6.085   4.924  15.278  0.00  0.00    +0.000 C 
ATOM     15  C   UNL     1       5.365   3.985  16.229  0.00  0.00    +0.000 C 
ATOM     16  H   UNL     1       7.927   4.596  16.103  0.00  0.00    +0.000 HD
ENDBRANCH   2  10
ENDBRANCH   1   2
BRANCH   1  17
ATOM     17  C   UNL     1       2.634   7.227  18.319  0.00  0.00    +0.000 C 
BRANCH  17  18
ATOM     18  C   UNL     1       2.470   8.679  17.851  0.00  0.00    +0.000 C 
BRANCH  18  19
ATOM     19  C   UNL     1       1.327   9.325  18.609  0.00  0.00    +0.000 A 
ATOM     20  C   UNL     1       1.244   9.221  20.004  0.00  0.00    +0.000 A 
ATOM     21  C   UNL     1       0.114   9.682  20.700  0.00  0.00    +0.000 A 
ATOM     22  C   UNL     1      -0.937  10.269  19.976  0.00  0.00    +0.000 A 
ATOM     23  C   UNL     1      -0.871  10.391  18.578  0.00  0.00    +0.000 A 
ATOM     24  C   UNL     1       0.269   9.918  17.907  0.00  0.00    +0.000 A 
BRANCH  21  25
ATOM     25  C   UNL     1      -0.009   9.518  22.197  0.00  0.00    +0.000 C 
ATOM     26  F   UNL     1      -0.449  10.637  22.837  0.00  0.00    +0.000 F 
ATOM     27  F   UNL     1      -0.874   8.524  22.543  0.00  0.00    +0.000 F 
ATOM     28  F   UNL     1       1.179   9.198  22.782  0.00  0.00    +0.000 F 
ENDBRANCH  21  25
BRANCH  23  29
ATOM     29  C   UNL     1      -2.017  10.974  17.785  0.00  0.00    +0.000 C 
ATOM     30  F   UNL     1      -1.799  12.255  17.375  0.00  0.00    +0.000 F 
ATOM     31  F   UNL     1      -2.286  10.262  16.656  0.00  0.00    +0.000 F 
ATOM     32  F   UNL     1      -3.178  11.003  18.497  0.00  0.00    +0.000 F 
ENDBRANCH  23  29
ENDBRANCH  18  19
ENDBRANCH  17  18
ENDBRANCH   1  17
TORSDOF 8
ENDMDL
MODEL 7
REMARK VINA RESULT:      -9.0      2.127      3.785
REMARK  Name = 
REMARK  8 active torsions:
REMARK  status: ('A' for Active; 'I' for Inactive)
REMARK    1  A    between atoms: C_5  and  N_6
REMARK    2  A    between atoms: N_6  and  C_7
REMARK    3  A    between atoms: N_6  and  C_24
REMARK    4  A    between atoms: C_7  and  C_8
REMARK    5  A    between atoms: C_8  and  C_9
REMARK    6  A    between atoms: C_9  and  C_10
REMARK    7  A    between atoms: C_12  and  C_13
REMARK    8  A    between atoms: C_18  and  C_19
REMARK                            x       y       z     vdW  Elec       q    Type
REMARK                         _______ _______ _______ _____ _____    ______ ____
ROOT
ATOM      1  C   UNL     1       2.872   6.332  19.482  0.00  0.00    +0.000 C 
ENDROOT
BRANCH   1   2
ATOM      2  N   UNL     1       3.650   5.087  19.308  0.00  0.00    +0.000 N 
BRANCH   2   7
ATOM      3  F   UNL     1       7.616   4.399  15.452  0.00  0.00    +0.000 F 
ATOM      4  C   UNL     1       6.663   4.586  16.375  0.00  0.00    +0.000 A 
ATOM      5  C   UNL     1       5.333   4.468  16.028  0.00  0.00    +0.000 A 
ATOM      6  C   UNL     1       4.348   4.641  17.008  0.00  0.00    +0.000 A 
ATOM      7  C   UNL     1       4.664   4.958  18.347  0.00  0.00    +0.000 A 
ATOM      8  C   UNL     1       6.029   5.103  18.643  0.00  0.00    +0.000 A 
ATOM      9  C   UNL     1       7.024   4.896  17.675  0.00  0.00    +0.000 A 
ENDBRANCH   2   7
BRANCH   2  10
ATOM     10  C   UNL     1       3.160   3.823  19.933  0.00  0.00    +0.000 C 
ATOM     11  C   UNL     1       3.943   2.560  19.530  0.00  0.00    +0.000 C 
ATOM     12  C   UNL     1       3.251   1.640  18.529  0.00  0.00    +0.000 C 
ATOM     13  N   UNL     1       1.824   1.471  18.802  0.00  0.00    +0.000 NA
ATOM     14  C   UNL     1       1.154   2.765  18.727  0.00  0.00    +0.000 C 
ATOM     15  C   UNL     1       1.632   3.700  19.823  0.00  0.00    +0.000 C 
ATOM     16  H   UNL     1       1.691   1.066  19.729  0.00  0.00    +0.000 HD
ENDBRANCH   2  10
ENDBRANCH   1   2
BRANCH   1  17
ATOM     17  C   UNL     1       2.379   6.946  18.166  0.00  0.00    +0.000 C 
BRANCH  17  18
ATOM     18  C   UNL     1       2.594   8.464  18.082  0.00  0.00    +0.000 C 
BRANCH  18  19
ATOM     19  C   UNL     1       1.432   9.174  18.748  0.00  0.00    +0.000 A 
ATOM     20  C   UNL     1       1.288   9.159  20.142  0.00  0.00    +0.000 A 
ATOM     21  C   UNL     1       0.139   9.681  20.759  0.00  0.00    +0.000 A 
ATOM     22  C   UNL     1      -0.869  10.238  19.955  0.00  0.00    +0.000 A 
ATOM     23  C   UNL     1      -0.742  10.271  18.556  0.00  0.00    +0.000 A 
ATOM     24  C   UNL     1       0.417   9.739  17.965  0.00  0.00    +0.000 A 
BRANCH  21  25
ATOM     25  C   UNL     1      -0.050   9.612  22.256  0.00  0.00    +0.000 C 
ATOM     26  F   UNL     1       1.099   9.366  22.943  0.00  0.00    +0.000 F 
ATOM     27  F   UNL     1      -0.555  10.768  22.771  0.00  0.00    +0.000 F 
ATOM     28  F   UNL     1      -0.921   8.631  22.623  0.00  0.00    +0.000 F 
ENDBRANCH  21  25
BRANCH  23  29
ATOM     29  C   UNL     1      -1.842  10.823  17.680  0.00  0.00    +0.000 C 
ATOM     30  F   UNL     1      -3.085  10.701  18.224  0.00  0.00    +0.000 F 
ATOM     31  F   UNL     1      -1.680  12.149  17.413  0.00  0.00    +0.000 F 
ATOM     32  F   UNL     1      -1.902  10.200  16.470  0.00  0.00    +0.000 F 
ENDBRANCH  23  29
ENDBRANCH  18  19
ENDBRANCH  17  18
ENDBRANCH   1  17
TORSDOF 8
ENDMDL
MODEL 8
REMARK VINA RESULT:      -9.0      2.157      5.145
REMARK  Name = 
REMARK  8 active torsions:
REMARK  status: ('A' for Active; 'I' for Inactive)
REMARK    1  A    between atoms: C_5  and  N_6
REMARK    2  A    between atoms: N_6  and  C_7
REMARK    3  A    between atoms: N_6  and  C_24
REMARK    4  A    between atoms: C_7  and  C_8
REMARK    5  A    between atoms: C_8  and  C_9
REMARK    6  A    between atoms: C_9  and  C_10
REMARK    7  A    between atoms: C_12  and  C_13
REMARK    8  A    between atoms: C_18  and  C_19
REMARK                            x       y       z     vdW  Elec       q    Type
REMARK                         _______ _______ _______ _____ _____    ______ ____
ROOT
ATOM      1  C   UNL     1       3.085   6.146  19.275  0.00  0.00    +0.000 C 
ENDROOT
BRANCH   1   2
ATOM      2  N   UNL     1       3.686   4.888  18.784  0.00  0.00    +0.000 N 
BRANCH   2   7
ATOM      3  F   UNL     1       7.681   4.594  14.909  0.00  0.00    +0.000 F 
ATOM      4  C   UNL     1       6.715   4.685  15.831  0.00  0.00    +0.000 A 
ATOM      5  C   UNL     1       5.487   4.098  15.605  0.00  0.00    +0.000 A 
ATOM      6  C   UNL     1       4.494   4.178  16.590  0.00  0.00    +0.000 A 
ATOM      7  C   UNL     1       4.693   4.861  17.808  0.00  0.00    +0.000 A 
ATOM      8  C   UNL     1       5.946   5.473  17.977  0.00  0.00    +0.000 A 
ATOM      9  C   UNL     1       6.959   5.368  17.011  0.00  0.00    +0.000 A 
ENDBRANCH   2   7
BRANCH   2  10
ATOM     10  C   UNL     1       3.011   3.589  19.080  0.00  0.00    +0.000 C 
ATOM     11  C   UNL     1       1.496   3.575  18.805  0.00  0.00    +0.000 C 
ATOM     12  C   UNL     1       0.597   3.647  20.035  0.00  0.00    +0.000 C 
ATOM     13  N   UNL     1       1.074   2.815  21.139  0.00  0.00    +0.000 NA
ATOM     14  C   UNL     1       2.400   3.263  21.553  0.00  0.00    +0.000 C 
ATOM     15  C   UNL     1       3.425   3.043  20.455  0.00  0.00    +0.000 C 
ATOM     16  H   UNL     1       1.114   1.837  20.850  0.00  0.00    +0.000 HD
ENDBRANCH   2  10
ENDBRANCH   1   2
BRANCH   1  17
ATOM     17  C   UNL     1       2.298   6.917  18.207  0.00  0.00    +0.000 C 
BRANCH  17  18
ATOM     18  C   UNL     1       2.506   8.436  18.273  0.00  0.00    +0.000 C 
BRANCH  18  19
ATOM     19  C   UNL     1       1.300   9.081  18.926  0.00  0.00    +0.000 A 
ATOM     20  C   UNL     1       0.425   9.884  18.181  0.00  0.00    +0.000 A 
ATOM     21  C   UNL     1      -0.605  10.608  18.804  0.00  0.00    +0.000 A 
ATOM     22  C   UNL     1      -0.760  10.505  20.196  0.00  0.00    +0.000 A 
ATOM     23  C   UNL     1       0.100   9.701  20.962  0.00  0.00    +0.000 A 
ATOM     24  C   UNL     1       1.124   8.990  20.314  0.00  0.00    +0.000 A 
BRANCH  21  25
ATOM     25  C   UNL     1      -1.512  11.522  18.016  0.00  0.00    +0.000 C 
ATOM     26  F   UNL     1      -0.938  12.711  17.682  0.00  0.00    +0.000 F 
ATOM     27  F   UNL     1      -1.925  10.963  16.844  0.00  0.00    +0.000 F 
ATOM     28  F   UNL     1      -2.649  11.838  18.698  0.00  0.00    +0.000 F 
ENDBRANCH  21  25
BRANCH  23  29
ATOM     29  C   UNL     1      -0.027   9.623  22.465  0.00  0.00    +0.000 C 
ATOM     30  F   UNL     1       1.136   9.298  23.095  0.00  0.00    +0.000 F 
ATOM     31  F   UNL     1      -0.432  10.801  23.016  0.00  0.00    +0.000 F 
ATOM     32  F   UNL     1      -0.938   8.690  22.860  0.00  0.00    +0.000 F 
ENDBRANCH  23  29
ENDBRANCH  18  19
ENDBRANCH  17  18
ENDBRANCH   1  17
TORSDOF 8
ENDMDL
MODEL 9
REMARK VINA RESULT:      -8.9      2.141      4.206
REMARK  Name = 
REMARK  8 active torsions:
REMARK  status: ('A' for Active; 'I' for Inactive)
REMARK    1  A    between atoms: C_5  and  N_6
REMARK    2  A    between atoms: N_6  and  C_7
REMARK    3  A    between atoms: N_6  and  C_24
REMARK    4  A    between atoms: C_7  and  C_8
REMARK    5  A    between atoms: C_8  and  C_9
REMARK    6  A    between atoms: C_9  and  C_10
REMARK    7  A    between atoms: C_12  and  C_13
REMARK    8  A    between atoms: C_18  and  C_19
REMARK                            x       y       z     vdW  Elec       q    Type
REMARK                         _______ _______ _______ _____ _____    ______ ____
ROOT
ATOM      1  C   UNL     1       2.651   6.073  19.040  0.00  0.00    +0.000 C 
ENDROOT
BRANCH   1   2
ATOM      2  N   UNL     1       3.466   4.886  18.707  0.00  0.00    +0.000 N 
BRANCH   2   7
ATOM      3  F   UNL     1       7.630   4.850  15.003  0.00  0.00    +0.000 F 
ATOM      4  C   UNL     1       6.621   4.876  15.882  0.00  0.00    +0.000 A 
ATOM      5  C   UNL     1       5.505   4.091  15.676  0.00  0.00    +0.000 A 
ATOM      6  C   UNL     1       4.468   4.109  16.617  0.00  0.00    +0.000 A 
ATOM      7  C   UNL     1       4.508   4.923  17.769  0.00  0.00    +0.000 A 
ATOM      8  C   UNL     1       5.648   5.731  17.916  0.00  0.00    +0.000 A 
ATOM      9  C   UNL     1       6.708   5.694  16.997  0.00  0.00    +0.000 A 
ENDBRANCH   2   7
BRANCH   2  10
ATOM     10  C   UNL     1       2.992   3.532  19.122  0.00  0.00    +0.000 C 
ATOM     11  C   UNL     1       1.530   3.222  18.754  0.00  0.00    +0.000 C 
ATOM     12  C   UNL     1       0.530   3.277  19.905  0.00  0.00    +0.000 C 
ATOM     13  N   UNL     1       1.042   2.673  21.135  0.00  0.00    +0.000 NA
ATOM     14  C   UNL     1       2.236   3.389  21.572  0.00  0.00    +0.000 C 
ATOM     15  C   UNL     1       3.373   3.227  20.579  0.00  0.00    +0.000 C 
ATOM     16  H   UNL     1       1.267   1.690  20.975  0.00  0.00    +0.000 HD
ENDBRANCH   2  10
ENDBRANCH   1   2
BRANCH   1  17
ATOM     17  C   UNL     1       2.342   6.973  17.837  0.00  0.00    +0.000 C 
BRANCH  17  18
ATOM     18  C   UNL     1       2.684   8.451  18.076  0.00  0.00    +0.000 C 
BRANCH  18  19
ATOM     19  C   UNL     1       1.507   9.139  18.737  0.00  0.00    +0.000 A 
ATOM     20  C   UNL     1       1.369   9.140  20.132  0.00  0.00    +0.000 A 
ATOM     21  C   UNL     1       0.208   9.640  20.746  0.00  0.00    +0.000 A 
ATOM     22  C   UNL     1      -0.817  10.157  19.939  0.00  0.00    +0.000 A 
ATOM     23  C   UNL     1      -0.698  10.173  18.539  0.00  0.00    +0.000 A 
ATOM     24  C   UNL     1       0.473   9.664  17.951  0.00  0.00    +0.000 A 
BRANCH  21  25
ATOM     25  C   UNL     1       0.028   9.588  22.245  0.00  0.00    +0.000 C 
ATOM     26  F   UNL     1       1.158   9.245  22.922  0.00  0.00    +0.000 F 
ATOM     27  F   UNL     1      -0.372  10.782  22.763  0.00  0.00    +0.000 F 
ATOM     28  F   UNL     1      -0.920   8.683  22.621  0.00  0.00    +0.000 F 
ENDBRANCH  21  25
BRANCH  23  29
ATOM     29  C   UNL     1      -1.816  10.682  17.660  0.00  0.00    +0.000 C 
ATOM     30  F   UNL     1      -1.729  12.013  17.384  0.00  0.00    +0.000 F 
ATOM     31  F   UNL     1      -1.857  10.052  16.453  0.00  0.00    +0.000 F 
ATOM     32  F   UNL     1      -3.042  10.498  18.224  0.00  0.00    +0.000 F 
ENDBRANCH  23  29
ENDBRANCH  18  19
ENDBRANCH  17  18
ENDBRANCH   1  17
TORSDOF 8
ENDMDL
