MODEL 1
REMARK VINA RESULT:      -8.2      0.000      0.000
REMARK  Name = 
REMARK  17 active torsions:
REMARK  status: ('A' for Active; 'I' for Inactive)
REMARK    1  A    between atoms: C_1  and  C_2
REMARK    2  A    between atoms: C_2  and  C_3
REMARK    3  A    between atoms: C_2  and  N_4
REMARK    4  A    between atoms: C_5  and  C_7
REMARK    5  A    between atoms: C_7  and  C_8
REMARK    6  A    between atoms: C_7  and  C_9
REMARK    7  A    between atoms: C_12  and  C_13
REMARK    8  A    between atoms: C_13  and  C_14
REMARK    9  A    between atoms: C_14  and  C_15
REMARK   10  A    between atoms: C_14  and  N_16
REMARK   11  A    between atoms: C_18  and  C_19
REMARK   12  A    between atoms: C_20  and  C_21
REMARK   13  A    between atoms: C_21  and  N_22
REMARK   14  A    between atoms: N_22  and  C_23
REMARK   15  A    between atoms: N_22  and  C_24
REMARK   16  A    between atoms: C_24  and  C_25
REMARK   17  A    between atoms: C_25  and  C_26
REMARK                            x       y       z     vdW  Elec       q    Type
REMARK                         _______ _______ _______ _____ _____    ______ ____
ROOT
ATOM      1  N   UNL     1       6.905   5.389  17.314  0.00  0.00    +0.000 N 
ATOM      2  C   UNL     1       7.172   6.696  17.006  0.00  0.00    +0.000 A 
ATOM      3  C   UNL     1       7.844   7.169  18.099  0.00  0.00    +0.000 A 
ATOM      4  N   UNL     1       8.003   6.176  19.013  0.00  0.00    +0.000 NA
ATOM      5  N   UNL     1       7.440   5.075  18.516  0.00  0.00    +0.000 NA
ENDROOT
BRANCH   1   6
ATOM      6  C   UNL     1       6.230   4.385  16.476  0.00  0.00    +0.000 C 
ATOM      7  C   UNL     1       6.297   4.787  14.993  0.00  0.00    +0.000 C 
BRANCH   6   8
ATOM      8  C   UNL     1       4.764   4.114  16.924  0.00  0.00    +0.000 C 
BRANCH   8  12
ATOM      9  C   UNL     1       3.193   3.217  20.021  0.00  0.00    +0.000 C 
ATOM     10  C   UNL     1       3.065   1.853  19.356  0.00  0.00    +0.000 C 
ATOM     11  C   UNL     1       3.510   2.121  17.939  0.00  0.00    +0.000 C 
ATOM     12  C   UNL     1       4.611   3.162  18.122  0.00  0.00    +0.000 C 
ATOM     13  O   UNL     1       4.262   3.902  19.305  0.00  0.00    +0.000 OA
BRANCH   9  14
ATOM     14  C   UNL     1       1.920   4.090  19.971  0.00  0.00    +0.000 C 
ATOM     15  C   UNL     1       0.685   3.178  19.921  0.00  0.00    +0.000 C 
BRANCH  14  17
ATOM     16  N   UNL     1       2.418   6.287  18.987  0.00  0.00    +0.000 N 
ATOM     17  C   UNL     1       1.906   5.017  18.759  0.00  0.00    +0.000 C 
ATOM     18  O   UNL     1       1.464   4.676  17.657  0.00  0.00    +0.000 OA
ATOM     19  H   UNL     1       2.592   6.580  19.936  0.00  0.00    +0.000 HD
BRANCH  16  21
ATOM     20  C   UNL     1       1.781   8.566  18.277  0.00  0.00    +0.000 C 
ATOM     21  C   UNL     1       2.520   7.279  17.917  0.00  0.00    +0.000 C 
ATOM     22  C   UNL     1       3.983   7.584  17.597  0.00  0.00    +0.000 C 
ENDBRANCH  16  21
ENDBRANCH  14  17
ENDBRANCH   9  14
ENDBRANCH   8  12
ENDBRANCH   6   8
ENDBRANCH   1   6
BRANCH   3  23
ATOM     23  C   UNL     1       8.290   8.505  18.279  0.00  0.00    +0.000 C 
ATOM     24  C   UNL     1       8.777   9.600  18.355  0.00  0.00    +0.000 C 
BRANCH  24  25
ATOM     25  C   UNL     1       9.380  10.939  18.406  0.00  0.00    +0.000 C 
BRANCH  25  26
ATOM     26  N   UNL     1      10.300  11.140  19.545  0.00  0.00    +0.000 NA
ATOM     27  C   UNL     1      11.628  11.574  19.079  0.00  0.00    +0.000 C 
BRANCH  26  28
ATOM     28  C   UNL     1       9.754  12.161  20.480  0.00  0.00    +0.000 C 
BRANCH  28  29
ATOM     29  C   UNL     1       8.735  11.609  21.505  0.00  0.00    +0.000 C 
BRANCH  29  30
ATOM     30  C   UNL     1       8.641  12.445  22.761  0.00  0.00    +0.000 A 
ATOM     31  C   UNL     1       8.775  13.843  22.725  0.00  0.00    +0.000 A 
ATOM     32  C   UNL     1       8.720  14.590  23.905  0.00  0.00    +0.000 A 
ATOM     33  C   UNL     1       8.517  13.953  25.127  0.00  0.00    +0.000 A 
ATOM     34  C   UNL     1       8.355  12.569  25.169  0.00  0.00    +0.000 A 
ATOM     35  C   UNL     1       8.419  11.819  23.994  0.00  0.00    +0.000 A 
ENDBRANCH  29  30
ENDBRANCH  28  29
ENDBRANCH  26  28
ENDBRANCH  25  26
ENDBRANCH  24  25
ENDBRANCH   3  23
TORSDOF 12
ENDMDL
MODEL 2
REMARK VINA RESULT:      -8.2      1.255      1.712
REMARK  Name = 
REMARK  17 active torsions:
REMARK  status: ('A' for Active; 'I' for Inactive)
REMARK    1  A    between atoms: C_1  and  C_2
REMARK    2  A    between atoms: C_2  and  C_3
REMARK    3  A    between atoms: C_2  and  N_4
REMARK    4  A    between atoms: C_5  and  C_7
REMARK    5  A    between atoms: C_7  and  C_8
REMARK    6  A    between atoms: C_7  and  C_9
REMARK    7  A    between atoms: C_12  and  C_13
REMARK    8  A    between atoms: C_13  and  C_14
REMARK    9  A    between atoms: C_14  and  C_15
REMARK   10  A    between atoms: C_14  and  N_16
REMARK   11  A    between atoms: C_18  and  C_19
REMARK   12  A    between atoms: C_20  and  C_21
REMARK   13  A    between atoms: C_21  and  N_22
REMARK   14  A    between atoms: N_22  and  C_23
REMARK   15  A    between atoms: N_22  and  C_24
REMARK   16  A    between atoms: C_24  and  C_25
REMARK   17  A    between atoms: C_25  and  C_26
REMARK                            x       y       z     vdW  Elec       q    Type
REMARK                         _______ _______ _______ _____ _____    ______ ____
ROOT
ATOM      1  N   UNL     1       6.790   5.405  17.432  0.00  0.00    +0.000 N 
ATOM      2  C   UNL     1       7.050   6.705  17.090  0.00  0.00    +0.000 A 
ATOM      3  C   UNL     1       7.819   7.177  18.118  0.00  0.00    +0.000 A 
ATOM      4  N   UNL     1       8.039   6.189  19.024  0.00  0.00    +0.000 NA
ATOM      5  N   UNL     1       7.420   5.092  18.587  0.00  0.00    +0.000 NA
ENDROOT
BRANCH   1   6
ATOM      6  C   UNL     1       6.032   4.405  16.664  0.00  0.00    +0.000 C 
ATOM      7  C   UNL     1       6.403   4.476  15.173  0.00  0.00    +0.000 C 
BRANCH   6   8
ATOM      8  C   UNL     1       4.494   4.525  16.872  0.00  0.00    +0.000 C 
BRANCH   8  12
ATOM      9  C   UNL     1       2.948   2.428  19.337  0.00  0.00    +0.000 C 
ATOM     10  C   UNL     1       1.845   2.317  18.292  0.00  0.00    +0.000 C 
ATOM     11  C   UNL     1       2.259   3.325  17.249  0.00  0.00    +0.000 C 
ATOM     12  C   UNL     1       3.782   3.220  17.264  0.00  0.00    +0.000 C 
ATOM     13  O   UNL     1       4.138   2.841  18.605  0.00  0.00    +0.000 OA
BRANCH   9  14
ATOM     14  C   UNL     1       2.677   3.448  20.465  0.00  0.00    +0.000 C 
ATOM     15  C   UNL     1       1.166   3.511  20.736  0.00  0.00    +0.000 C 
BRANCH  14  17
ATOM     16  N   UNL     1       2.186   5.763  19.803  0.00  0.00    +0.000 N 
ATOM     17  C   UNL     1       3.179   4.845  20.111  0.00  0.00    +0.000 C 
ATOM     18  O   UNL     1       4.378   5.142  20.090  0.00  0.00    +0.000 OA
ATOM     19  H   UNL     1       1.245   5.434  19.652  0.00  0.00    +0.000 HD
BRANCH  16  21
ATOM     20  C   UNL     1       2.311   7.450  18.003  0.00  0.00    +0.000 C 
ATOM     21  C   UNL     1       2.499   7.158  19.489  0.00  0.00    +0.000 C 
ATOM     22  C   UNL     1       1.641   8.107  20.325  0.00  0.00    +0.000 C 
ENDBRANCH  16  21
ENDBRANCH  14  17
ENDBRANCH   9  14
ENDBRANCH   8  12
ENDBRANCH   6   8
ENDBRANCH   1   6
BRANCH   3  23
ATOM     23  C   UNL     1       8.299   8.506  18.246  0.00  0.00    +0.000 C 
ATOM     24  C   UNL     1       8.647   9.656  18.232  0.00  0.00    +0.000 C 
BRANCH  24  25
ATOM     25  C   UNL     1       9.033  11.073  18.204  0.00  0.00    +0.000 C 
BRANCH  25  26
ATOM     26  N   UNL     1       9.519  11.589  19.501  0.00  0.00    +0.000 NA
ATOM     27  C   UNL     1      10.987  11.512  19.581  0.00  0.00    +0.000 C 
BRANCH  26  28
ATOM     28  C   UNL     1       9.094  13.003  19.690  0.00  0.00    +0.000 C 
BRANCH  28  29
ATOM     29  C   UNL     1       9.331  13.556  21.115  0.00  0.00    +0.000 C 
BRANCH  29  30
ATOM     30  C   UNL     1       8.323  13.053  22.125  0.00  0.00    +0.000 A 
ATOM     31  C   UNL     1       8.644  12.032  23.035  0.00  0.00    +0.000 A 
ATOM     32  C   UNL     1       7.685  11.560  23.935  0.00  0.00    +0.000 A 
ATOM     33  C   UNL     1       6.405  12.109  23.945  0.00  0.00    +0.000 A 
ATOM     34  C   UNL     1       6.086  13.142  23.064  0.00  0.00    +0.000 A 
ATOM     35  C   UNL     1       7.039  13.609  22.157  0.00  0.00    +0.000 A 
ENDBRANCH  29  30
ENDBRANCH  28  29
ENDBRANCH  26  28
ENDBRANCH  25  26
ENDBRANCH  24  25
ENDBRANCH   3  23
TORSDOF 12
ENDMDL
MODEL 3
REMARK VINA RESULT:      -7.7      2.087      3.251
REMARK  Name = 
REMARK  17 active torsions:
REMARK  status: ('A' for Active; 'I' for Inactive)
REMARK    1  A    between atoms: C_1  and  C_2
REMARK    2  A    between atoms: C_2  and  C_3
REMARK    3  A    between atoms: C_2  and  N_4
REMARK    4  A    between atoms: C_5  and  C_7
REMARK    5  A    between atoms: C_7  and  C_8
REMARK    6  A    between atoms: C_7  and  C_9
REMARK    7  A    between atoms: C_12  and  C_13
REMARK    8  A    between atoms: C_13  and  C_14
REMARK    9  A    between atoms: C_14  and  C_15
REMARK   10  A    between atoms: C_14  and  N_16
REMARK   11  A    between atoms: C_18  and  C_19
REMARK   12  A    between atoms: C_20  and  C_21
REMARK   13  A    between atoms: C_21  and  N_22
REMARK   14  A    between atoms: N_22  and  C_23
REMARK   15  A    between atoms: N_22  and  C_24
REMARK   16  A    between atoms: C_24  and  C_25
REMARK   17  A    between atoms: C_25  and  C_26
REMARK                            x       y       z     vdW  Elec       q    Type
REMARK                         _______ _______ _______ _____ _____    ______ ____
ROOT
ATOM      1  N   UNL     1       6.710   5.491  17.282  0.00  0.00    +0.000 N 
ATOM      2  C   UNL     1       6.984   6.786  16.936  0.00  0.00    +0.000 A 
ATOM      3  C   UNL     1       7.711   7.269  17.990  0.00  0.00    +0.000 A 
ATOM      4  N   UNL     1       7.892   6.291  18.916  0.00  0.00    +0.000 NA
ATOM      5  N   UNL     1       7.290   5.191  18.466  0.00  0.00    +0.000 NA
ENDROOT
BRANCH   1   6
ATOM      6  C   UNL     1       5.983   4.482  16.495  0.00  0.00    +0.000 C 
ATOM      7  C   UNL     1       6.217   4.701  14.991  0.00  0.00    +0.000 C 
BRANCH   6   8
ATOM      8  C   UNL     1       4.463   4.436  16.831  0.00  0.00    +0.000 C 
BRANCH   8  12
ATOM      9  C   UNL     1       3.148   2.632  19.638  0.00  0.00    +0.000 C 
ATOM     10  C   UNL     1       2.163   2.097  18.607  0.00  0.00    +0.000 C 
ATOM     11  C   UNL     1       2.463   2.930  17.384  0.00  0.00    +0.000 C 
ATOM     12  C   UNL     1       3.974   3.127  17.472  0.00  0.00    +0.000 C 
ATOM     13  O   UNL     1       4.294   3.108  18.874  0.00  0.00    +0.000 OA
BRANCH   9  14
ATOM     14  C   UNL     1       2.614   3.790  20.510  0.00  0.00    +0.000 C 
ATOM     15  C   UNL     1       1.080   3.813  20.434  0.00  0.00    +0.000 C 
BRANCH  14  17
ATOM     16  N   UNL     1       2.189   6.071  19.699  0.00  0.00    +0.000 N 
ATOM     17  C   UNL     1       3.156   5.145  20.063  0.00  0.00    +0.000 C 
ATOM     18  O   UNL     1       4.364   5.403  20.018  0.00  0.00    +0.000 OA
ATOM     19  H   UNL     1       1.238   5.761  19.574  0.00  0.00    +0.000 HD
BRANCH  16  21
ATOM     20  C   UNL     1       2.716   7.535  17.779  0.00  0.00    +0.000 C 
ATOM     21  C   UNL     1       2.543   7.432  19.293  0.00  0.00    +0.000 C 
ATOM     22  C   UNL     1       1.490   8.431  19.771  0.00  0.00    +0.000 C 
ENDBRANCH  16  21
ENDBRANCH  14  17
ENDBRANCH   9  14
ENDBRANCH   8  12
ENDBRANCH   6   8
ENDBRANCH   1   6
BRANCH   3  23
ATOM     23  C   UNL     1       8.187   8.600  18.123  0.00  0.00    +0.000 C 
ATOM     24  C   UNL     1       8.666   9.701  18.123  0.00  0.00    +0.000 C 
BRANCH  24  25
ATOM     25  C   UNL     1       9.244  11.051  18.082  0.00  0.00    +0.000 C 
BRANCH  25  26
ATOM     26  N   UNL     1       9.509  11.631  19.416  0.00  0.00    +0.000 NA
ATOM     27  C   UNL     1       9.326  10.623  20.474  0.00  0.00    +0.000 C 
BRANCH  26  28
ATOM     28  C   UNL     1      10.899  12.162  19.485  0.00  0.00    +0.000 C 
BRANCH  28  29
ATOM     29  C   UNL     1      11.010  13.582  20.088  0.00  0.00    +0.000 C 
BRANCH  29  30
ATOM     30  C   UNL     1      10.814  14.680  19.067  0.00  0.00    +0.000 A 
ATOM     31  C   UNL     1       9.821  15.661  19.225  0.00  0.00    +0.000 A 
ATOM     32  C   UNL     1       9.636  16.644  18.249  0.00  0.00    +0.000 A 
ATOM     33  C   UNL     1      10.448  16.668  17.118  0.00  0.00    +0.000 A 
ATOM     34  C   UNL     1      11.455  15.716  16.966  0.00  0.00    +0.000 A 
ATOM     35  C   UNL     1      11.635  14.726  17.933  0.00  0.00    +0.000 A 
ENDBRANCH  29  30
ENDBRANCH  28  29
ENDBRANCH  26  28
ENDBRANCH  25  26
ENDBRANCH  24  25
ENDBRANCH   3  23
TORSDOF 12
ENDMDL
MODEL 4
REMARK VINA RESULT:      -7.7      1.206      1.705
REMARK  Name = 
REMARK  17 active torsions:
REMARK  status: ('A' for Active; 'I' for Inactive)
REMARK    1  A    between atoms: C_1  and  C_2
REMARK    2  A    between atoms: C_2  and  C_3
REMARK    3  A    between atoms: C_2  and  N_4
REMARK    4  A    between atoms: C_5  and  C_7
REMARK    5  A    between atoms: C_7  and  C_8
REMARK    6  A    between atoms: C_7  and  C_9
REMARK    7  A    between atoms: C_12  and  C_13
REMARK    8  A    between atoms: C_13  and  C_14
REMARK    9  A    between atoms: C_14  and  C_15
REMARK   10  A    between atoms: C_14  and  N_16
REMARK   11  A    between atoms: C_18  and  C_19
REMARK   12  A    between atoms: C_20  and  C_21
REMARK   13  A    between atoms: C_21  and  N_22
REMARK   14  A    between atoms: N_22  and  C_23
REMARK   15  A    between atoms: N_22  and  C_24
REMARK   16  A    between atoms: C_24  and  C_25
REMARK   17  A    between atoms: C_25  and  C_26
REMARK                            x       y       z     vdW  Elec       q    Type
REMARK                         _______ _______ _______ _____ _____    ______ ____
ROOT
ATOM      1  N   UNL     1       6.736   6.261  17.510  0.00  0.00    +0.000 N 
ATOM      2  C   UNL     1       6.966   7.583  17.238  0.00  0.00    +0.000 A 
ATOM      3  C   UNL     1       7.957   7.939  18.111  0.00  0.00    +0.000 A 
ATOM      4  N   UNL     1       8.330   6.864  18.854  0.00  0.00    +0.000 NA
ATOM      5  N   UNL     1       7.588   5.827  18.466  0.00  0.00    +0.000 NA
ENDROOT
BRANCH   1   6
ATOM      6  C   UNL     1       5.792   5.354  16.840  0.00  0.00    +0.000 C 
ATOM      7  C   UNL     1       5.362   5.931  15.481  0.00  0.00    +0.000 C 
BRANCH   6   8
ATOM      8  C   UNL     1       4.558   5.007  17.724  0.00  0.00    +0.000 C 
BRANCH   8  12
ATOM      9  C   UNL     1       2.817   2.300  19.305  0.00  0.00    +0.000 C 
ATOM     10  C   UNL     1       2.480   1.914  17.871  0.00  0.00    +0.000 C 
ATOM     11  C   UNL     1       2.984   3.091  17.073  0.00  0.00    +0.000 C 
ATOM     12  C   UNL     1       4.235   3.509  17.840  0.00  0.00    +0.000 C 
ATOM     13  O   UNL     1       3.993   3.156  19.213  0.00  0.00    +0.000 OA
BRANCH   9  14
ATOM     14  C   UNL     1       1.702   3.062  20.054  0.00  0.00    +0.000 C 
ATOM     15  C   UNL     1       0.489   3.223  19.125  0.00  0.00    +0.000 C 
BRANCH  14  17
ATOM     16  N   UNL     1       1.913   5.473  19.627  0.00  0.00    +0.000 N 
ATOM     17  C   UNL     1       2.161   4.441  20.520  0.00  0.00    +0.000 C 
ATOM     18  O   UNL     1       2.720   4.632  21.606  0.00  0.00    +0.000 OA
ATOM     19  H   UNL     1       1.628   5.248  18.686  0.00  0.00    +0.000 HD
BRANCH  16  21
ATOM     20  C   UNL     1       2.369   7.709  18.679  0.00  0.00    +0.000 C 
ATOM     21  C   UNL     1       2.248   6.862  19.944  0.00  0.00    +0.000 C 
ATOM     22  C   UNL     1       1.209   7.469  20.886  0.00  0.00    +0.000 C 
ENDBRANCH  16  21
ENDBRANCH  14  17
ENDBRANCH   9  14
ENDBRANCH   8  12
ENDBRANCH   6   8
ENDBRANCH   1   6
BRANCH   3  23
ATOM     23  C   UNL     1       8.504   9.241  18.251  0.00  0.00    +0.000 C 
ATOM     24  C   UNL     1       8.999  10.336  18.235  0.00  0.00    +0.000 C 
BRANCH  24  25
ATOM     25  C   UNL     1       9.582  11.683  18.180  0.00  0.00    +0.000 C 
BRANCH  25  26
ATOM     26  N   UNL     1      10.537  11.968  19.271  0.00  0.00    +0.000 NA
ATOM     27  C   UNL     1      11.071  13.336  19.159  0.00  0.00    +0.000 C 
BRANCH  26  28
ATOM     28  C   UNL     1       9.876  11.811  20.596  0.00  0.00    +0.000 C 
BRANCH  28  29
ATOM     29  C   UNL     1       9.619  13.139  21.344  0.00  0.00    +0.000 C 
BRANCH  29  30
ATOM     30  C   UNL     1       8.849  12.960  22.633  0.00  0.00    +0.000 A 
ATOM     31  C   UNL     1       8.277  11.724  22.979  0.00  0.00    +0.000 A 
ATOM     32  C   UNL     1       7.539  11.592  24.158  0.00  0.00    +0.000 A 
ATOM     33  C   UNL     1       7.378  12.684  25.008  0.00  0.00    +0.000 A 
ATOM     34  C   UNL     1       7.966  13.907  24.687  0.00  0.00    +0.000 A 
ATOM     35  C   UNL     1       8.695  14.044  23.504  0.00  0.00    +0.000 A 
ENDBRANCH  29  30
ENDBRANCH  28  29
ENDBRANCH  26  28
ENDBRANCH  25  26
ENDBRANCH  24  25
ENDBRANCH   3  23
TORSDOF 12
ENDMDL
MODEL 5
REMARK VINA RESULT:      -7.6      5.812      9.925
REMARK  Name = 
REMARK  17 active torsions:
REMARK  status: ('A' for Active; 'I' for Inactive)
REMARK    1  A    between atoms: C_1  and  C_2
REMARK    2  A    between atoms: C_2  and  C_3
REMARK    3  A    between atoms: C_2  and  N_4
REMARK    4  A    between atoms: C_5  and  C_7
REMARK    5  A    between atoms: C_7  and  C_8
REMARK    6  A    between atoms: C_7  and  C_9
REMARK    7  A    between atoms: C_12  and  C_13
REMARK    8  A    between atoms: C_13  and  C_14
REMARK    9  A    between atoms: C_14  and  C_15
REMARK   10  A    between atoms: C_14  and  N_16
REMARK   11  A    between atoms: C_18  and  C_19
REMARK   12  A    between atoms: C_20  and  C_21
REMARK   13  A    between atoms: C_21  and  N_22
REMARK   14  A    between atoms: N_22  and  C_23
REMARK   15  A    between atoms: N_22  and  C_24
REMARK   16  A    between atoms: C_24  and  C_25
REMARK   17  A    between atoms: C_25  and  C_26
REMARK                            x       y       z     vdW  Elec       q    Type
REMARK                         _______ _______ _______ _____ _____    ______ ____
ROOT
ATOM      1  N   UNL     1       1.236   9.081  19.801  0.00  0.00    +0.000 N 
ATOM      2  C   UNL     1       1.601   7.830  19.386  0.00  0.00    +0.000 A 
ATOM      3  C   UNL     1       1.536   7.066  20.519  0.00  0.00    +0.000 A 
ATOM      4  N   UNL     1       1.116   7.825  21.566  0.00  0.00    +0.000 NA
ATOM      5  N   UNL     1       0.913   9.062  21.114  0.00  0.00    +0.000 NA
ENDROOT
BRANCH   1   6
ATOM      6  C   UNL     1       1.095  10.297  18.984  0.00  0.00    +0.000 C 
ATOM      7  C   UNL     1       2.162  10.328  17.876  0.00  0.00    +0.000 C 
BRANCH   6   8
ATOM      8  C   UNL     1       1.122  11.601  19.833  0.00  0.00    +0.000 C 
BRANCH   8  12
ATOM      9  C   UNL     1      -2.146  12.247  18.505  0.00  0.00    +0.000 C 
ATOM     10  C   UNL     1      -2.432  12.730  19.921  0.00  0.00    +0.000 C 
ATOM     11  C   UNL     1      -1.187  12.331  20.676  0.00  0.00    +0.000 C 
ATOM     12  C   UNL     1      -0.085  12.534  19.640  0.00  0.00    +0.000 C 
ATOM     13  O   UNL     1      -0.697  12.298  18.360  0.00  0.00    +0.000 OA
BRANCH   9  14
ATOM     14  C   UNL     1      -2.628  10.812  18.196  0.00  0.00    +0.000 C 
ATOM     15  C   UNL     1      -1.742  10.208  17.096  0.00  0.00    +0.000 C 
BRANCH  14  17
ATOM     16  N   UNL     1      -5.011  10.584  18.753  0.00  0.00    +0.000 N 
ATOM     17  C   UNL     1      -4.084  10.779  17.739  0.00  0.00    +0.000 C 
ATOM     18  O   UNL     1      -4.420  10.907  16.557  0.00  0.00    +0.000 OA
ATOM     19  H   UNL     1      -4.686  10.301  19.665  0.00  0.00    +0.000 HD
BRANCH  16  21
ATOM     20  C   UNL     1      -7.179   9.587  19.394  0.00  0.00    +0.000 C 
ATOM     21  C   UNL     1      -6.450  10.577  18.488  0.00  0.00    +0.000 C 
ATOM     22  C   UNL     1      -7.040  11.976  18.655  0.00  0.00    +0.000 C 
ENDBRANCH  16  21
ENDBRANCH  14  17
ENDBRANCH   9  14
ENDBRANCH   8  12
ENDBRANCH   6   8
ENDBRANCH   1   6
BRANCH   3  23
ATOM     23  C   UNL     1       1.880   5.693  20.610  0.00  0.00    +0.000 C 
ATOM     24  C   UNL     1       2.192   4.552  20.821  0.00  0.00    +0.000 C 
BRANCH  24  25
ATOM     25  C   UNL     1       2.549   3.157  21.113  0.00  0.00    +0.000 C 
BRANCH  25  26
ATOM     26  N   UNL     1       2.605   2.289  19.918  0.00  0.00    +0.000 NA
ATOM     27  C   UNL     1       1.339   2.347  19.166  0.00  0.00    +0.000 C 
BRANCH  26  28
ATOM     28  C   UNL     1       3.721   2.705  19.025  0.00  0.00    +0.000 C 
BRANCH  28  29
ATOM     29  C   UNL     1       3.284   3.088  17.592  0.00  0.00    +0.000 C 
BRANCH  29  30
ATOM     30  C   UNL     1       4.014   4.295  17.048  0.00  0.00    +0.000 A 
ATOM     31  C   UNL     1       4.994   4.171  16.050  0.00  0.00    +0.000 A 
ATOM     32  C   UNL     1       5.681   5.298  15.589  0.00  0.00    +0.000 A 
ATOM     33  C   UNL     1       5.386   6.557  16.107  0.00  0.00    +0.000 A 
ATOM     34  C   UNL     1       4.395   6.693  17.078  0.00  0.00    +0.000 A 
ATOM     35  C   UNL     1       3.715   5.568  17.548  0.00  0.00    +0.000 A 
ENDBRANCH  29  30
ENDBRANCH  28  29
ENDBRANCH  26  28
ENDBRANCH  25  26
ENDBRANCH  24  25
ENDBRANCH   3  23
TORSDOF 12
ENDMDL
MODEL 6
REMARK VINA RESULT:      -7.5      5.845     10.050
REMARK  Name = 
REMARK  17 active torsions:
REMARK  status: ('A' for Active; 'I' for Inactive)
REMARK    1  A    between atoms: C_1  and  C_2
REMARK    2  A    between atoms: C_2  and  C_3
REMARK    3  A    between atoms: C_2  and  N_4
REMARK    4  A    between atoms: C_5  and  C_7
REMARK    5  A    between atoms: C_7  and  C_8
REMARK    6  A    between atoms: C_7  and  C_9
REMARK    7  A    between atoms: C_12  and  C_13
REMARK    8  A    between atoms: C_13  and  C_14
REMARK    9  A    between atoms: C_14  and  C_15
REMARK   10  A    between atoms: C_14  and  N_16
REMARK   11  A    between atoms: C_18  and  C_19
REMARK   12  A    between atoms: C_20  and  C_21
REMARK   13  A    between atoms: C_21  and  N_22
REMARK   14  A    between atoms: N_22  and  C_23
REMARK   15  A    between atoms: N_22  and  C_24
REMARK   16  A    between atoms: C_24  and  C_25
REMARK   17  A    between atoms: C_25  and  C_26
REMARK                            x       y       z     vdW  Elec       q    Type
REMARK                         _______ _______ _______ _____ _____    ______ ____
ROOT
ATOM      1  N   UNL     1       0.981   9.372  19.728  0.00  0.00    +0.000 N 
ATOM      2  C   UNL     1       1.913   8.375  19.626  0.00  0.00    +0.000 A 
ATOM      3  C   UNL     1       2.314   8.421  18.319  0.00  0.00    +0.000 A 
ATOM      4  N   UNL     1       1.671   9.428  17.671  0.00  0.00    +0.000 NA
ATOM      5  N   UNL     1       0.865  10.025  18.550  0.00  0.00    +0.000 NA
ENDROOT
BRANCH   1   6
ATOM      6  C   UNL     1       0.244   9.797  20.929  0.00  0.00    +0.000 C 
ATOM      7  C   UNL     1      -0.429   8.590  21.603  0.00  0.00    +0.000 C 
BRANCH   6   8
ATOM      8  C   UNL     1      -0.784  10.929  20.635  0.00  0.00    +0.000 C 
BRANCH   8  12
ATOM      9  C   UNL     1      -1.617  14.347  21.332  0.00  0.00    +0.000 C 
ATOM     10  C   UNL     1      -1.032  14.025  22.700  0.00  0.00    +0.000 C 
ATOM     11  C   UNL     1      -0.811  12.533  22.635  0.00  0.00    +0.000 C 
ATOM     12  C   UNL     1      -0.405  12.316  21.180  0.00  0.00    +0.000 C 
ATOM     13  O   UNL     1      -1.068  13.346  20.426  0.00  0.00    +0.000 OA
BRANCH   9  14
ATOM     14  C   UNL     1      -3.160  14.297  21.254  0.00  0.00    +0.000 C 
ATOM     15  C   UNL     1      -3.742  14.499  22.661  0.00  0.00    +0.000 C 
BRANCH  14  17
ATOM     16  N   UNL     1      -3.591  12.860  19.308  0.00  0.00    +0.000 N 
ATOM     17  C   UNL     1      -3.665  12.973  20.689  0.00  0.00    +0.000 C 
ATOM     18  O   UNL     1      -4.116  12.068  21.399  0.00  0.00    +0.000 OA
ATOM     19  H   UNL     1      -3.394  13.683  18.760  0.00  0.00    +0.000 HD
BRANCH  16  21
ATOM     20  C   UNL     1      -5.409  11.745  18.061  0.00  0.00    +0.000 C 
ATOM     21  C   UNL     1      -3.990  11.635  18.614  0.00  0.00    +0.000 C 
ATOM     22  C   UNL     1      -3.011  11.305  17.488  0.00  0.00    +0.000 C 
ENDBRANCH  16  21
ENDBRANCH  14  17
ENDBRANCH   9  14
ENDBRANCH   8  12
ENDBRANCH   6   8
ENDBRANCH   1   6
BRANCH   3  23
ATOM     23  C   UNL     1       3.241   7.537  17.709  0.00  0.00    +0.000 C 
ATOM     24  C   UNL     1       4.112   6.896  17.185  0.00  0.00    +0.000 C 
BRANCH  24  25
ATOM     25  C   UNL     1       5.205   6.129  16.572  0.00  0.00    +0.000 C 
BRANCH  25  26
ATOM     26  N   UNL     1       5.274   4.722  17.017  0.00  0.00    +0.000 NA
ATOM     27  C   UNL     1       5.842   4.626  18.373  0.00  0.00    +0.000 C 
BRANCH  26  28
ATOM     28  C   UNL     1       3.917   4.108  17.013  0.00  0.00    +0.000 C 
BRANCH  28  29
ATOM     29  C   UNL     1       3.807   2.798  17.828  0.00  0.00    +0.000 C 
BRANCH  29  30
ATOM     30  C   UNL     1       2.909   2.923  19.038  0.00  0.00    +0.000 A 
ATOM     31  C   UNL     1       1.589   3.393  18.927  0.00  0.00    +0.000 A 
ATOM     32  C   UNL     1       0.791   3.534  20.065  0.00  0.00    +0.000 A 
ATOM     33  C   UNL     1       1.294   3.194  21.319  0.00  0.00    +0.000 A 
ATOM     34  C   UNL     1       2.593   2.700  21.435  0.00  0.00    +0.000 A 
ATOM     35  C   UNL     1       3.396   2.569  20.302  0.00  0.00    +0.000 A 
ENDBRANCH  29  30
ENDBRANCH  28  29
ENDBRANCH  26  28
ENDBRANCH  25  26
ENDBRANCH  24  25
ENDBRANCH   3  23
TORSDOF 12
ENDMDL
MODEL 7
REMARK VINA RESULT:      -7.5      5.800     10.394
REMARK  Name = 
REMARK  17 active torsions:
REMARK  status: ('A' for Active; 'I' for Inactive)
REMARK    1  A    between atoms: C_1  and  C_2
REMARK    2  A    between atoms: C_2  and  C_3
REMARK    3  A    between atoms: C_2  and  N_4
REMARK    4  A    between atoms: C_5  and  C_7
REMARK    5  A    between atoms: C_7  and  C_8
REMARK    6  A    between atoms: C_7  and  C_9
REMARK    7  A    between atoms: C_12  and  C_13
REMARK    8  A    between atoms: C_13  and  C_14
REMARK    9  A    between atoms: C_14  and  C_15
REMARK   10  A    between atoms: C_14  and  N_16
REMARK   11  A    between atoms: C_18  and  C_19
REMARK   12  A    between atoms: C_20  and  C_21
REMARK   13  A    between atoms: C_21  and  N_22
REMARK   14  A    between atoms: N_22  and  C_23
REMARK   15  A    between atoms: N_22  and  C_24
REMARK   16  A    between atoms: C_24  and  C_25
REMARK   17  A    between atoms: C_25  and  C_26
REMARK                            x       y       z     vdW  Elec       q    Type
REMARK                         _______ _______ _______ _____ _____    ______ ____
ROOT
ATOM      1  N   UNL     1       1.125   9.373  19.459  0.00  0.00    +0.000 N 
ATOM      2  C   UNL     1       1.906   8.250  19.499  0.00  0.00    +0.000 A 
ATOM      3  C   UNL     1       2.462   8.182  18.251  0.00  0.00    +0.000 A 
ATOM      4  N   UNL     1       2.055   9.241  17.503  0.00  0.00    +0.000 NA
ATOM      5  N   UNL     1       1.247   9.984  18.259  0.00  0.00    +0.000 NA
ENDROOT
BRANCH   1   6
ATOM      6  C   UNL     1       0.321   9.950  20.548  0.00  0.00    +0.000 C 
ATOM      7  C   UNL     1      -0.136   8.851  21.522  0.00  0.00    +0.000 C 
BRANCH   6   8
ATOM      8  C   UNL     1      -0.886  10.785  20.028  0.00  0.00    +0.000 C 
BRANCH   8  12
ATOM      9  C   UNL     1      -1.358  13.817  21.884  0.00  0.00    +0.000 C 
ATOM     10  C   UNL     1       0.109  14.045  21.541  0.00  0.00    +0.000 C 
ATOM     11  C   UNL     1       0.522  12.735  20.917  0.00  0.00    +0.000 C 
ATOM     12  C   UNL     1      -0.736  12.309  20.164  0.00  0.00    +0.000 C 
ATOM     13  O   UNL     1      -1.843  12.855  20.903  0.00  0.00    +0.000 OA
BRANCH   9  14
ATOM     14  C   UNL     1      -1.617  13.260  23.301  0.00  0.00    +0.000 C 
ATOM     15  C   UNL     1      -2.591  12.076  23.207  0.00  0.00    +0.000 C 
BRANCH  14  17
ATOM     16  N   UNL     1      -1.262  15.092  24.899  0.00  0.00    +0.000 N 
ATOM     17  C   UNL     1      -2.200  14.314  24.237  0.00  0.00    +0.000 C 
ATOM     18  O   UNL     1      -3.415  14.464  24.406  0.00  0.00    +0.000 OA
ATOM     19  H   UNL     1      -0.292  14.815  24.875  0.00  0.00    +0.000 HD
BRANCH  16  21
ATOM     20  C   UNL     1      -0.598  16.436  26.863  0.00  0.00    +0.000 C 
ATOM     21  C   UNL     1      -1.658  16.179  25.795  0.00  0.00    +0.000 C 
ATOM     22  C   UNL     1      -1.932  17.460  25.007  0.00  0.00    +0.000 C 
ENDBRANCH  16  21
ENDBRANCH  14  17
ENDBRANCH   9  14
ENDBRANCH   8  12
ENDBRANCH   6   8
ENDBRANCH   1   6
BRANCH   3  23
ATOM     23  C   UNL     1       3.316   7.149  17.783  0.00  0.00    +0.000 C 
ATOM     24  C   UNL     1       4.135   6.373  17.372  0.00  0.00    +0.000 C 
BRANCH  24  25
ATOM     25  C   UNL     1       5.165   5.440  16.896  0.00  0.00    +0.000 C 
BRANCH  25  26
ATOM     26  N   UNL     1       6.119   5.014  17.941  0.00  0.00    +0.000 NA
ATOM     27  C   UNL     1       7.130   6.056  18.186  0.00  0.00    +0.000 C 
BRANCH  26  28
ATOM     28  C   UNL     1       5.401   4.723  19.213  0.00  0.00    +0.000 C 
BRANCH  28  29
ATOM     29  C   UNL     1       4.834   3.289  19.312  0.00  0.00    +0.000 C 
BRANCH  29  30
ATOM     30  C   UNL     1       3.334   3.251  19.496  0.00  0.00    +0.000 A 
ATOM     31  C   UNL     1       2.750   3.283  20.773  0.00  0.00    +0.000 A 
ATOM     32  C   UNL     1       1.362   3.211  20.919  0.00  0.00    +0.000 A 
ATOM     33  C   UNL     1       0.545   3.122  19.794  0.00  0.00    +0.000 A 
ATOM     34  C   UNL     1       1.114   3.119  18.522  0.00  0.00    +0.000 A 
ATOM     35  C   UNL     1       2.500   3.180  18.374  0.00  0.00    +0.000 A 
ENDBRANCH  29  30
ENDBRANCH  28  29
ENDBRANCH  26  28
ENDBRANCH  25  26
ENDBRANCH  24  25
ENDBRANCH   3  23
TORSDOF 12
ENDMDL
MODEL 8
REMARK VINA RESULT:      -7.5      5.242      9.857
REMARK  Name = 
REMARK  17 active torsions:
REMARK  status: ('A' for Active; 'I' for Inactive)
REMARK    1  A    between atoms: C_1  and  C_2
REMARK    2  A    between atoms: C_2  and  C_3
REMARK    3  A    between atoms: C_2  and  N_4
REMARK    4  A    between atoms: C_5  and  C_7
REMARK    5  A    between atoms: C_7  and  C_8
REMARK    6  A    between atoms: C_7  and  C_9
REMARK    7  A    between atoms: C_12  and  C_13
REMARK    8  A    between atoms: C_13  and  C_14
REMARK    9  A    between atoms: C_14  and  C_15
REMARK   10  A    between atoms: C_14  and  N_16
REMARK   11  A    between atoms: C_18  and  C_19
REMARK   12  A    between atoms: C_20  and  C_21
REMARK   13  A    between atoms: C_21  and  N_22
REMARK   14  A    between atoms: N_22  and  C_23
REMARK   15  A    between atoms: N_22  and  C_24
REMARK   16  A    between atoms: C_24  and  C_25
REMARK   17  A    between atoms: C_25  and  C_26
REMARK                            x       y       z     vdW  Elec       q    Type
REMARK                         _______ _______ _______ _____ _____    ______ ____
ROOT
ATOM      1  N   UNL     1       1.327   9.140  19.278  0.00  0.00    +0.000 N 
ATOM      2  C   UNL     1       2.064   8.908  18.149  0.00  0.00    +0.000 A 
ATOM      3  C   UNL     1       2.751   7.758  18.425  0.00  0.00    +0.000 A 
ATOM      4  N   UNL     1       2.412   7.300  19.659  0.00  0.00    +0.000 NA
ATOM      5  N   UNL     1       1.519   8.145  20.173  0.00  0.00    +0.000 NA
ENDROOT
BRANCH   1   6
ATOM      6  C   UNL     1       0.370  10.231  19.522  0.00  0.00    +0.000 C 
ATOM      7  C   UNL     1      -0.538  10.435  18.297  0.00  0.00    +0.000 C 
BRANCH   6   8
ATOM      8  C   UNL     1       1.065  11.560  19.941  0.00  0.00    +0.000 C 
BRANCH   8  12
ATOM      9  C   UNL     1       1.099  14.994  18.909  0.00  0.00    +0.000 C 
ATOM     10  C   UNL     1       2.331  14.561  18.124  0.00  0.00    +0.000 C 
ATOM     11  C   UNL     1       2.574  13.156  18.618  0.00  0.00    +0.000 C 
ATOM     12  C   UNL     1       1.160  12.625  18.837  0.00  0.00    +0.000 C 
ATOM     13  O   UNL     1       0.357  13.769  19.178  0.00  0.00    +0.000 OA
BRANCH   9  14
ATOM     14  C   UNL     1       1.396  15.703  20.249  0.00  0.00    +0.000 C 
ATOM     15  C   UNL     1       2.878  16.107  20.289  0.00  0.00    +0.000 C 
BRANCH  14  17
ATOM     16  N   UNL     1      -0.247  14.780  21.827  0.00  0.00    +0.000 N 
ATOM     17  C   UNL     1       1.088  14.814  21.451  0.00  0.00    +0.000 C 
ATOM     18  O   UNL     1       1.957  14.176  22.055  0.00  0.00    +0.000 OA
ATOM     19  H   UNL     1      -0.884  15.453  21.429  0.00  0.00    +0.000 HD
BRANCH  16  21
ATOM     20  C   UNL     1      -1.757  14.662  23.778  0.00  0.00    +0.000 C 
ATOM     21  C   UNL     1      -0.715  13.939  22.928  0.00  0.00    +0.000 C 
ATOM     22  C   UNL     1      -1.286  12.623  22.402  0.00  0.00    +0.000 C 
ENDBRANCH  16  21
ENDBRANCH  14  17
ENDBRANCH   9  14
ENDBRANCH   8  12
ENDBRANCH   6   8
ENDBRANCH   1   6
BRANCH   3  23
ATOM     23  C   UNL     1       3.700   7.138  17.571  0.00  0.00    +0.000 C 
ATOM     24  C   UNL     1       4.434   6.496  16.871  0.00  0.00    +0.000 C 
BRANCH  24  25
ATOM     25  C   UNL     1       5.299   5.693  15.996  0.00  0.00    +0.000 C 
BRANCH  25  26
ATOM     26  N   UNL     1       5.757   4.426  16.603  0.00  0.00    +0.000 NA
ATOM     27  C   UNL     1       6.814   4.671  17.599  0.00  0.00    +0.000 C 
BRANCH  26  28
ATOM     28  C   UNL     1       4.620   3.725  17.262  0.00  0.00    +0.000 C 
BRANCH  28  29
ATOM     29  C   UNL     1       4.768   3.569  18.793  0.00  0.00    +0.000 C 
BRANCH  29  30
ATOM     30  C   UNL     1       3.445   3.391  19.505  0.00  0.00    +0.000 A 
ATOM     31  C   UNL     1       2.246   3.877  18.957  0.00  0.00    +0.000 A 
ATOM     32  C   UNL     1       1.042   3.732  19.651  0.00  0.00    +0.000 A 
ATOM     33  C   UNL     1       1.020   3.090  20.887  0.00  0.00    +0.000 A 
ATOM     34  C   UNL     1       2.200   2.580  21.425  0.00  0.00    +0.000 A 
ATOM     35  C   UNL     1       3.406   2.732  20.740  0.00  0.00    +0.000 A 
ENDBRANCH  29  30
ENDBRANCH  28  29
ENDBRANCH  26  28
ENDBRANCH  25  26
ENDBRANCH  24  25
ENDBRANCH   3  23
TORSDOF 12
ENDMDL
MODEL 9
REMARK VINA RESULT:      -7.5      4.174     10.062
REMARK  Name = 
REMARK  17 active torsions:
REMARK  status: ('A' for Active; 'I' for Inactive)
REMARK    1  A    between atoms: C_1  and  C_2
REMARK    2  A    between atoms: C_2  and  C_3
REMARK    3  A    between atoms: C_2  and  N_4
REMARK    4  A    between atoms: C_5  and  C_7
REMARK    5  A    between atoms: C_7  and  C_8
REMARK    6  A    between atoms: C_7  and  C_9
REMARK    7  A    between atoms: C_12  and  C_13
REMARK    8  A    between atoms: C_13  and  C_14
REMARK    9  A    between atoms: C_14  and  C_15
REMARK   10  A    between atoms: C_14  and  N_16
REMARK   11  A    between atoms: C_18  and  C_19
REMARK   12  A    between atoms: C_20  and  C_21
REMARK   13  A    between atoms: C_21  and  N_22
REMARK   14  A    between atoms: N_22  and  C_23
REMARK   15  A    between atoms: N_22  and  C_24
REMARK   16  A    between atoms: C_24  and  C_25
REMARK   17  A    between atoms: C_25  and  C_26
REMARK                            x       y       z     vdW  Elec       q    Type
REMARK                         _______ _______ _______ _____ _____    ______ ____
ROOT
ATOM      1  N   UNL     1       9.719  12.086  18.470  0.00  0.00    +0.000 N 
ATOM      2  C   UNL     1       9.742  10.731  18.661  0.00  0.00    +0.000 A 
ATOM      3  C   UNL     1       8.634  10.279  17.998  0.00  0.00    +0.000 A 
ATOM      4  N   UNL     1       7.991  11.318  17.404  0.00  0.00    +0.000 NA
ATOM      5  N   UNL     1       8.675  12.429  17.681  0.00  0.00    +0.000 NA
ENDROOT
BRANCH   1   6
ATOM      6  C   UNL     1      10.700  13.079  18.935  0.00  0.00    +0.000 C 
ATOM      7  C   UNL     1      12.003  12.970  18.126  0.00  0.00    +0.000 C 
BRANCH   6   8
ATOM      8  C   UNL     1      10.973  12.985  20.465  0.00  0.00    +0.000 C 
BRANCH   8  12
ATOM      9  C   UNL     1       8.150  15.166  20.837  0.00  0.00    +0.000 C 
ATOM     10  C   UNL     1       7.703  14.122  21.853  0.00  0.00    +0.000 C 
ATOM     11  C   UNL     1       8.708  13.012  21.667  0.00  0.00    +0.000 C 
ATOM     12  C   UNL     1       9.995  13.770  21.355  0.00  0.00    +0.000 C 
ATOM     13  O   UNL     1       9.589  14.984  20.698  0.00  0.00    +0.000 OA
BRANCH   9  14
ATOM     14  C   UNL     1       7.494  15.041  19.443  0.00  0.00    +0.000 C 
ATOM     15  C   UNL     1       8.233  15.956  18.455  0.00  0.00    +0.000 C 
BRANCH  14  17
ATOM     16  N   UNL     1       5.226  14.748  18.544  0.00  0.00    +0.000 N 
ATOM     17  C   UNL     1       6.016  15.420  19.466  0.00  0.00    +0.000 C 
ATOM     18  O   UNL     1       5.551  16.266  20.237  0.00  0.00    +0.000 OA
ATOM     19  H   UNL     1       5.673  14.210  17.817  0.00  0.00    +0.000 HD
BRANCH  16  21
ATOM     20  C   UNL     1       3.412  15.895  17.320  0.00  0.00    +0.000 C 
ATOM     21  C   UNL     1       3.781  14.961  18.471  0.00  0.00    +0.000 C 
ATOM     22  C   UNL     1       3.042  13.631  18.325  0.00  0.00    +0.000 C 
ENDBRANCH  16  21
ENDBRANCH  14  17
ENDBRANCH   9  14
ENDBRANCH   8  12
ENDBRANCH   6   8
ENDBRANCH   1   6
BRANCH   3  23
ATOM     23  C   UNL     1       8.194   8.930  17.951  0.00  0.00    +0.000 C 
ATOM     24  C   UNL     1       7.736   7.829  17.811  0.00  0.00    +0.000 C 
BRANCH  24  25
ATOM     25  C   UNL     1       7.180   6.485  17.598  0.00  0.00    +0.000 C 
BRANCH  25  26
ATOM     26  N   UNL     1       5.797   6.484  17.078  0.00  0.00    +0.000 NA
ATOM     27  C   UNL     1       5.697   5.676  15.851  0.00  0.00    +0.000 C 
BRANCH  26  28
ATOM     28  C   UNL     1       4.858   5.939  18.098  0.00  0.00    +0.000 C 
BRANCH  28  29
ATOM     29  C   UNL     1       3.374   5.946  17.667  0.00  0.00    +0.000 C 
BRANCH  29  30
ATOM     30  C   UNL     1       2.501   5.054  18.521  0.00  0.00    +0.000 A 
ATOM     31  C   UNL     1       2.331   5.293  19.895  0.00  0.00    +0.000 A 
ATOM     32  C   UNL     1       1.548   4.434  20.671  0.00  0.00    +0.000 A 
ATOM     33  C   UNL     1       0.917   3.341  20.083  0.00  0.00    +0.000 A 
ATOM     34  C   UNL     1       1.056   3.112  18.715  0.00  0.00    +0.000 A 
ATOM     35  C   UNL     1       1.846   3.962  17.939  0.00  0.00    +0.000 A 
ENDBRANCH  29  30
ENDBRANCH  28  29
ENDBRANCH  26  28
ENDBRANCH  25  26
ENDBRANCH  24  25
ENDBRANCH   3  23
TORSDOF 12
ENDMDL
