MODEL 1
REMARK VINA RESULT:      -6.8      0.000      0.000
REMARK  Name = 
REMARK  11 active torsions:
REMARK  status: ('A' for Active; 'I' for Inactive)
REMARK    1  A    between atoms: C_1  and  C_2
REMARK    2  A    between atoms: C_2  and  O_4
REMARK    3  A    between atoms: O_4  and  C_5
REMARK    4  A    between atoms: C_5  and  C_6
REMARK    5  A    between atoms: C_6  and  C_8
REMARK    6  A    between atoms: C_8  and  O_9
REMARK    7  A    between atoms: C_18  and  O_19
REMARK    8  A    between atoms: O_19  and  C_20
REMARK    9  A    between atoms: C_20  and  C_21
REMARK   10  A    between atoms: C_25  and  C_26
REMARK   11  A    between atoms: C_31  and  C_32
REMARK                            x       y       z     vdW  Elec       q    Type
REMARK                         _______ _______ _______ _____ _____    ______ ____
ROOT
ATOM      1  C   UNL     1      10.679  12.095  18.915  0.00  0.00    +0.000 C 
ATOM      2  C   UNL     1      10.725  11.985  17.365  0.00  0.00    +0.000 C 
ATOM      3  C   UNL     1      10.921  13.378  16.927  0.00  0.00    +0.000 C 
ATOM      4  C   UNL     1      10.372  14.233  18.060  0.00  0.00    +0.000 C 
ATOM      5  C   UNL     1       8.913  14.388  18.423  0.00  0.00    +0.000 C 
ATOM      6  C   UNL     1       8.028  13.644  17.465  0.00  0.00    +0.000 C 
ATOM      7  C   UNL     1       6.727  13.657  18.157  0.00  0.00    +0.000 C 
ATOM      8  C   UNL     1       6.374  15.124  18.070  0.00  0.00    +0.000 C 
ATOM      9  C   UNL     1       4.956  15.117  17.588  0.00  0.00    +0.000 C 
ATOM     10  C   UNL     1       3.616  15.520  18.092  0.00  0.00    +0.000 C 
ATOM     11  C   UNL     1       4.041  16.518  19.251  0.00  0.00    +0.000 C 
ATOM     12  C   UNL     1       5.683  17.112  19.244  0.00  0.00    +0.000 C 
ATOM     13  C   UNL     1       6.856  15.967  19.274  0.00  0.00    +0.000 C 
ATOM     14  C   UNL     1       6.834  15.560  20.762  0.00  0.00    +0.000 C 
ATOM     15  C   UNL     1       8.521  15.910  18.856  0.00  0.00    +0.000 C 
ATOM     16  C   UNL     1       9.695  16.187  19.871  0.00  0.00    +0.000 C 
ATOM     17  O   UNL     1       9.636  17.109  20.686  0.00  0.00    +0.000 OA
ATOM     18  C   UNL     1      11.094  15.378  19.683  0.00  0.00    +0.000 C 
ATOM     19  C   UNL     1      11.099  13.733  19.417  0.00  0.00    +0.000 C 
ATOM     20  C   UNL     1      10.746  13.466  20.922  0.00  0.00    +0.000 C 
ENDROOT
BRANCH   1  21
ATOM     21  C   UNL     1       9.403  11.104  19.307  0.00  0.00    +0.000 C 
ATOM     22  O   UNL     1       8.822  11.253  20.400  0.00  0.00    +0.000 OA
BRANCH  21  23
ATOM     23  C   UNL     1       8.742  10.106  18.324  0.00  0.00    +0.000 C 
BRANCH  23  24
ATOM     24  O   UNL     1       8.718   8.714  18.768  0.00  0.00    +0.000 OA
BRANCH  24  26
ATOM     25  C   UNL     1       7.896   6.454  18.654  0.00  0.00    +0.000 C 
ATOM     26  C   UNL     1       7.991   7.825  18.033  0.00  0.00    +0.000 C 
ATOM     27  O   UNL     1       7.386   8.134  16.991  0.00  0.00    +0.000 OA
ENDBRANCH  24  26
ENDBRANCH  23  24
ENDBRANCH  21  23
ENDBRANCH   1  21
BRANCH   1  28
ATOM     28  O   UNL     1      11.824  11.313  19.370  0.00  0.00    +0.000 OA
ATOM     29  H   UNL     1      11.972  10.596  18.723  0.00  0.00    +0.000 HD
ENDBRANCH   1  28
BRANCH  10  30
ATOM     30  O   UNL     1       3.111  14.114  18.111  0.00  0.00    +0.000 OA
BRANCH  30  31
ATOM     31  C   UNL     1       2.651  13.343  19.102  0.00  0.00    +0.000 C 
ATOM     32  C   UNL     1       1.926  12.113  18.544  0.00  0.00    +0.000 C 
ATOM     33  O   UNL     1       2.854  13.541  20.269  0.00  0.00    +0.000 OA
ENDBRANCH  30  31
ENDBRANCH  10  30
TORSDOF 7
ENDMDL
MODEL 2
REMARK VINA RESULT:      -6.4      1.556      2.533
REMARK  Name = 
REMARK  11 active torsions:
REMARK  status: ('A' for Active; 'I' for Inactive)
REMARK    1  A    between atoms: C_1  and  C_2
REMARK    2  A    between atoms: C_2  and  O_4
REMARK    3  A    between atoms: O_4  and  C_5
REMARK    4  A    between atoms: C_5  and  C_6
REMARK    5  A    between atoms: C_6  and  C_8
REMARK    6  A    between atoms: C_8  and  O_9
REMARK    7  A    between atoms: C_18  and  O_19
REMARK    8  A    between atoms: O_19  and  C_20
REMARK    9  A    between atoms: C_20  and  C_21
REMARK   10  A    between atoms: C_25  and  C_26
REMARK   11  A    between atoms: C_31  and  C_32
REMARK                            x       y       z     vdW  Elec       q    Type
REMARK                         _______ _______ _______ _____ _____    ______ ____
ROOT
ATOM      1  C   UNL     1      10.868  12.280  19.061  0.00  0.00    +0.000 C 
ATOM      2  C   UNL     1      10.827  11.933  17.547  0.00  0.00    +0.000 C 
ATOM      3  C   UNL     1      10.955  13.245  16.890  0.00  0.00    +0.000 C 
ATOM      4  C   UNL     1      10.448  14.254  17.911  0.00  0.00    +0.000 C 
ATOM      5  C   UNL     1       9.009  14.433  18.336  0.00  0.00    +0.000 C 
ATOM      6  C   UNL     1       8.092  13.532  17.561  0.00  0.00    +0.000 C 
ATOM      7  C   UNL     1       6.834  13.625  18.323  0.00  0.00    +0.000 C 
ATOM      8  C   UNL     1       6.433  15.054  18.035  0.00  0.00    +0.000 C 
ATOM      9  C   UNL     1       4.990  14.943  17.650  0.00  0.00    +0.000 C 
ATOM     10  C   UNL     1       3.670  15.392  18.168  0.00  0.00    +0.000 C 
ATOM     11  C   UNL     1       4.133  16.566  19.132  0.00  0.00    +0.000 C 
ATOM     12  C   UNL     1       5.753  17.185  18.932  0.00  0.00    +0.000 C 
ATOM     13  C   UNL     1       6.959  16.083  19.063  0.00  0.00    +0.000 C 
ATOM     14  C   UNL     1       7.037  15.910  20.594  0.00  0.00    +0.000 C 
ATOM     15  C   UNL     1       8.598  15.996  18.555  0.00  0.00    +0.000 C 
ATOM     16  C   UNL     1       9.821  16.449  19.440  0.00  0.00    +0.000 C 
ATOM     17  O   UNL     1       9.782  17.485  20.106  0.00  0.00    +0.000 OA
ATOM     18  C   UNL     1      11.229  15.650  19.291  0.00  0.00    +0.000 C 
ATOM     19  C   UNL     1      11.268  13.984  19.280  0.00  0.00    +0.000 C 
ATOM     20  C   UNL     1      11.012  13.946  20.827  0.00  0.00    +0.000 C 
ENDROOT
BRANCH   1  21
ATOM     21  C   UNL     1       9.648  11.336  19.680  0.00  0.00    +0.000 C 
ATOM     22  O   UNL     1       9.066  10.521  18.938  0.00  0.00    +0.000 OA
BRANCH  21  23
ATOM     23  C   UNL     1       9.288  11.254  21.184  0.00  0.00    +0.000 C 
BRANCH  23  24
ATOM     24  O   UNL     1       8.355  12.272  21.660  0.00  0.00    +0.000 OA
BRANCH  24  26
ATOM     25  C   UNL     1       6.439  12.860  22.997  0.00  0.00    +0.000 C 
ATOM     26  C   UNL     1       7.685  12.027  22.823  0.00  0.00    +0.000 C 
ATOM     27  O   UNL     1       8.016  11.138  23.627  0.00  0.00    +0.000 OA
ENDBRANCH  24  26
ENDBRANCH  23  24
ENDBRANCH  21  23
ENDBRANCH   1  21
BRANCH   1  28
ATOM     28  O   UNL     1      12.061  11.602  19.558  0.00  0.00    +0.000 OA
ATOM     29  H   UNL     1      12.730  12.284  19.761  0.00  0.00    +0.000 HD
ENDBRANCH   1  28
BRANCH  10  30
ATOM     30  O   UNL     1       3.209  13.996  18.434  0.00  0.00    +0.000 OA
BRANCH  30  31
ATOM     31  C   UNL     1       2.150  13.515  19.095  0.00  0.00    +0.000 C 
ATOM     32  C   UNL     1       2.413  13.495  20.605  0.00  0.00    +0.000 C 
ATOM     33  O   UNL     1       1.105  13.220  18.583  0.00  0.00    +0.000 OA
ENDBRANCH  30  31
ENDBRANCH  10  30
TORSDOF 7
ENDMDL
MODEL 3
REMARK VINA RESULT:      -6.2      1.366      1.561
REMARK  Name = 
REMARK  11 active torsions:
REMARK  status: ('A' for Active; 'I' for Inactive)
REMARK    1  A    between atoms: C_1  and  C_2
REMARK    2  A    between atoms: C_2  and  O_4
REMARK    3  A    between atoms: O_4  and  C_5
REMARK    4  A    between atoms: C_5  and  C_6
REMARK    5  A    between atoms: C_6  and  C_8
REMARK    6  A    between atoms: C_8  and  O_9
REMARK    7  A    between atoms: C_18  and  O_19
REMARK    8  A    between atoms: O_19  and  C_20
REMARK    9  A    between atoms: C_20  and  C_21
REMARK   10  A    between atoms: C_25  and  C_26
REMARK   11  A    between atoms: C_31  and  C_32
REMARK                            x       y       z     vdW  Elec       q    Type
REMARK                         _______ _______ _______ _____ _____    ______ ____
ROOT
ATOM      1  C   UNL     1      10.305  12.399  18.590  0.00  0.00    +0.000 C 
ATOM      2  C   UNL     1      10.606  13.171  17.276  0.00  0.00    +0.000 C 
ATOM      3  C   UNL     1      10.913  14.535  17.740  0.00  0.00    +0.000 C 
ATOM      4  C   UNL     1      10.208  14.668  19.083  0.00  0.00    +0.000 C 
ATOM      5  C   UNL     1       8.714  14.765  19.290  0.00  0.00    +0.000 C 
ATOM      6  C   UNL     1       7.980  14.797  17.980  0.00  0.00    +0.000 C 
ATOM      7  C   UNL     1       6.582  14.575  18.392  0.00  0.00    +0.000 C 
ATOM      8  C   UNL     1       6.292  15.869  19.119  0.00  0.00    +0.000 C 
ATOM      9  C   UNL     1       4.975  16.301  18.552  0.00  0.00    +0.000 C 
ATOM     10  C   UNL     1       3.581  16.509  19.030  0.00  0.00    +0.000 C 
ATOM     11  C   UNL     1       3.837  16.628  20.592  0.00  0.00    +0.000 C 
ATOM     12  C   UNL     1       5.473  16.923  21.124  0.00  0.00    +0.000 C 
ATOM     13  C   UNL     1       6.590  15.829  20.635  0.00  0.00    +0.000 C 
ATOM     14  C   UNL     1       6.309  14.664  21.608  0.00  0.00    +0.000 C 
ATOM     15  C   UNL     1       8.300  15.818  20.464  0.00  0.00    +0.000 C 
ATOM     16  C   UNL     1       9.296  15.336  21.587  0.00  0.00    +0.000 C 
ATOM     17  O   UNL     1       9.128  15.644  22.769  0.00  0.00    +0.000 OA
ATOM     18  C   UNL     1      10.682  14.612  21.141  0.00  0.00    +0.000 C 
ATOM     19  C   UNL     1      10.683  13.412  19.985  0.00  0.00    +0.000 C 
ATOM     20  C   UNL     1      10.077  12.392  21.011  0.00  0.00    +0.000 C 
ENDROOT
BRANCH   1  21
ATOM     21  C   UNL     1       8.954  11.520  18.189  0.00  0.00    +0.000 C 
ATOM     22  O   UNL     1       8.152  11.973  17.349  0.00  0.00    +0.000 OA
BRANCH  21  23
ATOM     23  C   UNL     1       8.696  10.063  18.647  0.00  0.00    +0.000 C 
BRANCH  23  24
ATOM     24  O   UNL     1       8.183   9.164  17.616  0.00  0.00    +0.000 OA
BRANCH  24  26
ATOM     25  C   UNL     1       6.744   7.283  17.176  0.00  0.00    +0.000 C 
ATOM     26  C   UNL     1       7.863   7.890  17.985  0.00  0.00    +0.000 C 
ATOM     27  O   UNL     1       8.492   7.251  18.847  0.00  0.00    +0.000 OA
ENDBRANCH  24  26
ENDBRANCH  23  24
ENDBRANCH  21  23
ENDBRANCH   1  21
BRANCH   1  28
ATOM     28  O   UNL     1      11.335  11.368  18.651  0.00  0.00    +0.000 OA
ATOM     29  H   UNL     1      12.166  11.754  18.311  0.00  0.00    +0.000 HD
ENDBRANCH   1  28
BRANCH  10  30
ATOM     30  O   UNL     1       3.039  15.406  18.181  0.00  0.00    +0.000 OA
BRANCH  30  31
ATOM     31  C   UNL     1       2.152  14.437  18.433  0.00  0.00    +0.000 C 
ATOM     32  C   UNL     1       2.794  13.055  18.268  0.00  0.00    +0.000 C 
ATOM     33  O   UNL     1       1.032  14.624  18.821  0.00  0.00    +0.000 OA
ENDBRANCH  30  31
ENDBRANCH  10  30
TORSDOF 7
ENDMDL
MODEL 4
REMARK VINA RESULT:      -6.2      8.322     11.236
REMARK  Name = 
REMARK  11 active torsions:
REMARK  status: ('A' for Active; 'I' for Inactive)
REMARK    1  A    between atoms: C_1  and  C_2
REMARK    2  A    between atoms: C_2  and  O_4
REMARK    3  A    between atoms: O_4  and  C_5
REMARK    4  A    between atoms: C_5  and  C_6
REMARK    5  A    between atoms: C_6  and  C_8
REMARK    6  A    between atoms: C_8  and  O_9
REMARK    7  A    between atoms: C_18  and  O_19
REMARK    8  A    between atoms: O_19  and  C_20
REMARK    9  A    between atoms: C_20  and  C_21
REMARK   10  A    between atoms: C_25  and  C_26
REMARK   11  A    between atoms: C_31  and  C_32
REMARK                            x       y       z     vdW  Elec       q    Type
REMARK                         _______ _______ _______ _____ _____    ______ ____
ROOT
ATOM      1  C   UNL     1      -0.026  12.155  19.253  0.00  0.00    +0.000 C 
ATOM      2  C   UNL     1      -0.393  13.149  18.116  0.00  0.00    +0.000 C 
ATOM      3  C   UNL     1      -0.445  14.452  18.803  0.00  0.00    +0.000 C 
ATOM      4  C   UNL     1      -0.738  14.123  20.260  0.00  0.00    +0.000 C 
ATOM      5  C   UNL     1      -2.051  13.608  20.803  0.00  0.00    +0.000 C 
ATOM      6  C   UNL     1      -3.095  13.526  19.727  0.00  0.00    +0.000 C 
ATOM      7  C   UNL     1      -4.155  12.729  20.370  0.00  0.00    +0.000 C 
ATOM      8  C   UNL     1      -4.645  13.703  21.418  0.00  0.00    +0.000 C 
ATOM      9  C   UNL     1      -6.134  13.663  21.265  0.00  0.00    +0.000 C 
ATOM     10  C   UNL     1      -7.317  13.253  22.068  0.00  0.00    +0.000 C 
ATOM     11  C   UNL     1      -6.681  13.254  23.523  0.00  0.00    +0.000 C 
ATOM     12  C   UNL     1      -5.161  14.084  23.740  0.00  0.00    +0.000 C 
ATOM     13  C   UNL     1      -3.929  13.581  22.784  0.00  0.00    +0.000 C 
ATOM     14  C   UNL     1      -3.510  12.281  23.501  0.00  0.00    +0.000 C 
ATOM     15  C   UNL     1      -2.442  14.254  22.248  0.00  0.00    +0.000 C 
ATOM     16  C   UNL     1      -1.065  14.051  22.988  0.00  0.00    +0.000 C 
ATOM     17  O   UNL     1      -0.980  14.111  24.216  0.00  0.00    +0.000 OA
ATOM     18  C   UNL     1       0.295  13.983  22.098  0.00  0.00    +0.000 C 
ATOM     19  C   UNL     1       0.371  13.041  20.726  0.00  0.00    +0.000 C 
ATOM     20  C   UNL     1       0.465  11.741  21.598  0.00  0.00    +0.000 C 
ENDROOT
BRANCH   1  21
ATOM     21  C   UNL     1      -1.055  10.883  18.964  0.00  0.00    +0.000 C 
ATOM     22  O   UNL     1      -0.995   9.867  19.684  0.00  0.00    +0.000 OA
BRANCH  21  23
ATOM     23  C   UNL     1      -2.236  10.929  17.963  0.00  0.00    +0.000 C 
BRANCH  23  24
ATOM     24  O   UNL     1      -1.911  10.544  16.592  0.00  0.00    +0.000 OA
BRANCH  24  26
ATOM     25  C   UNL     1      -4.254  10.953  16.216  0.00  0.00    +0.000 C 
ATOM     26  C   UNL     1      -2.940  10.418  15.705  0.00  0.00    +0.000 C 
ATOM     27  O   UNL     1      -2.794   9.985  14.548  0.00  0.00    +0.000 OA
ENDBRANCH  24  26
ENDBRANCH  23  24
ENDBRANCH  21  23
ENDBRANCH   1  21
BRANCH   1  28
ATOM     28  O   UNL     1       1.264  11.602  18.851  0.00  0.00    +0.000 OA
ATOM     29  H   UNL     1       1.183  11.298  17.926  0.00  0.00    +0.000 HD
ENDBRANCH   1  28
BRANCH  10  30
ATOM     30  O   UNL     1      -7.673  12.148  21.128  0.00  0.00    +0.000 OA
BRANCH  30  31
ATOM     31  C   UNL     1      -7.624  10.817  21.252  0.00  0.00    +0.000 C 
ATOM     32  C   UNL     1      -7.042  10.173  19.988  0.00  0.00    +0.000 C 
ATOM     33  O   UNL     1      -7.913  10.215  22.250  0.00  0.00    +0.000 OA
ENDBRANCH  30  31
ENDBRANCH  10  30
TORSDOF 7
ENDMDL
MODEL 5
REMARK VINA RESULT:      -6.1      4.671      9.912
REMARK  Name = 
REMARK  11 active torsions:
REMARK  status: ('A' for Active; 'I' for Inactive)
REMARK    1  A    between atoms: C_1  and  C_2
REMARK    2  A    between atoms: C_2  and  O_4
REMARK    3  A    between atoms: O_4  and  C_5
REMARK    4  A    between atoms: C_5  and  C_6
REMARK    5  A    between atoms: C_6  and  C_8
REMARK    6  A    between atoms: C_8  and  O_9
REMARK    7  A    between atoms: C_18  and  O_19
REMARK    8  A    between atoms: O_19  and  C_20
REMARK    9  A    between atoms: C_20  and  C_21
REMARK   10  A    between atoms: C_25  and  C_26
REMARK   11  A    between atoms: C_31  and  C_32
REMARK                            x       y       z     vdW  Elec       q    Type
REMARK                         _______ _______ _______ _____ _____    ______ ____
ROOT
ATOM      1  C   UNL     1       0.317  13.442  19.319  0.00  0.00    +0.000 C 
ATOM      2  C   UNL     1      -0.428  13.218  17.973  0.00  0.00    +0.000 C 
ATOM      3  C   UNL     1      -1.501  12.272  18.327  0.00  0.00    +0.000 C 
ATOM      4  C   UNL     1      -0.996  11.541  19.564  0.00  0.00    +0.000 C 
ATOM      5  C   UNL     1       0.123  10.526  19.595  0.00  0.00    +0.000 C 
ATOM      6  C   UNL     1       0.649  10.248  18.217  0.00  0.00    +0.000 C 
ATOM      7  C   UNL     1       1.895   9.511  18.494  0.00  0.00    +0.000 C 
ATOM      8  C   UNL     1       1.341   8.218  19.048  0.00  0.00    +0.000 C 
ATOM      9  C   UNL     1       2.096   7.163  18.300  0.00  0.00    +0.000 C 
ATOM     10  C   UNL     1       3.074   6.082  18.598  0.00  0.00    +0.000 C 
ATOM     11  C   UNL     1       2.837   5.914  20.159  0.00  0.00    +0.000 C 
ATOM     12  C   UNL     1       1.381   6.601  20.834  0.00  0.00    +0.000 C 
ATOM     13  C   UNL     1       1.167   8.206  20.585  0.00  0.00    +0.000 C 
ATOM     14  C   UNL     1       2.131   8.800  21.634  0.00  0.00    +0.000 C 
ATOM     15  C   UNL     1      -0.174   9.280  20.604  0.00  0.00    +0.000 C 
ATOM     16  C   UNL     1      -0.633  10.095  21.873  0.00  0.00    +0.000 C 
ATOM     17  O   UNL     1      -0.663   9.579  22.991  0.00  0.00    +0.000 OA
ATOM     18  C   UNL     1      -1.286  11.569  21.657  0.00  0.00    +0.000 C 
ATOM     19  C   UNL     1      -0.573  12.677  20.636  0.00  0.00    +0.000 C 
ATOM     20  C   UNL     1       0.558  12.951  21.688  0.00  0.00    +0.000 C 
ENDROOT
BRANCH   1  21
ATOM     21  C   UNL     1       1.913  13.366  18.863  0.00  0.00    +0.000 C 
ATOM     22  O   UNL     1       2.214  12.869  17.761  0.00  0.00    +0.000 OA
BRANCH  21  23
ATOM     23  C   UNL     1       3.072  14.044  19.635  0.00  0.00    +0.000 C 
BRANCH  23  24
ATOM     24  O   UNL     1       3.115  15.501  19.546  0.00  0.00    +0.000 OA
BRANCH  24  26
ATOM     25  C   UNL     1       4.853  15.280  17.894  0.00  0.00    +0.000 C 
ATOM     26  C   UNL     1       3.676  16.054  18.432  0.00  0.00    +0.000 C 
ATOM     27  O   UNL     1       3.209  17.054  17.858  0.00  0.00    +0.000 OA
ENDBRANCH  24  26
ENDBRANCH  23  24
ENDBRANCH  21  23
ENDBRANCH   1  21
BRANCH   1  28
ATOM     28  O   UNL     1       0.146  14.864  19.597  0.00  0.00    +0.000 OA
ATOM     29  H   UNL     1       0.927  15.167  20.099  0.00  0.00    +0.000 HD
ENDBRANCH   1  28
BRANCH  10  30
ATOM     30  O   UNL     1       4.162   6.738  17.812  0.00  0.00    +0.000 OA
BRANCH  30  31
ATOM     31  C   UNL     1       4.957   6.286  16.836  0.00  0.00    +0.000 C 
ATOM     32  C   UNL     1       4.889   4.758  16.742  0.00  0.00    +0.000 C 
ATOM     33  O   UNL     1       5.571   6.987  16.079  0.00  0.00    +0.000 OA
ENDBRANCH  30  31
ENDBRANCH  10  30
TORSDOF 7
ENDMDL
MODEL 6
REMARK VINA RESULT:      -6.1      2.996      6.543
REMARK  Name = 
REMARK  11 active torsions:
REMARK  status: ('A' for Active; 'I' for Inactive)
REMARK    1  A    between atoms: C_1  and  C_2
REMARK    2  A    between atoms: C_2  and  O_4
REMARK    3  A    between atoms: O_4  and  C_5
REMARK    4  A    between atoms: C_5  and  C_6
REMARK    5  A    between atoms: C_6  and  C_8
REMARK    6  A    between atoms: C_8  and  O_9
REMARK    7  A    between atoms: C_18  and  O_19
REMARK    8  A    between atoms: O_19  and  C_20
REMARK    9  A    between atoms: C_20  and  C_21
REMARK   10  A    between atoms: C_25  and  C_26
REMARK   11  A    between atoms: C_31  and  C_32
REMARK                            x       y       z     vdW  Elec       q    Type
REMARK                         _______ _______ _______ _____ _____    ______ ____
ROOT
ATOM      1  C   UNL     1       7.083  16.506  23.244  0.00  0.00    +0.000 C 
ATOM      2  C   UNL     1       7.532  15.717  24.506  0.00  0.00    +0.000 C 
ATOM      3  C   UNL     1       8.950  16.087  24.657  0.00  0.00    +0.000 C 
ATOM      4  C   UNL     1       9.406  16.496  23.263  0.00  0.00    +0.000 C 
ATOM      5  C   UNL     1       9.613  15.562  22.093  0.00  0.00    +0.000 C 
ATOM      6  C   UNL     1       9.389  14.131  22.487  0.00  0.00    +0.000 C 
ATOM      7  C   UNL     1       9.325  13.448  21.182  0.00  0.00    +0.000 C 
ATOM      8  C   UNL     1      10.759  13.582  20.722  0.00  0.00    +0.000 C 
ATOM      9  C   UNL     1      11.114  12.199  20.271  0.00  0.00    +0.000 C 
ATOM     10  C   UNL     1      11.485  11.511  19.005  0.00  0.00    +0.000 C 
ATOM     11  C   UNL     1      11.934  12.757  18.130  0.00  0.00    +0.000 C 
ATOM     12  C   UNL     1      12.265  14.254  18.965  0.00  0.00    +0.000 C 
ATOM     13  C   UNL     1      11.041  14.847  19.879  0.00  0.00    +0.000 C 
ATOM     14  C   UNL     1      10.133  15.463  18.793  0.00  0.00    +0.000 C 
ATOM     15  C   UNL     1      10.916  15.948  21.192  0.00  0.00    +0.000 C 
ATOM     16  C   UNL     1      10.650  17.493  21.025  0.00  0.00    +0.000 C 
ATOM     17  O   UNL     1      11.218  18.152  20.152  0.00  0.00    +0.000 OA
ATOM     18  C   UNL     1       9.784  18.262  22.167  0.00  0.00    +0.000 C 
ATOM     19  C   UNL     1       8.360  17.613  22.739  0.00  0.00    +0.000 C 
ATOM     20  C   UNL     1       7.620  18.016  21.416  0.00  0.00    +0.000 C 
ENDROOT
BRANCH   1  21
ATOM     21  C   UNL     1       6.198  15.374  22.409  0.00  0.00    +0.000 C 
ATOM     22  O   UNL     1       6.425  15.187  21.198  0.00  0.00    +0.000 OA
BRANCH  21  23
ATOM     23  C   UNL     1       5.212  14.378  23.070  0.00  0.00    +0.000 C 
BRANCH  23  24
ATOM     24  O   UNL     1       5.572  12.968  22.948  0.00  0.00    +0.000 OA
BRANCH  24  26
ATOM     25  C   UNL     1       7.356  11.656  23.894  0.00  0.00    +0.000 C 
ATOM     26  C   UNL     1       6.015  12.325  24.066  0.00  0.00    +0.000 C 
ATOM     27  O   UNL     1       5.415  12.358  25.155  0.00  0.00    +0.000 OA
ENDBRANCH  24  26
ENDBRANCH  23  24
ENDBRANCH  21  23
ENDBRANCH   1  21
BRANCH   1  28
ATOM     28  O   UNL     1       6.045  17.409  23.730  0.00  0.00    +0.000 OA
ATOM     29  H   UNL     1       6.485  18.203  24.092  0.00  0.00    +0.000 HD
ENDBRANCH   1  28
BRANCH  10  30
ATOM     30  O   UNL     1      10.247  10.674  19.003  0.00  0.00    +0.000 OA
BRANCH  30  31
ATOM     31  C   UNL     1       9.115  10.754  18.295  0.00  0.00    +0.000 C 
ATOM     32  C   UNL     1       8.436   9.384  18.196  0.00  0.00    +0.000 C 
ATOM     33  O   UNL     1       8.649  11.776  17.870  0.00  0.00    +0.000 OA
ENDBRANCH  30  31
ENDBRANCH  10  30
TORSDOF 7
ENDMDL
MODEL 7
REMARK VINA RESULT:      -6.1      2.857      6.660
REMARK  Name = 
REMARK  11 active torsions:
REMARK  status: ('A' for Active; 'I' for Inactive)
REMARK    1  A    between atoms: C_1  and  C_2
REMARK    2  A    between atoms: C_2  and  O_4
REMARK    3  A    between atoms: O_4  and  C_5
REMARK    4  A    between atoms: C_5  and  C_6
REMARK    5  A    between atoms: C_6  and  C_8
REMARK    6  A    between atoms: C_8  and  O_9
REMARK    7  A    between atoms: C_18  and  O_19
REMARK    8  A    between atoms: O_19  and  C_20
REMARK    9  A    between atoms: C_20  and  C_21
REMARK   10  A    between atoms: C_25  and  C_26
REMARK   11  A    between atoms: C_31  and  C_32
REMARK                            x       y       z     vdW  Elec       q    Type
REMARK                         _______ _______ _______ _____ _____    ______ ____
ROOT
ATOM      1  C   UNL     1       6.208  14.538  24.284  0.00  0.00    +0.000 C 
ATOM      2  C   UNL     1       6.761  13.460  25.258  0.00  0.00    +0.000 C 
ATOM      3  C   UNL     1       8.096  13.971  25.615  0.00  0.00    +0.000 C 
ATOM      4  C   UNL     1       8.501  14.874  24.458  0.00  0.00    +0.000 C 
ATOM      5  C   UNL     1       8.877  14.413  23.068  0.00  0.00    +0.000 C 
ATOM      6  C   UNL     1       8.886  12.915  22.971  0.00  0.00    +0.000 C 
ATOM      7  C   UNL     1       8.957  12.691  21.516  0.00  0.00    +0.000 C 
ATOM      8  C   UNL     1      10.356  13.183  21.221  0.00  0.00    +0.000 C 
ATOM      9  C   UNL     1      10.941  12.091  20.379  0.00  0.00    +0.000 C 
ATOM     10  C   UNL     1      11.440  11.915  18.989  0.00  0.00    +0.000 C 
ATOM     11  C   UNL     1      11.691  13.431  18.588  0.00  0.00    +0.000 C 
ATOM     12  C   UNL     1      11.757  14.607  19.876  0.00  0.00    +0.000 C 
ATOM     13  C   UNL     1      10.438  14.680  20.845  0.00  0.00    +0.000 C 
ATOM     14  C   UNL     1       9.458  15.470  19.952  0.00  0.00    +0.000 C 
ATOM     15  C   UNL     1      10.113  15.263  22.428  0.00  0.00    +0.000 C 
ATOM     16  C   UNL     1       9.598  16.720  22.743  0.00  0.00    +0.000 C 
ATOM     17  O   UNL     1      10.062  17.704  22.165  0.00  0.00    +0.000 OA
ATOM     18  C   UNL     1       8.599  16.936  24.008  0.00  0.00    +0.000 C 
ATOM     19  C   UNL     1       7.293  15.929  24.245  0.00  0.00    +0.000 C 
ATOM     20  C   UNL     1       6.517  16.623  23.072  0.00  0.00    +0.000 C 
ENDROOT
BRANCH   1  21
ATOM     21  C   UNL     1       5.535  13.619  23.075  0.00  0.00    +0.000 C 
ATOM     22  O   UNL     1       5.387  12.393  23.244  0.00  0.00    +0.000 OA
BRANCH  21  23
ATOM     23  C   UNL     1       4.892  14.203  21.793  0.00  0.00    +0.000 C 
BRANCH  23  24
ATOM     24  O   UNL     1       5.830  14.572  20.735  0.00  0.00    +0.000 OA
BRANCH  24  26
ATOM     25  C   UNL     1       5.906  14.972  18.361  0.00  0.00    +0.000 C 
ATOM     26  C   UNL     1       5.365  15.352  19.717  0.00  0.00    +0.000 C 
ATOM     27  O   UNL     1       4.507  16.239  19.873  0.00  0.00    +0.000 OA
ENDBRANCH  24  26
ENDBRANCH  23  24
ENDBRANCH  21  23
ENDBRANCH   1  21
BRANCH   1  28
ATOM     28  O   UNL     1       5.028  15.067  24.960  0.00  0.00    +0.000 OA
ATOM     29  H   UNL     1       5.228  15.982  25.238  0.00  0.00    +0.000 HD
ENDBRANCH   1  28
BRANCH  10  30
ATOM     30  O   UNL     1      10.357  10.948  18.637  0.00  0.00    +0.000 OA
BRANCH  30  31
ATOM     31  C   UNL     1       9.122  11.125  18.158  0.00  0.00    +0.000 C 
ATOM     32  C   UNL     1       8.338   9.808  18.170  0.00  0.00    +0.000 C 
ATOM     33  O   UNL     1       8.659  12.188  17.843  0.00  0.00    +0.000 OA
ENDBRANCH  30  31
ENDBRANCH  10  30
TORSDOF 7
ENDMDL
MODEL 8
REMARK VINA RESULT:      -6.0      7.854     12.272
REMARK  Name = 
REMARK  11 active torsions:
REMARK  status: ('A' for Active; 'I' for Inactive)
REMARK    1  A    between atoms: C_1  and  C_2
REMARK    2  A    between atoms: C_2  and  O_4
REMARK    3  A    between atoms: O_4  and  C_5
REMARK    4  A    between atoms: C_5  and  C_6
REMARK    5  A    between atoms: C_6  and  C_8
REMARK    6  A    between atoms: C_8  and  O_9
REMARK    7  A    between atoms: C_18  and  O_19
REMARK    8  A    between atoms: O_19  and  C_20
REMARK    9  A    between atoms: C_20  and  C_21
REMARK   10  A    between atoms: C_25  and  C_26
REMARK   11  A    between atoms: C_31  and  C_32
REMARK                            x       y       z     vdW  Elec       q    Type
REMARK                         _______ _______ _______ _____ _____    ______ ____
ROOT
ATOM      1  C   UNL     1      -5.028  14.374  23.509  0.00  0.00    +0.000 C 
ATOM      2  C   UNL     1      -5.164  13.047  24.307  0.00  0.00    +0.000 C 
ATOM      3  C   UNL     1      -3.923  12.993  25.098  0.00  0.00    +0.000 C 
ATOM      4  C   UNL     1      -2.920  13.840  24.326  0.00  0.00    +0.000 C 
ATOM      5  C   UNL     1      -2.281  13.470  23.008  0.00  0.00    +0.000 C 
ATOM      6  C   UNL     1      -2.695  12.096  22.565  0.00  0.00    +0.000 C 
ATOM      7  C   UNL     1      -2.238  12.062  21.164  0.00  0.00    +0.000 C 
ATOM      8  C   UNL     1      -0.739  12.056  21.355  0.00  0.00    +0.000 C 
ATOM      9  C   UNL     1      -0.275  10.953  20.454  0.00  0.00    +0.000 C 
ATOM     10  C   UNL     1       0.561  10.801  19.232  0.00  0.00    +0.000 C 
ATOM     11  C   UNL     1       1.370  12.166  19.276  0.00  0.00    +0.000 C 
ATOM     12  C   UNL     1       1.378  13.053  20.780  0.00  0.00    +0.000 C 
ATOM     13  C   UNL     1      -0.093  13.461  21.375  0.00  0.00    +0.000 C 
ATOM     14  C   UNL     1      -0.454  14.663  20.477  0.00  0.00    +0.000 C 
ATOM     15  C   UNL     1      -0.711  13.900  22.917  0.00  0.00    +0.000 C 
ATOM     16  C   UNL     1      -0.834  15.386  23.428  0.00  0.00    +0.000 C 
ATOM     17  O   UNL     1       0.064  16.208  23.234  0.00  0.00    +0.000 OA
ATOM     18  C   UNL     1      -2.067  15.771  24.416  0.00  0.00    +0.000 C 
ATOM     19  C   UNL     1      -3.621  15.276  24.073  0.00  0.00    +0.000 C 
ATOM     20  C   UNL     1      -3.738  16.355  22.940  0.00  0.00    +0.000 C 
ENDROOT
BRANCH   1  21
ATOM     21  C   UNL     1      -5.529  13.931  21.988  0.00  0.00    +0.000 C 
ATOM     22  O   UNL     1      -4.958  14.411  20.989  0.00  0.00    +0.000 OA
BRANCH  21  23
ATOM     23  C   UNL     1      -6.550  12.803  21.702  0.00  0.00    +0.000 C 
BRANCH  23  24
ATOM     24  O   UNL     1      -6.028  11.659  20.958  0.00  0.00    +0.000 OA
BRANCH  24  26
ATOM     25  C   UNL     1      -7.392  12.092  19.021  0.00  0.00    +0.000 C 
ATOM     26  C   UNL     1      -6.046  11.724  19.595  0.00  0.00    +0.000 C 
ATOM     27  O   UNL     1      -5.031  11.582  18.891  0.00  0.00    +0.000 OA
ENDBRANCH  24  26
ENDBRANCH  23  24
ENDBRANCH  21  23
ENDBRANCH   1  21
BRANCH   1  28
ATOM     28  O   UNL     1      -6.144  15.193  23.972  0.00  0.00    +0.000 OA
ATOM     29  H   UNL     1      -5.915  16.129  23.811  0.00  0.00    +0.000 HD
ENDBRANCH   1  28
BRANCH  10  30
ATOM     30  O   UNL     1      -0.594  10.343  18.401  0.00  0.00    +0.000 OA
BRANCH  30  31
ATOM     31  C   UNL     1      -1.518  11.016  17.706  0.00  0.00    +0.000 C 
ATOM     32  C   UNL     1      -2.449  10.052  16.963  0.00  0.00    +0.000 C 
ATOM     33  O   UNL     1      -1.654  12.209  17.731  0.00  0.00    +0.000 OA
ENDBRANCH  30  31
ENDBRANCH  10  30
TORSDOF 7
ENDMDL
MODEL 9
REMARK VINA RESULT:      -6.0      8.534     13.029
REMARK  Name = 
REMARK  11 active torsions:
REMARK  status: ('A' for Active; 'I' for Inactive)
REMARK    1  A    between atoms: C_1  and  C_2
REMARK    2  A    between atoms: C_2  and  O_4
REMARK    3  A    between atoms: O_4  and  C_5
REMARK    4  A    between atoms: C_5  and  C_6
REMARK    5  A    between atoms: C_6  and  C_8
REMARK    6  A    between atoms: C_8  and  O_9
REMARK    7  A    between atoms: C_18  and  O_19
REMARK    8  A    between atoms: O_19  and  C_20
REMARK    9  A    between atoms: C_20  and  C_21
REMARK   10  A    between atoms: C_25  and  C_26
REMARK   11  A    between atoms: C_31  and  C_32
REMARK                            x       y       z     vdW  Elec       q    Type
REMARK                         _______ _______ _______ _____ _____    ______ ____
ROOT
ATOM      1  C   UNL     1      -5.515  14.646  23.681  0.00  0.00    +0.000 C 
ATOM      2  C   UNL     1      -5.959  13.185  23.971  0.00  0.00    +0.000 C 
ATOM      3  C   UNL     1      -4.804  12.609  24.683  0.00  0.00    +0.000 C 
ATOM      4  C   UNL     1      -3.608  13.442  24.243  0.00  0.00    +0.000 C 
ATOM      5  C   UNL     1      -2.973  13.420  22.872  0.00  0.00    +0.000 C 
ATOM      6  C   UNL     1      -3.620  12.396  21.985  0.00  0.00    +0.000 C 
ATOM      7  C   UNL     1      -3.092  12.749  20.654  0.00  0.00    +0.000 C 
ATOM      8  C   UNL     1      -1.638  12.369  20.817  0.00  0.00    +0.000 C 
ATOM      9  C   UNL     1      -1.344  11.569  19.586  0.00  0.00    +0.000 C 
ATOM     10  C   UNL     1      -0.479  11.673  18.380  0.00  0.00    +0.000 C 
ATOM     11  C   UNL     1       0.578  12.744  18.886  0.00  0.00    +0.000 C 
ATOM     12  C   UNL     1       0.665  13.044  20.604  0.00  0.00    +0.000 C 
ATOM     13  C   UNL     1      -0.731  13.517  21.317  0.00  0.00    +0.000 C 
ATOM     14  C   UNL     1      -0.791  15.000  20.894  0.00  0.00    +0.000 C 
ATOM     15  C   UNL     1      -1.346  13.522  22.922  0.00  0.00    +0.000 C 
ATOM     16  C   UNL     1      -1.207  14.737  23.916  0.00  0.00    +0.000 C 
ATOM     17  O   UNL     1      -0.155  15.372  24.011  0.00  0.00    +0.000 OA
ATOM     18  C   UNL     1      -2.400  15.008  24.988  0.00  0.00    +0.000 C 
ATOM     19  C   UNL     1      -3.996  14.991  24.509  0.00  0.00    +0.000 C 
ATOM     20  C   UNL     1      -3.827  16.390  23.821  0.00  0.00    +0.000 C 
ENDROOT
BRANCH   1  21
ATOM     21  C   UNL     1      -5.996  14.861  22.105  0.00  0.00    +0.000 C 
ATOM     22  O   UNL     1      -6.642  13.963  21.531  0.00  0.00    +0.000 OA
BRANCH  21  23
ATOM     23  C   UNL     1      -5.862  16.194  21.328  0.00  0.00    +0.000 C 
BRANCH  23  24
ATOM     24  O   UNL     1      -5.401  16.071  19.947  0.00  0.00    +0.000 OA
BRANCH  24  26
ATOM     25  C   UNL     1      -6.825  17.722  18.925  0.00  0.00    +0.000 C 
ATOM     26  C   UNL     1      -6.304  16.307  18.952  0.00  0.00    +0.000 C 
ATOM     27  O   UNL     1      -6.606  15.463  18.090  0.00  0.00    +0.000 OA
ENDBRANCH  24  26
ENDBRANCH  23  24
ENDBRANCH  21  23
ENDBRANCH   1  21
BRANCH   1  28
ATOM     28  O   UNL     1      -6.475  15.469  24.409  0.00  0.00    +0.000 OA
ATOM     29  H   UNL     1      -7.157  15.764  23.775  0.00  0.00    +0.000 HD
ENDBRANCH   1  28
BRANCH  10  30
ATOM     30  O   UNL     1      -1.647  11.775  17.452  0.00  0.00    +0.000 OA
BRANCH  30  31
ATOM     31  C   UNL     1      -2.482  10.852  16.963  0.00  0.00    +0.000 C 
ATOM     32  C   UNL     1      -3.917  11.389  16.913  0.00  0.00    +0.000 C 
ATOM     33  O   UNL     1      -2.142   9.782  16.538  0.00  0.00    +0.000 OA
ENDBRANCH  30  31
ENDBRANCH  10  30
TORSDOF 7
ENDMDL
