MODEL 1
REMARK VINA RESULT:      -9.1      0.000      0.000
REMARK  Name = 
REMARK  5 active torsions:
REMARK  status: ('A' for Active; 'I' for Inactive)
REMARK    1  A    between atoms: C_1  and  O_2
REMARK    2  A    between atoms: O_2  and  C_3
REMARK    3  A    between atoms: N_11  and  C_12
REMARK    4  A    between atoms: C_12  and  C_13
REMARK    5  A    between atoms: C_13  and  C_14
REMARK                            x       y       z     vdW  Elec       q    Type
REMARK                         _______ _______ _______ _____ _____    ______ ____
ROOT
ATOM      1  C   UNL     1       2.756   4.121  19.808  0.00  0.00    +0.000 C 
ATOM      2  N   UNL     1       1.946   3.510  18.761  0.00  0.00    +0.000 N 
ATOM      3  C   UNL     1       0.849   2.858  19.249  0.00  0.00    +0.000 C 
ATOM      4  O   UNL     1      -0.115   2.497  18.600  0.00  0.00    +0.000 OA
ATOM      5  N   UNL     1       0.986   2.763  20.590  0.00  0.00    +0.000 N 
ATOM      6  C   UNL     1       2.047   3.508  21.024  0.00  0.00    +0.000 C 
ATOM      7  O   UNL     1       2.325   3.677  22.202  0.00  0.00    +0.000 OA
ATOM      8  H   UNL     1       2.018   3.835  17.798  0.00  0.00    +0.000 HD
ATOM      9  H   UNL     1       0.311   2.321  21.193  0.00  0.00    +0.000 HD
ENDROOT
BRANCH   1  10
ATOM     10  C   UNL     1       2.504   5.607  19.786  0.00  0.00    +0.000 A 
ATOM     11  C   UNL     1       1.845   6.432  20.687  0.00  0.00    +0.000 A 
ATOM     12  C   UNL     1       1.672   7.675  20.053  0.00  0.00    +0.000 A 
ATOM     13  N   UNL     1       1.017   8.784  20.482  0.00  0.00    +0.000 NA
ATOM     14  C   UNL     1       0.972   9.775  19.558  0.00  0.00    +0.000 A 
ATOM     15  C   UNL     1       1.559   9.740  18.295  0.00  0.00    +0.000 A 
ATOM     16  C   UNL     1       2.259   8.602  17.886  0.00  0.00    +0.000 A 
ATOM     17  C   UNL     1       2.280   7.565  18.809  0.00  0.00    +0.000 A 
ATOM     18  O   UNL     1       2.827   6.322  18.658  0.00  0.00    +0.000 OA
ENDBRANCH   1  10
BRANCH   1  19
ATOM     19  C   UNL     1       4.228   3.669  19.751  0.00  0.00    +0.000 C 
BRANCH  19  28
ATOM     20  C   UNL     1       6.502   4.304  14.179  0.00  0.00    +0.000 A 
ATOM     21  C   UNL     1       7.404   5.193  14.805  0.00  0.00    +0.000 A 
ATOM     22  C   UNL     1       7.358   5.441  16.191  0.00  0.00    +0.000 A 
ATOM     23  C   UNL     1       6.401   4.782  16.935  0.00  0.00    +0.000 A 
ATOM     24  C   UNL     1       5.549   3.891  16.295  0.00  0.00    +0.000 A 
ATOM     25  C   UNL     1       5.557   3.638  14.943  0.00  0.00    +0.000 A 
ATOM     26  C   UNL     1       4.668   3.291  17.274  0.00  0.00    +0.000 C 
ATOM     27  O   UNL     1       3.880   2.407  16.987  0.00  0.00    +0.000 OA
ATOM     28  N   UNL     1       4.945   3.887  18.486  0.00  0.00    +0.000 N 
ATOM     29  C   UNL     1       6.065   4.824  18.391  0.00  0.00    +0.000 C 
BRANCH  20  31
ATOM     30  C   UNL     1       5.828   3.137  12.234  0.00  0.00    +0.000 C 
ATOM     31  O   UNL     1       6.636   4.157  12.825  0.00  0.00    +0.000 OA
ENDBRANCH  20  31
ENDBRANCH  19  28
ENDBRANCH   1  19
TORSDOF 4
ENDMDL
MODEL 2
REMARK VINA RESULT:      -8.9      1.055      1.636
REMARK  Name = 
REMARK  5 active torsions:
REMARK  status: ('A' for Active; 'I' for Inactive)
REMARK    1  A    between atoms: C_1  and  O_2
REMARK    2  A    between atoms: O_2  and  C_3
REMARK    3  A    between atoms: N_11  and  C_12
REMARK    4  A    between atoms: C_12  and  C_13
REMARK    5  A    between atoms: C_13  and  C_14
REMARK                            x       y       z     vdW  Elec       q    Type
REMARK                         _______ _______ _______ _____ _____    ______ ____
ROOT
ATOM      1  C   UNL     1       2.864   3.974  19.701  0.00  0.00    +0.000 C 
ATOM      2  N   UNL     1       2.003   3.407  18.671  0.00  0.00    +0.000 N 
ATOM      3  C   UNL     1       0.978   2.663  19.185  0.00  0.00    +0.000 C 
ATOM      4  O   UNL     1      -0.016   2.305  18.582  0.00  0.00    +0.000 OA
ATOM      5  N   UNL     1       1.226   2.469  20.499  0.00  0.00    +0.000 N 
ATOM      6  C   UNL     1       2.283   3.230  20.912  0.00  0.00    +0.000 C 
ATOM      7  O   UNL     1       2.645   3.320  22.076  0.00  0.00    +0.000 OA
ATOM      8  H   UNL     1       1.983   3.811  17.736  0.00  0.00    +0.000 HD
ATOM      9  H   UNL     1       0.622   1.946  21.112  0.00  0.00    +0.000 HD
ENDROOT
BRANCH   1  10
ATOM     10  C   UNL     1       2.544   5.442  19.823  0.00  0.00    +0.000 A 
ATOM     11  C   UNL     1       1.860   6.147  20.802  0.00  0.00    +0.000 A 
ATOM     12  C   UNL     1       1.622   7.435  20.290  0.00  0.00    +0.000 A 
ATOM     13  N   UNL     1       0.922   8.467  20.828  0.00  0.00    +0.000 NA
ATOM     14  C   UNL     1       0.819   9.536  20.002  0.00  0.00    +0.000 A 
ATOM     15  C   UNL     1       1.390   9.648  18.736  0.00  0.00    +0.000 A 
ATOM     16  C   UNL     1       2.136   8.588  18.215  0.00  0.00    +0.000 A 
ATOM     17  C   UNL     1       2.218   7.470  19.036  0.00  0.00    +0.000 A 
ATOM     18  O   UNL     1       2.819   6.274  18.764  0.00  0.00    +0.000 OA
ENDBRANCH   1  10
BRANCH   1  19
ATOM     19  C   UNL     1       4.346   3.605  19.497  0.00  0.00    +0.000 C 
BRANCH  19  28
ATOM     20  C   UNL     1       7.470   5.182  14.559  0.00  0.00    +0.000 A 
ATOM     21  C   UNL     1       6.545   4.353  13.886  0.00  0.00    +0.000 A 
ATOM     22  C   UNL     1       5.507   3.692  14.572  0.00  0.00    +0.000 A 
ATOM     23  C   UNL     1       5.410   3.879  15.935  0.00  0.00    +0.000 A 
ATOM     24  C   UNL     1       6.316   4.724  16.563  0.00  0.00    +0.000 A 
ATOM     25  C   UNL     1       7.349   5.372  15.927  0.00  0.00    +0.000 A 
ATOM     26  C   UNL     1       5.995   4.802  17.972  0.00  0.00    +0.000 C 
ATOM     27  O   UNL     1       6.584   5.546  18.736  0.00  0.00    +0.000 OA
ATOM     28  N   UNL     1       4.944   3.936  18.195  0.00  0.00    +0.000 N 
ATOM     29  C   UNL     1       4.465   3.327  16.954  0.00  0.00    +0.000 C 
BRANCH  20  31
ATOM     30  C   UNL     1       8.175   5.788  12.383  0.00  0.00    +0.000 C 
ATOM     31  O   UNL     1       8.442   5.759  13.787  0.00  0.00    +0.000 OA
ENDBRANCH  20  31
ENDBRANCH  19  28
ENDBRANCH   1  19
TORSDOF 4
ENDMDL
MODEL 3
REMARK VINA RESULT:      -8.8      2.286      7.450
REMARK  Name = 
REMARK  5 active torsions:
REMARK  status: ('A' for Active; 'I' for Inactive)
REMARK    1  A    between atoms: C_1  and  O_2
REMARK    2  A    between atoms: O_2  and  C_3
REMARK    3  A    between atoms: N_11  and  C_12
REMARK    4  A    between atoms: C_12  and  C_13
REMARK    5  A    between atoms: C_13  and  C_14
REMARK                            x       y       z     vdW  Elec       q    Type
REMARK                         _______ _______ _______ _____ _____    ______ ____
ROOT
ATOM      1  C   UNL     1       4.673   4.804  17.464  0.00  0.00    +0.000 C 
ATOM      2  N   UNL     1       5.355   5.690  18.398  0.00  0.00    +0.000 N 
ATOM      3  C   UNL     1       5.923   5.023  19.446  0.00  0.00    +0.000 C 
ATOM      4  O   UNL     1       6.757   5.471  20.211  0.00  0.00    +0.000 OA
ATOM      5  N   UNL     1       5.457   3.754  19.431  0.00  0.00    +0.000 N 
ATOM      6  C   UNL     1       4.752   3.510  18.286  0.00  0.00    +0.000 C 
ATOM      7  O   UNL     1       4.314   2.412  17.976  0.00  0.00    +0.000 OA
ATOM      8  H   UNL     1       5.652   6.620  18.104  0.00  0.00    +0.000 HD
ATOM      9  H   UNL     1       5.719   3.052  20.103  0.00  0.00    +0.000 HD
ENDROOT
BRANCH   1  10
ATOM     10  C   UNL     1       5.538   4.663  16.236  0.00  0.00    +0.000 A 
ATOM     11  C   UNL     1       6.674   5.352  15.839  0.00  0.00    +0.000 A 
ATOM     12  C   UNL     1       6.919   5.002  14.500  0.00  0.00    +0.000 A 
ATOM     13  N   UNL     1       7.861   5.467  13.640  0.00  0.00    +0.000 NA
ATOM     14  C   UNL     1       7.739   4.968  12.385  0.00  0.00    +0.000 A 
ATOM     15  C   UNL     1       6.793   4.035  11.967  0.00  0.00    +0.000 A 
ATOM     16  C   UNL     1       5.854   3.542  12.877  0.00  0.00    +0.000 A 
ATOM     17  C   UNL     1       5.945   4.073  14.157  0.00  0.00    +0.000 A 
ATOM     18  O   UNL     1       5.127   3.830  15.224  0.00  0.00    +0.000 OA
ENDBRANCH   1  10
BRANCH   1  19
ATOM     19  C   UNL     1       3.205   5.213  17.231  0.00  0.00    +0.000 C 
BRANCH  19  28
ATOM     20  C   UNL     1       1.321   9.141  21.431  0.00  0.00    +0.000 A 
ATOM     21  C   UNL     1       1.155  10.014  20.332  0.00  0.00    +0.000 A 
ATOM     22  C   UNL     1       1.440   9.607  19.014  0.00  0.00    +0.000 A 
ATOM     23  C   UNL     1       1.886   8.317  18.816  0.00  0.00    +0.000 A 
ATOM     24  C   UNL     1       2.009   7.474  19.913  0.00  0.00    +0.000 A 
ATOM     25  C   UNL     1       1.754   7.843  21.213  0.00  0.00    +0.000 A 
ATOM     26  C   UNL     1       2.444   6.169  19.462  0.00  0.00    +0.000 C 
ATOM     27  O   UNL     1       2.546   5.219  20.217  0.00  0.00    +0.000 OA
ATOM     28  N   UNL     1       2.658   6.262  18.103  0.00  0.00    +0.000 N 
ATOM     29  C   UNL     1       2.291   7.579  17.581  0.00  0.00    +0.000 C 
BRANCH  20  31
ATOM     30  C   UNL     1      -0.322   9.467  23.102  0.00  0.00    +0.000 C 
ATOM     31  O   UNL     1       1.026   9.655  22.665  0.00  0.00    +0.000 OA
ENDBRANCH  20  31
ENDBRANCH  19  28
ENDBRANCH   1  19
TORSDOF 4
ENDMDL
MODEL 4
REMARK VINA RESULT:      -8.7      2.335      7.555
REMARK  Name = 
REMARK  5 active torsions:
REMARK  status: ('A' for Active; 'I' for Inactive)
REMARK    1  A    between atoms: C_1  and  O_2
REMARK    2  A    between atoms: O_2  and  C_3
REMARK    3  A    between atoms: N_11  and  C_12
REMARK    4  A    between atoms: C_12  and  C_13
REMARK    5  A    between atoms: C_13  and  C_14
REMARK                            x       y       z     vdW  Elec       q    Type
REMARK                         _______ _______ _______ _____ _____    ______ ____
ROOT
ATOM      1  C   UNL     1       4.771   4.915  17.443  0.00  0.00    +0.000 C 
ATOM      2  N   UNL     1       5.512   5.767  18.364  0.00  0.00    +0.000 N 
ATOM      3  C   UNL     1       6.064   5.073  19.404  0.00  0.00    +0.000 C 
ATOM      4  O   UNL     1       6.932   5.480  20.153  0.00  0.00    +0.000 OA
ATOM      5  N   UNL     1       5.536   3.829  19.398  0.00  0.00    +0.000 N 
ATOM      6  C   UNL     1       4.800   3.619  18.265  0.00  0.00    +0.000 C 
ATOM      7  O   UNL     1       4.304   2.544  17.964  0.00  0.00    +0.000 OA
ATOM      8  H   UNL     1       5.848   6.681  18.064  0.00  0.00    +0.000 HD
ATOM      9  H   UNL     1       5.775   3.115  20.067  0.00  0.00    +0.000 HD
ENDROOT
BRANCH   1  10
ATOM     10  C   UNL     1       5.607   4.731  16.201  0.00  0.00    +0.000 A 
ATOM     11  C   UNL     1       6.747   5.390  15.765  0.00  0.00    +0.000 A 
ATOM     12  C   UNL     1       6.957   5.006  14.429  0.00  0.00    +0.000 A 
ATOM     13  N   UNL     1       7.889   5.434  13.539  0.00  0.00    +0.000 NA
ATOM     14  C   UNL     1       7.731   4.910  12.299  0.00  0.00    +0.000 A 
ATOM     15  C   UNL     1       6.760   3.985  11.922  0.00  0.00    +0.000 A 
ATOM     16  C   UNL     1       5.832   3.530  12.862  0.00  0.00    +0.000 A 
ATOM     17  C   UNL     1       5.959   4.088  14.127  0.00  0.00    +0.000 A 
ATOM     18  O   UNL     1       5.160   3.883  15.216  0.00  0.00    +0.000 OA
ENDBRANCH   1  10
BRANCH   1  19
ATOM     19  C   UNL     1       3.321   5.395  17.234  0.00  0.00    +0.000 C 
BRANCH  19  28
ATOM     20  C   UNL     1       0.916   9.822  20.586  0.00  0.00    +0.000 A 
ATOM     21  C   UNL     1       0.858   8.832  21.592  0.00  0.00    +0.000 A 
ATOM     22  C   UNL     1       1.330   7.523  21.371  0.00  0.00    +0.000 A 
ATOM     23  C   UNL     1       1.861   7.227  20.133  0.00  0.00    +0.000 A 
ATOM     24  C   UNL     1       1.932   8.230  19.175  0.00  0.00    +0.000 A 
ATOM     25  C   UNL     1       1.468   9.513  19.353  0.00  0.00    +0.000 A 
ATOM     26  C   UNL     1       2.562   7.705  17.983  0.00  0.00    +0.000 C 
ATOM     27  O   UNL     1       2.824   8.404  17.021  0.00  0.00    +0.000 OA
ATOM     28  N   UNL     1       2.792   6.363  18.205  0.00  0.00    +0.000 N 
ATOM     29  C   UNL     1       2.421   5.963  19.563  0.00  0.00    +0.000 C 
BRANCH  20  31
ATOM     30  C   UNL     1      -0.443  11.080  22.060  0.00  0.00    +0.000 C 
ATOM     31  O   UNL     1       0.414  11.052  20.915  0.00  0.00    +0.000 OA
ENDBRANCH  20  31
ENDBRANCH  19  28
ENDBRANCH   1  19
TORSDOF 4
ENDMDL
MODEL 5
REMARK VINA RESULT:      -8.5      2.601      7.783
REMARK  Name = 
REMARK  5 active torsions:
REMARK  status: ('A' for Active; 'I' for Inactive)
REMARK    1  A    between atoms: C_1  and  O_2
REMARK    2  A    between atoms: O_2  and  C_3
REMARK    3  A    between atoms: N_11  and  C_12
REMARK    4  A    between atoms: C_12  and  C_13
REMARK    5  A    between atoms: C_13  and  C_14
REMARK                            x       y       z     vdW  Elec       q    Type
REMARK                         _______ _______ _______ _____ _____    ______ ____
ROOT
ATOM      1  C   UNL     1       5.964   5.648  17.297  0.00  0.00    +0.000 C 
ATOM      2  N   UNL     1       6.172   7.090  17.359  0.00  0.00    +0.000 N 
ATOM      3  C   UNL     1       7.432   7.428  17.768  0.00  0.00    +0.000 C 
ATOM      4  O   UNL     1       7.948   8.524  17.657  0.00  0.00    +0.000 OA
ATOM      5  N   UNL     1       8.029   6.310  18.239  0.00  0.00    +0.000 N 
ATOM      6  C   UNL     1       7.271   5.205  17.969  0.00  0.00    +0.000 C 
ATOM      7  O   UNL     1       7.632   4.059  18.194  0.00  0.00    +0.000 OA
ATOM      8  H   UNL     1       5.570   7.721  16.834  0.00  0.00    +0.000 HD
ATOM      9  H   UNL     1       8.966   6.287  18.606  0.00  0.00    +0.000 HD
ENDROOT
BRANCH   1  10
ATOM     10  C   UNL     1       5.988   5.235  15.847  0.00  0.00    +0.000 A 
ATOM     11  C   UNL     1       5.257   4.276  15.161  0.00  0.00    +0.000 A 
ATOM     12  C   UNL     1       5.862   4.123  13.901  0.00  0.00    +0.000 A 
ATOM     13  N   UNL     1       5.572   3.253  12.900  0.00  0.00    +0.000 NA
ATOM     14  C   UNL     1       6.434   3.326  11.856  0.00  0.00    +0.000 A 
ATOM     15  C   UNL     1       7.502   4.214  11.740  0.00  0.00    +0.000 A 
ATOM     16  C   UNL     1       7.761   5.125  12.767  0.00  0.00    +0.000 A 
ATOM     17  C   UNL     1       6.908   5.035  13.859  0.00  0.00    +0.000 A 
ATOM     18  O   UNL     1       6.963   5.746  15.025  0.00  0.00    +0.000 OA
ENDBRANCH   1  10
BRANCH   1  19
ATOM     19  C   UNL     1       4.745   5.195  18.124  0.00  0.00    +0.000 C 
BRANCH  19  28
ATOM     20  C   UNL     1       0.697   9.193  20.185  0.00  0.00    +0.000 A 
ATOM     21  C   UNL     1       0.896   9.820  18.935  0.00  0.00    +0.000 A 
ATOM     22  C   UNL     1       1.774   9.288  17.970  0.00  0.00    +0.000 A 
ATOM     23  C   UNL     1       2.442   8.121  18.277  0.00  0.00    +0.000 A 
ATOM     24  C   UNL     1       2.202   7.512  19.503  0.00  0.00    +0.000 A 
ATOM     25  C   UNL     1       1.364   8.012  20.471  0.00  0.00    +0.000 A 
ATOM     26  C   UNL     1       2.971   6.288  19.583  0.00  0.00    +0.000 C 
ATOM     27  O   UNL     1       2.874   5.518  20.521  0.00  0.00    +0.000 OA
ATOM     28  N   UNL     1       3.732   6.213  18.435  0.00  0.00    +0.000 N 
ATOM     29  C   UNL     1       3.440   7.311  17.513  0.00  0.00    +0.000 C 
BRANCH  20  31
ATOM     30  C   UNL     1      -0.324   9.185  22.320  0.00  0.00    +0.000 C 
ATOM     31  O   UNL     1      -0.170   9.812  21.044  0.00  0.00    +0.000 OA
ENDBRANCH  20  31
ENDBRANCH  19  28
ENDBRANCH   1  19
TORSDOF 4
ENDMDL
MODEL 6
REMARK VINA RESULT:      -8.4      2.415      3.405
REMARK  Name = 
REMARK  5 active torsions:
REMARK  status: ('A' for Active; 'I' for Inactive)
REMARK    1  A    between atoms: C_1  and  O_2
REMARK    2  A    between atoms: O_2  and  C_3
REMARK    3  A    between atoms: N_11  and  C_12
REMARK    4  A    between atoms: C_12  and  C_13
REMARK    5  A    between atoms: C_13  and  C_14
REMARK                            x       y       z     vdW  Elec       q    Type
REMARK                         _______ _______ _______ _____ _____    ______ ____
ROOT
ATOM      1  C   UNL     1       3.020   3.917  18.344  0.00  0.00    +0.000 C 
ATOM      2  N   UNL     1       1.807   3.392  17.730  0.00  0.00    +0.000 N 
ATOM      3  C   UNL     1       1.220   2.404  18.469  0.00  0.00    +0.000 C 
ATOM      4  O   UNL     1       0.086   1.987  18.331  0.00  0.00    +0.000 OA
ATOM      5  N   UNL     1       2.093   2.035  19.434  0.00  0.00    +0.000 N 
ATOM      6  C   UNL     1       3.160   2.888  19.475  0.00  0.00    +0.000 C 
ATOM      7  O   UNL     1       4.039   2.839  20.323  0.00  0.00    +0.000 OA
ATOM      8  H   UNL     1       1.303   3.940  17.034  0.00  0.00    +0.000 HD
ATOM      9  H   UNL     1       1.905   1.318  20.115  0.00  0.00    +0.000 HD
ENDROOT
BRANCH   1  10
ATOM     10  C   UNL     1       2.698   5.264  18.940  0.00  0.00    +0.000 A 
ATOM     11  C   UNL     1       2.300   5.623  20.219  0.00  0.00    +0.000 A 
ATOM     12  C   UNL     1       1.882   6.963  20.158  0.00  0.00    +0.000 A 
ATOM     13  N   UNL     1       1.331   7.745  21.121  0.00  0.00    +0.000 NA
ATOM     14  C   UNL     1       0.960   8.970  20.675  0.00  0.00    +0.000 A 
ATOM     15  C   UNL     1       1.140   9.457  19.382  0.00  0.00    +0.000 A 
ATOM     16  C   UNL     1       1.741   8.648  18.414  0.00  0.00    +0.000 A 
ATOM     17  C   UNL     1       2.092   7.376  18.849  0.00  0.00    +0.000 A 
ATOM     18  O   UNL     1       2.630   6.359  18.113  0.00  0.00    +0.000 OA
ENDBRANCH   1  10
BRANCH   1  19
ATOM     19  C   UNL     1       4.234   3.853  17.396  0.00  0.00    +0.000 C 
BRANCH  19  28
ATOM     20  C   UNL     1       8.108   8.478  17.863  0.00  0.00    +0.000 A 
ATOM     21  C   UNL     1       8.668   7.713  18.911  0.00  0.00    +0.000 A 
ATOM     22  C   UNL     1       8.155   6.450  19.264  0.00  0.00    +0.000 A 
ATOM     23  C   UNL     1       7.078   5.967  18.549  0.00  0.00    +0.000 A 
ATOM     24  C   UNL     1       6.569   6.729  17.505  0.00  0.00    +0.000 A 
ATOM     25  C   UNL     1       7.037   7.971  17.145  0.00  0.00    +0.000 A 
ATOM     26  C   UNL     1       5.483   6.007  16.876  0.00  0.00    +0.000 C 
ATOM     27  O   UNL     1       4.920   6.416  15.877  0.00  0.00    +0.000 OA
ATOM     28  N   UNL     1       5.295   4.848  17.601  0.00  0.00    +0.000 N 
ATOM     29  C   UNL     1       6.288   4.703  18.666  0.00  0.00    +0.000 C 
BRANCH  20  31
ATOM     30  C   UNL     1       9.174  10.381  18.780  0.00  0.00    +0.000 C 
ATOM     31  O   UNL     1       8.685   9.696  17.624  0.00  0.00    +0.000 OA
ENDBRANCH  20  31
ENDBRANCH  19  28
ENDBRANCH   1  19
TORSDOF 4
ENDMDL
MODEL 7
REMARK VINA RESULT:      -8.3      0.833      1.230
REMARK  Name = 
REMARK  5 active torsions:
REMARK  status: ('A' for Active; 'I' for Inactive)
REMARK    1  A    between atoms: C_1  and  O_2
REMARK    2  A    between atoms: O_2  and  C_3
REMARK    3  A    between atoms: N_11  and  C_12
REMARK    4  A    between atoms: C_12  and  C_13
REMARK    5  A    between atoms: C_13  and  C_14
REMARK                            x       y       z     vdW  Elec       q    Type
REMARK                         _______ _______ _______ _____ _____    ______ ____
ROOT
ATOM      1  C   UNL     1       2.633   4.269  19.786  0.00  0.00    +0.000 C 
ATOM      2  N   UNL     1       1.986   3.519  18.717  0.00  0.00    +0.000 N 
ATOM      3  C   UNL     1       1.005   2.682  19.172  0.00  0.00    +0.000 C 
ATOM      4  O   UNL     1       0.147   2.152  18.492  0.00  0.00    +0.000 OA
ATOM      5  N   UNL     1       1.107   2.619  20.519  0.00  0.00    +0.000 N 
ATOM      6  C   UNL     1       2.000   3.543  20.982  0.00  0.00    +0.000 C 
ATOM      7  O   UNL     1       2.199   3.764  22.168  0.00  0.00    +0.000 OA
ATOM      8  H   UNL     1       2.034   3.848  17.754  0.00  0.00    +0.000 HD
ATOM      9  H   UNL     1       0.501   2.065  21.101  0.00  0.00    +0.000 HD
ENDROOT
BRANCH   1  10
ATOM     10  C   UNL     1       2.119   5.686  19.740  0.00  0.00    +0.000 A 
ATOM     11  C   UNL     1       2.241   6.668  18.768  0.00  0.00    +0.000 A 
ATOM     12  C   UNL     1       1.807   7.874  19.346  0.00  0.00    +0.000 A 
ATOM     13  N   UNL     1       1.809   9.131  18.834  0.00  0.00    +0.000 NA
ATOM     14  C   UNL     1       1.402  10.074  19.719  0.00  0.00    +0.000 A 
ATOM     15  C   UNL     1       0.969   9.838  21.022  0.00  0.00    +0.000 A 
ATOM     16  C   UNL     1       0.942   8.532  21.518  0.00  0.00    +0.000 A 
ATOM     17  C   UNL     1       1.392   7.560  20.634  0.00  0.00    +0.000 A 
ATOM     18  O   UNL     1       1.538   6.221  20.864  0.00  0.00    +0.000 OA
ENDBRANCH   1  10
BRANCH   1  19
ATOM     19  C   UNL     1       4.163   4.089  19.787  0.00  0.00    +0.000 C 
BRANCH  19  28
ATOM     20  C   UNL     1       6.378   4.161  14.157  0.00  0.00    +0.000 A 
ATOM     21  C   UNL     1       7.105   5.284  14.612  0.00  0.00    +0.000 A 
ATOM     22  C   UNL     1       6.996   5.749  15.937  0.00  0.00    +0.000 A 
ATOM     23  C   UNL     1       6.155   5.070  16.795  0.00  0.00    +0.000 A 
ATOM     24  C   UNL     1       5.478   3.952  16.325  0.00  0.00    +0.000 A 
ATOM     25  C   UNL     1       5.550   3.481  15.035  0.00  0.00    +0.000 A 
ATOM     26  C   UNL     1       4.699   3.382  17.403  0.00  0.00    +0.000 C 
ATOM     27  O   UNL     1       4.079   2.341  17.280  0.00  0.00    +0.000 OA
ATOM     28  N   UNL     1       4.852   4.212  18.494  0.00  0.00    +0.000 N 
ATOM     29  C   UNL     1       5.794   5.298  18.228  0.00  0.00    +0.000 C 
BRANCH  20  31
ATOM     30  C   UNL     1       5.413   3.250  12.198  0.00  0.00    +0.000 C 
ATOM     31  O   UNL     1       6.556   3.814  12.844  0.00  0.00    +0.000 OA
ENDBRANCH  20  31
ENDBRANCH  19  28
ENDBRANCH   1  19
TORSDOF 4
ENDMDL
MODEL 8
REMARK VINA RESULT:      -8.3      2.639      7.789
REMARK  Name = 
REMARK  5 active torsions:
REMARK  status: ('A' for Active; 'I' for Inactive)
REMARK    1  A    between atoms: C_1  and  O_2
REMARK    2  A    between atoms: O_2  and  C_3
REMARK    3  A    between atoms: N_11  and  C_12
REMARK    4  A    between atoms: C_12  and  C_13
REMARK    5  A    between atoms: C_13  and  C_14
REMARK                            x       y       z     vdW  Elec       q    Type
REMARK                         _______ _______ _______ _____ _____    ______ ____
ROOT
ATOM      1  C   UNL     1       6.059   5.612  17.200  0.00  0.00    +0.000 C 
ATOM      2  N   UNL     1       6.115   7.062  17.061  0.00  0.00    +0.000 N 
ATOM      3  C   UNL     1       7.259   7.602  17.577  0.00  0.00    +0.000 C 
ATOM      4  O   UNL     1       7.678   8.725  17.363  0.00  0.00    +0.000 OA
ATOM      5  N   UNL     1       7.884   6.642  18.295  0.00  0.00    +0.000 N 
ATOM      6  C   UNL     1       7.286   5.428  18.104  0.00  0.00    +0.000 C 
ATOM      7  O   UNL     1       7.719   4.377  18.555  0.00  0.00    +0.000 OA
ATOM      8  H   UNL     1       5.541   7.535  16.365  0.00  0.00    +0.000 HD
ATOM      9  H   UNL     1       8.752   6.783  18.784  0.00  0.00    +0.000 HD
ENDROOT
BRANCH   1  10
ATOM     10  C   UNL     1       6.343   5.001  15.851  0.00  0.00    +0.000 A 
ATOM     11  C   UNL     1       7.383   5.210  14.957  0.00  0.00    +0.000 A 
ATOM     12  C   UNL     1       7.018   4.586  13.751  0.00  0.00    +0.000 A 
ATOM     13  N   UNL     1       7.656   4.574  12.553  0.00  0.00    +0.000 NA
ATOM     14  C   UNL     1       6.958   3.945  11.577  0.00  0.00    +0.000 A 
ATOM     15  C   UNL     1       5.727   3.313  11.732  0.00  0.00    +0.000 A 
ATOM     16  C   UNL     1       5.103   3.306  12.982  0.00  0.00    +0.000 A 
ATOM     17  C   UNL     1       5.790   3.980  13.983  0.00  0.00    +0.000 A 
ATOM     18  O   UNL     1       5.394   4.192  15.273  0.00  0.00    +0.000 OA
ENDBRANCH   1  10
BRANCH   1  19
ATOM     19  C   UNL     1       4.779   5.140  17.917  0.00  0.00    +0.000 C 
BRANCH  19  28
ATOM     20  C   UNL     1       0.874   9.178  20.168  0.00  0.00    +0.000 A 
ATOM     21  C   UNL     1       1.042   9.819  18.920  0.00  0.00    +0.000 A 
ATOM     22  C   UNL     1       1.877   9.285  17.919  0.00  0.00    +0.000 A 
ATOM     23  C   UNL     1       2.535   8.102  18.188  0.00  0.00    +0.000 A 
ATOM     24  C   UNL     1       2.325   7.481  19.412  0.00  0.00    +0.000 A 
ATOM     25  C   UNL     1       1.529   7.982  20.415  0.00  0.00    +0.000 A 
ATOM     26  C   UNL     1       3.075   6.243  19.450  0.00  0.00    +0.000 C 
ATOM     27  O   UNL     1       2.997   5.462  20.380  0.00  0.00    +0.000 OA
ATOM     28  N   UNL     1       3.795   6.171  18.276  0.00  0.00    +0.000 N 
ATOM     29  C   UNL     1       3.492   7.287  17.379  0.00  0.00    +0.000 C 
BRANCH  20  31
ATOM     30  C   UNL     1       0.071   9.270  22.392  0.00  0.00    +0.000 C 
ATOM     31  O   UNL     1       0.048   9.800  21.064  0.00  0.00    +0.000 OA
ENDBRANCH  20  31
ENDBRANCH  19  28
ENDBRANCH   1  19
TORSDOF 4
ENDMDL
MODEL 9
REMARK VINA RESULT:      -8.3      1.279      2.025
REMARK  Name = 
REMARK  5 active torsions:
REMARK  status: ('A' for Active; 'I' for Inactive)
REMARK    1  A    between atoms: C_1  and  O_2
REMARK    2  A    between atoms: O_2  and  C_3
REMARK    3  A    between atoms: N_11  and  C_12
REMARK    4  A    between atoms: C_12  and  C_13
REMARK    5  A    between atoms: C_13  and  C_14
REMARK                            x       y       z     vdW  Elec       q    Type
REMARK                         _______ _______ _______ _____ _____    ______ ____
ROOT
ATOM      1  C   UNL     1       2.656   4.232  19.694  0.00  0.00    +0.000 C 
ATOM      2  N   UNL     1       1.954   3.486  18.657  0.00  0.00    +0.000 N 
ATOM      3  C   UNL     1       1.007   2.639  19.160  0.00  0.00    +0.000 C 
ATOM      4  O   UNL     1       0.115   2.108  18.525  0.00  0.00    +0.000 OA
ATOM      5  N   UNL     1       1.185   2.566  20.498  0.00  0.00    +0.000 N 
ATOM      6  C   UNL     1       2.097   3.493  20.918  0.00  0.00    +0.000 C 
ATOM      7  O   UNL     1       2.361   3.707  22.092  0.00  0.00    +0.000 OA
ATOM      8  H   UNL     1       1.946   3.823  17.695  0.00  0.00    +0.000 HD
ATOM      9  H   UNL     1       0.616   2.004  21.109  0.00  0.00    +0.000 HD
ENDROOT
BRANCH   1  10
ATOM     10  C   UNL     1       2.131   5.646  19.688  0.00  0.00    +0.000 A 
ATOM     11  C   UNL     1       2.242   6.655  18.742  0.00  0.00    +0.000 A 
ATOM     12  C   UNL     1       1.801   7.841  19.355  0.00  0.00    +0.000 A 
ATOM     13  N   UNL     1       1.791   9.112  18.877  0.00  0.00    +0.000 NA
ATOM     14  C   UNL     1       1.381  10.027  19.789  0.00  0.00    +0.000 A 
ATOM     15  C   UNL     1       0.955   9.752  21.086  0.00  0.00    +0.000 A 
ATOM     16  C   UNL     1       0.940   8.433  21.547  0.00  0.00    +0.000 A 
ATOM     17  C   UNL     1       1.394   7.489  20.635  0.00  0.00    +0.000 A 
ATOM     18  O   UNL     1       1.551   6.146  20.829  0.00  0.00    +0.000 OA
ENDBRANCH   1  10
BRANCH   1  19
ATOM     19  C   UNL     1       4.185   4.063  19.607  0.00  0.00    +0.000 C 
BRANCH  19  28
ATOM     20  C   UNL     1       7.410   5.172  14.608  0.00  0.00    +0.000 A 
ATOM     21  C   UNL     1       6.477   4.310  13.990  0.00  0.00    +0.000 A 
ATOM     22  C   UNL     1       5.416   3.727  14.710  0.00  0.00    +0.000 A 
ATOM     23  C   UNL     1       5.304   4.026  16.053  0.00  0.00    +0.000 A 
ATOM     24  C   UNL     1       6.219   4.901  16.624  0.00  0.00    +0.000 A 
ATOM     25  C   UNL     1       7.274   5.474  15.953  0.00  0.00    +0.000 A 
ATOM     26  C   UNL     1       5.879   5.099  18.017  0.00  0.00    +0.000 C 
ATOM     27  O   UNL     1       6.473   5.891  18.727  0.00  0.00    +0.000 OA
ATOM     28  N   UNL     1       4.807   4.276  18.293  0.00  0.00    +0.000 N 
ATOM     29  C   UNL     1       4.333   3.577  17.098  0.00  0.00    +0.000 C 
BRANCH  20  31
ATOM     30  C   UNL     1       8.108   5.699  12.409  0.00  0.00    +0.000 C 
ATOM     31  O   UNL     1       8.405   5.664  13.807  0.00  0.00    +0.000 OA
ENDBRANCH  20  31
ENDBRANCH  19  28
ENDBRANCH   1  19
TORSDOF 4
ENDMDL
