MODEL 1
REMARK VINA RESULT:      -9.1      0.000      0.000
REMARK  Name = 
REMARK  10 active torsions:
REMARK  status: ('A' for Active; 'I' for Inactive)
REMARK    1  A    between atoms: C_1  and  C_2
REMARK    2  A    between atoms: N_4  and  C_5
REMARK    3  A    between atoms: C_6  and  C_7
REMARK    4  A    between atoms: C_8  and  N_9
REMARK    5  A    between atoms: N_9  and  C_10
REMARK    6  A    between atoms: N_9  and  S_11
REMARK    7  A    between atoms: S_11  and  C_14
REMARK    8  A    between atoms: C_17  and  C_18
REMARK    9  A    between atoms: C_22  and  C_23
REMARK   10  A    between atoms: C_23  and  C_24
REMARK                            x       y       z     vdW  Elec       q    Type
REMARK                         _______ _______ _______ _____ _____    ______ ____
ROOT
ATOM      1  C   UNL     1       0.592  10.026  20.577  0.00  0.00    +0.000 A 
ATOM      2  C   UNL     1       1.306   9.746  19.403  0.00  0.00    +0.000 A 
ATOM      3  C   UNL     1       1.835   8.459  19.186  0.00  0.00    +0.000 A 
ATOM      4  C   UNL     1       1.689   7.427  20.131  0.00  0.00    +0.000 A 
ATOM      5  C   UNL     1       1.015   7.756  21.320  0.00  0.00    +0.000 A 
ATOM      6  C   UNL     1       0.464   9.027  21.543  0.00  0.00    +0.000 A 
ENDROOT
BRANCH   4   7
ATOM      7  C   UNL     1       2.132   6.031  19.867  0.00  0.00    +0.000 A 
ATOM      8  C   UNL     1       2.026   4.989  20.800  0.00  0.00    +0.000 A 
ATOM      9  C   UNL     1       2.573   3.722  20.538  0.00  0.00    +0.000 A 
ATOM     10  C   UNL     1       3.257   3.473  19.344  0.00  0.00    +0.000 A 
ATOM     11  C   UNL     1       3.360   4.477  18.379  0.00  0.00    +0.000 A 
ATOM     12  C   UNL     1       2.765   5.720  18.647  0.00  0.00    +0.000 A 
BRANCH  11  13
ATOM     13  C   UNL     1       4.133   4.287  17.088  0.00  0.00    +0.000 C 
BRANCH  13  14
ATOM     14  C   UNL     1       5.017   5.500  16.695  0.00  0.00    +0.000 C 
ATOM     15  C   UNL     1       5.512   5.502  15.237  0.00  0.00    +0.000 C 
ATOM     16  C   UNL     1       6.564   4.427  14.977  0.00  0.00    +0.000 C 
ATOM     17  N   UNL     1       7.730   4.577  15.844  0.00  0.00    +0.000 NA
ATOM     18  C   UNL     1       7.374   4.632  17.262  0.00  0.00    +0.000 C 
ATOM     19  C   UNL     1       6.259   5.627  17.599  0.00  0.00    +0.000 C 
ATOM     20  H   UNL     1       8.235   5.424  15.585  0.00  0.00    +0.000 HD
ENDBRANCH  13  14
ENDBRANCH  11  13
ENDBRANCH   4   7
BRANCH   1  21
ATOM     21  S   UNL     1       0.055  11.693  20.974  0.00  0.00    +0.000 S 
ATOM     22  O   UNL     1       1.266  12.467  21.183  0.00  0.00    +0.000 OA
ATOM     23  O   UNL     1      -0.919  11.567  22.040  0.00  0.00    +0.000 OA
BRANCH  21  24
ATOM     24  N   UNL     1      -0.713  12.260  19.570  0.00  0.00    +0.000 N 
ATOM     25  C   UNL     1       0.048  13.191  18.721  0.00  0.00    +0.000 C 
BRANCH  24  33
ATOM     26  C   UNL     1      -1.717  10.150  17.411  0.00  0.00    +0.000 C 
ATOM     27  C   UNL     1      -2.513  11.044  18.285  0.00  0.00    +0.000 A 
ATOM     28  N   UNL     1      -3.845  11.042  18.183  0.00  0.00    +0.000 NA
ATOM     29  N   UNL     1      -4.246  11.943  19.096  0.00  0.00    +0.000 N 
ATOM     30  C   UNL     1      -5.664  12.180  19.250  0.00  0.00    +0.000 C 
ATOM     31  C   UNL     1      -3.209  12.546  19.767  0.00  0.00    +0.000 A 
ATOM     32  C   UNL     1      -3.413  13.599  20.796  0.00  0.00    +0.000 C 
ATOM     33  C   UNL     1      -2.054  11.963  19.268  0.00  0.00    +0.000 A 
ENDBRANCH  24  33
ENDBRANCH  21  24
ENDBRANCH   1  21
TORSDOF 6
ENDMDL
MODEL 2
REMARK VINA RESULT:      -8.8      0.564      1.541
REMARK  Name = 
REMARK  10 active torsions:
REMARK  status: ('A' for Active; 'I' for Inactive)
REMARK    1  A    between atoms: C_1  and  C_2
REMARK    2  A    between atoms: N_4  and  C_5
REMARK    3  A    between atoms: C_6  and  C_7
REMARK    4  A    between atoms: C_8  and  N_9
REMARK    5  A    between atoms: N_9  and  C_10
REMARK    6  A    between atoms: N_9  and  S_11
REMARK    7  A    between atoms: S_11  and  C_14
REMARK    8  A    between atoms: C_17  and  C_18
REMARK    9  A    between atoms: C_22  and  C_23
REMARK   10  A    between atoms: C_23  and  C_24
REMARK                            x       y       z     vdW  Elec       q    Type
REMARK                         _______ _______ _______ _____ _____    ______ ____
ROOT
ATOM      1  C   UNL     1       0.542  10.267  20.679  0.00  0.00    +0.000 A 
ATOM      2  C   UNL     1       1.096   9.990  19.421  0.00  0.00    +0.000 A 
ATOM      3  C   UNL     1       1.634   8.717  19.150  0.00  0.00    +0.000 A 
ATOM      4  C   UNL     1       1.657   7.698  20.120  0.00  0.00    +0.000 A 
ATOM      5  C   UNL     1       1.143   8.027  21.386  0.00  0.00    +0.000 A 
ATOM      6  C   UNL     1       0.584   9.283  21.667  0.00  0.00    +0.000 A 
ENDROOT
BRANCH   4   7
ATOM      7  C   UNL     1       2.107   6.313  19.816  0.00  0.00    +0.000 A 
ATOM      8  C   UNL     1       2.062   5.257  20.739  0.00  0.00    +0.000 A 
ATOM      9  C   UNL     1       2.615   4.003  20.434  0.00  0.00    +0.000 A 
ATOM     10  C   UNL     1       3.244   3.779  19.204  0.00  0.00    +0.000 A 
ATOM     11  C   UNL     1       3.284   4.797  18.249  0.00  0.00    +0.000 A 
ATOM     12  C   UNL     1       2.684   6.027  18.563  0.00  0.00    +0.000 A 
BRANCH  11  13
ATOM     13  C   UNL     1       3.997   4.637  16.919  0.00  0.00    +0.000 C 
BRANCH  13  14
ATOM     14  C   UNL     1       5.136   5.662  16.683  0.00  0.00    +0.000 C 
ATOM     15  C   UNL     1       6.015   5.389  15.449  0.00  0.00    +0.000 C 
ATOM     16  C   UNL     1       6.913   4.168  15.632  0.00  0.00    +0.000 C 
ATOM     17  N   UNL     1       7.797   4.303  16.787  0.00  0.00    +0.000 NA
ATOM     18  C   UNL     1       7.070   4.608  18.019  0.00  0.00    +0.000 C 
ATOM     19  C   UNL     1       6.078   5.770  17.899  0.00  0.00    +0.000 C 
ATOM     20  H   UNL     1       8.482   5.034  16.603  0.00  0.00    +0.000 HD
ENDBRANCH  13  14
ENDBRANCH  11  13
ENDBRANCH   4   7
BRANCH   1  21
ATOM     21  S   UNL     1       0.007  11.922  21.124  0.00  0.00    +0.000 S 
ATOM     22  O   UNL     1       1.219  12.685  21.369  0.00  0.00    +0.000 OA
ATOM     23  O   UNL     1      -0.977  11.767  22.177  0.00  0.00    +0.000 OA
BRANCH  21  24
ATOM     24  N   UNL     1      -0.746  12.537  19.732  0.00  0.00    +0.000 N 
ATOM     25  C   UNL     1       0.062  13.411  18.865  0.00  0.00    +0.000 C 
BRANCH  24  33
ATOM     26  C   UNL     1      -3.174  14.080  21.089  0.00  0.00    +0.000 C 
ATOM     27  C   UNL     1      -3.203  12.997  20.078  0.00  0.00    +0.000 A 
ATOM     28  N   UNL     1      -4.381  12.529  19.654  0.00  0.00    +0.000 NA
ATOM     29  N   UNL     1      -4.055  11.579  18.762  0.00  0.00    +0.000 N 
ATOM     30  C   UNL     1      -5.123  10.866  18.097  0.00  0.00    +0.000 C 
ATOM     31  C   UNL     1      -2.699  11.402  18.616  0.00  0.00    +0.000 A 
ATOM     32  C   UNL     1      -2.108  10.383  17.709  0.00  0.00    +0.000 C 
ATOM     33  C   UNL     1      -2.110  12.334  19.456  0.00  0.00    +0.000 A 
ENDBRANCH  24  33
ENDBRANCH  21  24
ENDBRANCH   1  21
TORSDOF 6
ENDMDL
MODEL 3
REMARK VINA RESULT:      -8.8      0.678      1.825
REMARK  Name = 
REMARK  10 active torsions:
REMARK  status: ('A' for Active; 'I' for Inactive)
REMARK    1  A    between atoms: C_1  and  C_2
REMARK    2  A    between atoms: N_4  and  C_5
REMARK    3  A    between atoms: C_6  and  C_7
REMARK    4  A    between atoms: C_8  and  N_9
REMARK    5  A    between atoms: N_9  and  C_10
REMARK    6  A    between atoms: N_9  and  S_11
REMARK    7  A    between atoms: S_11  and  C_14
REMARK    8  A    between atoms: C_17  and  C_18
REMARK    9  A    between atoms: C_22  and  C_23
REMARK   10  A    between atoms: C_23  and  C_24
REMARK                            x       y       z     vdW  Elec       q    Type
REMARK                         _______ _______ _______ _____ _____    ______ ____
ROOT
ATOM      1  C   UNL     1       0.630  10.214  20.665  0.00  0.00    +0.000 A 
ATOM      2  C   UNL     1       1.239   9.969  19.426  0.00  0.00    +0.000 A 
ATOM      3  C   UNL     1       1.768   8.697  19.135  0.00  0.00    +0.000 A 
ATOM      4  C   UNL     1       1.729   7.646  20.069  0.00  0.00    +0.000 A 
ATOM      5  C   UNL     1       1.161   7.940  21.322  0.00  0.00    +0.000 A 
ATOM      6  C   UNL     1       0.610   9.196  21.619  0.00  0.00    +0.000 A 
ENDROOT
BRANCH   4   7
ATOM      7  C   UNL     1       2.170   6.264  19.739  0.00  0.00    +0.000 A 
ATOM      8  C   UNL     1       2.130   5.193  20.644  0.00  0.00    +0.000 A 
ATOM      9  C   UNL     1       2.675   3.942  20.314  0.00  0.00    +0.000 A 
ATOM     10  C   UNL     1       3.292   3.736  19.076  0.00  0.00    +0.000 A 
ATOM     11  C   UNL     1       3.328   4.770  18.137  0.00  0.00    +0.000 A 
ATOM     12  C   UNL     1       2.736   5.997  18.476  0.00  0.00    +0.000 A 
BRANCH  11  13
ATOM     13  C   UNL     1       4.029   4.628  16.799  0.00  0.00    +0.000 C 
BRANCH  13  14
ATOM     14  C   UNL     1       5.419   3.946  16.881  0.00  0.00    +0.000 C 
ATOM     15  C   UNL     1       6.468   4.701  17.718  0.00  0.00    +0.000 C 
ATOM     16  C   UNL     1       6.942   5.984  17.040  0.00  0.00    +0.000 C 
ATOM     17  N   UNL     1       7.522   5.729  15.724  0.00  0.00    +0.000 NA
ATOM     18  C   UNL     1       6.624   4.974  14.849  0.00  0.00    +0.000 C 
ATOM     19  C   UNL     1       6.031   3.712  15.485  0.00  0.00    +0.000 C 
ATOM     20  H   UNL     1       8.399   5.221  15.835  0.00  0.00    +0.000 HD
ENDBRANCH  13  14
ENDBRANCH  11  13
ENDBRANCH   4   7
BRANCH   1  21
ATOM     21  S   UNL     1       0.102  11.862  21.142  0.00  0.00    +0.000 S 
ATOM     22  O   UNL     1       1.316  12.611  21.416  0.00  0.00    +0.000 OA
ATOM     23  O   UNL     1      -0.894  11.689  22.182  0.00  0.00    +0.000 OA
BRANCH  21  24
ATOM     24  N   UNL     1      -0.634  12.513  19.757  0.00  0.00    +0.000 N 
ATOM     25  C   UNL     1       0.168  13.445  18.950  0.00  0.00    +0.000 C 
BRANCH  24  33
ATOM     26  C   UNL     1      -3.140  13.969  21.069  0.00  0.00    +0.000 C 
ATOM     27  C   UNL     1      -3.111  12.905  20.038  0.00  0.00    +0.000 A 
ATOM     28  N   UNL     1      -4.264  12.416  19.570  0.00  0.00    +0.000 NA
ATOM     29  N   UNL     1      -3.888  11.491  18.671  0.00  0.00    +0.000 N 
ATOM     30  C   UNL     1      -4.917  10.765  17.962  0.00  0.00    +0.000 C 
ATOM     31  C   UNL     1      -2.524  11.351  18.562  0.00  0.00    +0.000 A 
ATOM     32  C   UNL     1      -1.881  10.365  17.656  0.00  0.00    +0.000 C 
ATOM     33  C   UNL     1      -1.984  12.281  19.437  0.00  0.00    +0.000 A 
ENDBRANCH  24  33
ENDBRANCH  21  24
ENDBRANCH   1  21
TORSDOF 6
ENDMDL
MODEL 4
REMARK VINA RESULT:      -8.7      0.575      1.084
REMARK  Name = 
REMARK  10 active torsions:
REMARK  status: ('A' for Active; 'I' for Inactive)
REMARK    1  A    between atoms: C_1  and  C_2
REMARK    2  A    between atoms: N_4  and  C_5
REMARK    3  A    between atoms: C_6  and  C_7
REMARK    4  A    between atoms: C_8  and  N_9
REMARK    5  A    between atoms: N_9  and  C_10
REMARK    6  A    between atoms: N_9  and  S_11
REMARK    7  A    between atoms: S_11  and  C_14
REMARK    8  A    between atoms: C_17  and  C_18
REMARK    9  A    between atoms: C_22  and  C_23
REMARK   10  A    between atoms: C_23  and  C_24
REMARK                            x       y       z     vdW  Elec       q    Type
REMARK                         _______ _______ _______ _____ _____    ______ ____
ROOT
ATOM      1  C   UNL     1       0.694  10.036  20.638  0.00  0.00    +0.000 A 
ATOM      2  C   UNL     1       1.358   9.718  19.444  0.00  0.00    +0.000 A 
ATOM      3  C   UNL     1       1.832   8.410  19.225  0.00  0.00    +0.000 A 
ATOM      4  C   UNL     1       1.683   7.395  20.188  0.00  0.00    +0.000 A 
ATOM      5  C   UNL     1       1.062   7.762  21.395  0.00  0.00    +0.000 A 
ATOM      6  C   UNL     1       0.564   9.054  21.620  0.00  0.00    +0.000 A 
ENDROOT
BRANCH   4   7
ATOM      7  C   UNL     1       2.066   5.981  19.928  0.00  0.00    +0.000 A 
ATOM      8  C   UNL     1       2.027   4.969  20.899  0.00  0.00    +0.000 A 
ATOM      9  C   UNL     1       2.518   3.682  20.626  0.00  0.00    +0.000 A 
ATOM     10  C   UNL     1       3.077   3.380  19.380  0.00  0.00    +0.000 A 
ATOM     11  C   UNL     1       3.109   4.353  18.378  0.00  0.00    +0.000 A 
ATOM     12  C   UNL     1       2.571   5.618  18.663  0.00  0.00    +0.000 A 
BRANCH  11  13
ATOM     13  C   UNL     1       3.749   4.106  17.025  0.00  0.00    +0.000 C 
BRANCH  13  14
ATOM     14  C   UNL     1       5.282   3.877  17.083  0.00  0.00    +0.000 C 
ATOM     15  C   UNL     1       6.072   4.940  17.866  0.00  0.00    +0.000 C 
ATOM     16  C   UNL     1       6.122   6.282  17.140  0.00  0.00    +0.000 C 
ATOM     17  N   UNL     1       6.724   6.168  15.815  0.00  0.00    +0.000 NA
ATOM     18  C   UNL     1       6.077   5.148  14.988  0.00  0.00    +0.000 C 
ATOM     19  C   UNL     1       5.907   3.789  15.676  0.00  0.00    +0.000 C 
ATOM     20  H   UNL     1       7.715   5.952  15.912  0.00  0.00    +0.000 HD
ENDBRANCH  13  14
ENDBRANCH  11  13
ENDBRANCH   4   7
BRANCH   1  21
ATOM     21  S   UNL     1       0.231  11.726  21.031  0.00  0.00    +0.000 S 
ATOM     22  O   UNL     1       1.475  12.455  21.203  0.00  0.00    +0.000 OA
ATOM     23  O   UNL     1      -0.721  11.647  22.122  0.00  0.00    +0.000 OA
BRANCH  21  24
ATOM     24  N   UNL     1      -0.550  12.309  19.641  0.00  0.00    +0.000 N 
ATOM     25  C   UNL     1       0.212  13.230  18.782  0.00  0.00    +0.000 C 
BRANCH  24  33
ATOM     26  C   UNL     1      -1.624  10.172  17.544  0.00  0.00    +0.000 C 
ATOM     27  C   UNL     1      -2.390  11.103  18.404  0.00  0.00    +0.000 A 
ATOM     28  N   UNL     1      -3.723  11.128  18.316  0.00  0.00    +0.000 NA
ATOM     29  N   UNL     1      -4.095  12.059  19.211  0.00  0.00    +0.000 N 
ATOM     30  C   UNL     1      -5.505  12.331  19.374  0.00  0.00    +0.000 C 
ATOM     31  C   UNL     1      -3.037  12.655  19.856  0.00  0.00    +0.000 A 
ATOM     32  C   UNL     1      -3.207  13.736  20.862  0.00  0.00    +0.000 C 
ATOM     33  C   UNL     1      -1.901  12.035  19.360  0.00  0.00    +0.000 A 
ENDBRANCH  24  33
ENDBRANCH  21  24
ENDBRANCH   1  21
TORSDOF 6
ENDMDL
MODEL 5
REMARK VINA RESULT:      -8.5      0.583      1.029
REMARK  Name = 
REMARK  10 active torsions:
REMARK  status: ('A' for Active; 'I' for Inactive)
REMARK    1  A    between atoms: C_1  and  C_2
REMARK    2  A    between atoms: N_4  and  C_5
REMARK    3  A    between atoms: C_6  and  C_7
REMARK    4  A    between atoms: C_8  and  N_9
REMARK    5  A    between atoms: N_9  and  C_10
REMARK    6  A    between atoms: N_9  and  S_11
REMARK    7  A    between atoms: S_11  and  C_14
REMARK    8  A    between atoms: C_17  and  C_18
REMARK    9  A    between atoms: C_22  and  C_23
REMARK   10  A    between atoms: C_23  and  C_24
REMARK                            x       y       z     vdW  Elec       q    Type
REMARK                         _______ _______ _______ _____ _____    ______ ____
ROOT
ATOM      1  C   UNL     1       0.911   9.901  20.784  0.00  0.00    +0.000 A 
ATOM      2  C   UNL     1       0.614   8.888  21.706  0.00  0.00    +0.000 A 
ATOM      3  C   UNL     1       0.958   7.552  21.425  0.00  0.00    +0.000 A 
ATOM      4  C   UNL     1       1.581   7.183  20.219  0.00  0.00    +0.000 A 
ATOM      5  C   UNL     1       1.816   8.216  19.293  0.00  0.00    +0.000 A 
ATOM      6  C   UNL     1       1.499   9.555  19.568  0.00  0.00    +0.000 A 
ENDROOT
BRANCH   4   7
ATOM      7  C   UNL     1       2.063   5.801  19.955  0.00  0.00    +0.000 A 
ATOM      8  C   UNL     1       1.675   4.681  20.706  0.00  0.00    +0.000 A 
ATOM      9  C   UNL     1       2.258   3.423  20.487  0.00  0.00    +0.000 A 
ATOM     10  C   UNL     1       3.258   3.256  19.523  0.00  0.00    +0.000 A 
ATOM     11  C   UNL     1       3.651   4.341  18.736  0.00  0.00    +0.000 A 
ATOM     12  C   UNL     1       3.020   5.578  18.945  0.00  0.00    +0.000 A 
BRANCH  11  13
ATOM     13  C   UNL     1       4.766   4.240  17.712  0.00  0.00    +0.000 C 
BRANCH  13  14
ATOM     14  C   UNL     1       4.799   5.409  16.694  0.00  0.00    +0.000 C 
ATOM     15  C   UNL     1       5.296   5.035  15.286  0.00  0.00    +0.000 C 
ATOM     16  C   UNL     1       6.792   4.735  15.256  0.00  0.00    +0.000 C 
ATOM     17  N   UNL     1       7.589   5.865  15.724  0.00  0.00    +0.000 NA
ATOM     18  C   UNL     1       7.175   6.338  17.045  0.00  0.00    +0.000 C 
ATOM     19  C   UNL     1       5.669   6.582  17.188  0.00  0.00    +0.000 C 
ATOM     20  H   UNL     1       7.521   6.627  15.051  0.00  0.00    +0.000 HD
ENDBRANCH  13  14
ENDBRANCH  11  13
ENDBRANCH   4   7
BRANCH   1  21
ATOM     21  S   UNL     1       0.336  11.585  21.024  0.00  0.00    +0.000 S 
ATOM     22  O   UNL     1       1.525  12.390  21.244  0.00  0.00    +0.000 OA
ATOM     23  O   UNL     1      -0.698  11.526  22.038  0.00  0.00    +0.000 OA
BRANCH  21  24
ATOM     24  N   UNL     1      -0.354  12.036  19.539  0.00  0.00    +0.000 N 
ATOM     25  C   UNL     1       0.497  12.796  18.609  0.00  0.00    +0.000 C 
BRANCH  24  33
ATOM     26  C   UNL     1      -1.466   9.889  17.472  0.00  0.00    +0.000 C 
ATOM     27  C   UNL     1      -2.213  10.873  18.290  0.00  0.00    +0.000 A 
ATOM     28  N   UNL     1      -3.542  10.949  18.170  0.00  0.00    +0.000 NA
ATOM     29  N   UNL     1      -3.895  11.917  19.032  0.00  0.00    +0.000 N 
ATOM     30  C   UNL     1      -5.297  12.250  19.154  0.00  0.00    +0.000 C 
ATOM     31  C   UNL     1      -2.829  12.487  19.687  0.00  0.00    +0.000 A 
ATOM     32  C   UNL     1      -2.977  13.600  20.661  0.00  0.00    +0.000 C 
ATOM     33  C   UNL     1      -1.708  11.809  19.233  0.00  0.00    +0.000 A 
ENDBRANCH  24  33
ENDBRANCH  21  24
ENDBRANCH   1  21
TORSDOF 6
ENDMDL
MODEL 6
REMARK VINA RESULT:      -8.5      1.797      2.639
REMARK  Name = 
REMARK  10 active torsions:
REMARK  status: ('A' for Active; 'I' for Inactive)
REMARK    1  A    between atoms: C_1  and  C_2
REMARK    2  A    between atoms: N_4  and  C_5
REMARK    3  A    between atoms: C_6  and  C_7
REMARK    4  A    between atoms: C_8  and  N_9
REMARK    5  A    between atoms: N_9  and  C_10
REMARK    6  A    between atoms: N_9  and  S_11
REMARK    7  A    between atoms: S_11  and  C_14
REMARK    8  A    between atoms: C_17  and  C_18
REMARK    9  A    between atoms: C_22  and  C_23
REMARK   10  A    between atoms: C_23  and  C_24
REMARK                            x       y       z     vdW  Elec       q    Type
REMARK                         _______ _______ _______ _____ _____    ______ ____
ROOT
ATOM      1  C   UNL     1       0.903  10.713  19.901  0.00  0.00    +0.000 A 
ATOM      2  C   UNL     1       1.386  10.207  18.686  0.00  0.00    +0.000 A 
ATOM      3  C   UNL     1       1.786   8.860  18.589  0.00  0.00    +0.000 A 
ATOM      4  C   UNL     1       1.739   7.990  19.693  0.00  0.00    +0.000 A 
ATOM      5  C   UNL     1       1.302   8.543  20.909  0.00  0.00    +0.000 A 
ATOM      6  C   UNL     1       0.880   9.877  21.018  0.00  0.00    +0.000 A 
ENDROOT
BRANCH   4   7
ATOM      7  C   UNL     1       2.039   6.537  19.582  0.00  0.00    +0.000 A 
ATOM      8  C   UNL     1       1.715   5.594  20.569  0.00  0.00    +0.000 A 
ATOM      9  C   UNL     1       2.134   4.258  20.461  0.00  0.00    +0.000 A 
ATOM     10  C   UNL     1       2.904   3.836  19.373  0.00  0.00    +0.000 A 
ATOM     11  C   UNL     1       3.224   4.739  18.356  0.00  0.00    +0.000 A 
ATOM     12  C   UNL     1       2.755   6.058  18.466  0.00  0.00    +0.000 A 
BRANCH  11  13
ATOM     13  C   UNL     1       4.100   4.359  17.177  0.00  0.00    +0.000 C 
BRANCH  13  14
ATOM     14  C   UNL     1       4.981   5.518  16.642  0.00  0.00    +0.000 C 
ATOM     15  C   UNL     1       5.561   5.300  15.234  0.00  0.00    +0.000 C 
ATOM     16  C   UNL     1       6.649   4.229  15.210  0.00  0.00    +0.000 C 
ATOM     17  N   UNL     1       7.757   4.551  16.104  0.00  0.00    +0.000 NA
ATOM     18  C   UNL     1       7.317   4.822  17.473  0.00  0.00    +0.000 C 
ATOM     19  C   UNL     1       6.164   5.825  17.581  0.00  0.00    +0.000 C 
ATOM     20  H   UNL     1       8.260   5.359  15.739  0.00  0.00    +0.000 HD
ENDBRANCH  13  14
ENDBRANCH  11  13
ENDBRANCH   4   7
BRANCH   1  21
ATOM     21  S   UNL     1       0.550  12.460  20.116  0.00  0.00    +0.000 S 
ATOM     22  O   UNL     1       0.845  13.090  18.842  0.00  0.00    +0.000 OA
ATOM     23  O   UNL     1       1.256  12.878  21.312  0.00  0.00    +0.000 OA
BRANCH  21  24
ATOM     24  N   UNL     1      -1.124  12.547  20.388  0.00  0.00    +0.000 N 
ATOM     25  C   UNL     1      -1.992  11.819  19.449  0.00  0.00    +0.000 C 
BRANCH  24  33
ATOM     26  C   UNL     1      -1.435  15.709  20.256  0.00  0.00    +0.000 C 
ATOM     27  C   UNL     1      -1.805  14.779  21.348  0.00  0.00    +0.000 A 
ATOM     28  N   UNL     1      -2.316  15.270  22.481  0.00  0.00    +0.000 NA
ATOM     29  N   UNL     1      -2.536  14.183  23.241  0.00  0.00    +0.000 N 
ATOM     30  C   UNL     1      -3.105  14.370  24.557  0.00  0.00    +0.000 C 
ATOM     31  C   UNL     1      -2.157  13.006  22.640  0.00  0.00    +0.000 A 
ATOM     32  C   UNL     1      -2.275  11.682  23.306  0.00  0.00    +0.000 C 
ATOM     33  C   UNL     1      -1.688  13.362  21.385  0.00  0.00    +0.000 A 
ENDBRANCH  24  33
ENDBRANCH  21  24
ENDBRANCH   1  21
TORSDOF 6
ENDMDL
MODEL 7
REMARK VINA RESULT:      -8.5      1.832      2.639
REMARK  Name = 
REMARK  10 active torsions:
REMARK  status: ('A' for Active; 'I' for Inactive)
REMARK    1  A    between atoms: C_1  and  C_2
REMARK    2  A    between atoms: N_4  and  C_5
REMARK    3  A    between atoms: C_6  and  C_7
REMARK    4  A    between atoms: C_8  and  N_9
REMARK    5  A    between atoms: N_9  and  C_10
REMARK    6  A    between atoms: N_9  and  S_11
REMARK    7  A    between atoms: S_11  and  C_14
REMARK    8  A    between atoms: C_17  and  C_18
REMARK    9  A    between atoms: C_22  and  C_23
REMARK   10  A    between atoms: C_23  and  C_24
REMARK                            x       y       z     vdW  Elec       q    Type
REMARK                         _______ _______ _______ _____ _____    ______ ____
ROOT
ATOM      1  C   UNL     1       0.873  10.817  19.673  0.00  0.00    +0.000 A 
ATOM      2  C   UNL     1       1.396  10.276  18.490  0.00  0.00    +0.000 A 
ATOM      3  C   UNL     1       1.817   8.933  18.451  0.00  0.00    +0.000 A 
ATOM      4  C   UNL     1       1.752   8.101  19.584  0.00  0.00    +0.000 A 
ATOM      5  C   UNL     1       1.273   8.690  20.767  0.00  0.00    +0.000 A 
ATOM      6  C   UNL     1       0.829  10.020  20.817  0.00  0.00    +0.000 A 
ENDROOT
BRANCH   4   7
ATOM      7  C   UNL     1       2.075   6.650  19.532  0.00  0.00    +0.000 A 
ATOM      8  C   UNL     1       1.786   5.747  20.566  0.00  0.00    +0.000 A 
ATOM      9  C   UNL     1       2.227   4.415  20.511  0.00  0.00    +0.000 A 
ATOM     10  C   UNL     1       2.984   3.957  19.428  0.00  0.00    +0.000 A 
ATOM     11  C   UNL     1       3.268   4.818  18.365  0.00  0.00    +0.000 A 
ATOM     12  C   UNL     1       2.778   6.132  18.425  0.00  0.00    +0.000 A 
BRANCH  11  13
ATOM     13  C   UNL     1       4.128   4.399  17.188  0.00  0.00    +0.000 C 
BRANCH  13  14
ATOM     14  C   UNL     1       5.012   5.537  16.613  0.00  0.00    +0.000 C 
ATOM     15  C   UNL     1       5.557   5.287  15.195  0.00  0.00    +0.000 C 
ATOM     16  C   UNL     1       6.628   4.200  15.165  0.00  0.00    +0.000 C 
ATOM     17  N   UNL     1       7.762   4.521  16.027  0.00  0.00    +0.000 NA
ATOM     18  C   UNL     1       7.358   4.821  17.401  0.00  0.00    +0.000 C 
ATOM     19  C   UNL     1       6.221   5.843  17.519  0.00  0.00    +0.000 C 
ATOM     20  H   UNL     1       8.267   5.316  15.637  0.00  0.00    +0.000 HD
ENDBRANCH  13  14
ENDBRANCH  11  13
ENDBRANCH   4   7
BRANCH   1  21
ATOM     21  S   UNL     1       0.489  12.565  19.816  0.00  0.00    +0.000 S 
ATOM     22  O   UNL     1       0.595  13.112  18.475  0.00  0.00    +0.000 OA
ATOM     23  O   UNL     1       1.328  13.083  20.879  0.00  0.00    +0.000 OA
BRANCH  21  24
ATOM     24  N   UNL     1      -1.138  12.627  20.298  0.00  0.00    +0.000 N 
ATOM     25  C   UNL     1      -2.130  12.044  19.380  0.00  0.00    +0.000 C 
BRANCH  24  33
ATOM     26  C   UNL     1      -1.556  11.318  23.167  0.00  0.00    +0.000 C 
ATOM     27  C   UNL     1      -1.777  12.719  22.738  0.00  0.00    +0.000 A 
ATOM     28  N   UNL     1      -2.249  13.606  23.618  0.00  0.00    +0.000 NA
ATOM     29  N   UNL     1      -2.328  14.752  22.921  0.00  0.00    +0.000 N 
ATOM     30  C   UNL     1      -2.805  15.937  23.598  0.00  0.00    +0.000 C 
ATOM     31  C   UNL     1      -1.944  14.624  21.607  0.00  0.00    +0.000 A 
ATOM     32  C   UNL     1      -1.982  15.750  20.638  0.00  0.00    +0.000 C 
ATOM     33  C   UNL     1      -1.559  13.300  21.459  0.00  0.00    +0.000 A 
ENDBRANCH  24  33
ENDBRANCH  21  24
ENDBRANCH   1  21
TORSDOF 6
ENDMDL
MODEL 8
REMARK VINA RESULT:      -8.4      1.793      2.716
REMARK  Name = 
REMARK  10 active torsions:
REMARK  status: ('A' for Active; 'I' for Inactive)
REMARK    1  A    between atoms: C_1  and  C_2
REMARK    2  A    between atoms: N_4  and  C_5
REMARK    3  A    between atoms: C_6  and  C_7
REMARK    4  A    between atoms: C_8  and  N_9
REMARK    5  A    between atoms: N_9  and  C_10
REMARK    6  A    between atoms: N_9  and  S_11
REMARK    7  A    between atoms: S_11  and  C_14
REMARK    8  A    between atoms: C_17  and  C_18
REMARK    9  A    between atoms: C_22  and  C_23
REMARK   10  A    between atoms: C_23  and  C_24
REMARK                            x       y       z     vdW  Elec       q    Type
REMARK                         _______ _______ _______ _____ _____    ______ ____
ROOT
ATOM      1  C   UNL     1       1.022  10.541  19.690  0.00  0.00    +0.000 A 
ATOM      2  C   UNL     1       1.525  10.077  18.467  0.00  0.00    +0.000 A 
ATOM      3  C   UNL     1       1.951   8.741  18.338  0.00  0.00    +0.000 A 
ATOM      4  C   UNL     1       1.912   7.841  19.419  0.00  0.00    +0.000 A 
ATOM      5  C   UNL     1       1.454   8.354  20.645  0.00  0.00    +0.000 A 
ATOM      6  C   UNL     1       1.005   9.676  20.785  0.00  0.00    +0.000 A 
ENDROOT
BRANCH   4   7
ATOM      7  C   UNL     1       2.241   6.398  19.273  0.00  0.00    +0.000 A 
ATOM      8  C   UNL     1       2.084   5.453  20.298  0.00  0.00    +0.000 A 
ATOM      9  C   UNL     1       2.528   4.130  20.139  0.00  0.00    +0.000 A 
ATOM     10  C   UNL     1       3.157   3.724  18.957  0.00  0.00    +0.000 A 
ATOM     11  C   UNL     1       3.306   4.629  17.904  0.00  0.00    +0.000 A 
ATOM     12  C   UNL     1       2.814   5.933  18.072  0.00  0.00    +0.000 A 
BRANCH  11  13
ATOM     13  C   UNL     1       4.026   4.267  16.618  0.00  0.00    +0.000 C 
BRANCH  13  14
ATOM     14  C   UNL     1       5.507   3.850  16.817  0.00  0.00    +0.000 C 
ATOM     15  C   UNL     1       6.350   4.821  17.663  0.00  0.00    +0.000 C 
ATOM     16  C   UNL     1       6.634   6.133  16.936  0.00  0.00    +0.000 C 
ATOM     17  N   UNL     1       7.333   5.920  15.671  0.00  0.00    +0.000 NA
ATOM     18  C   UNL     1       6.640   4.975  14.796  0.00  0.00    +0.000 C 
ATOM     19  C   UNL     1       6.240   3.660  15.474  0.00  0.00    +0.000 C 
ATOM     20  H   UNL     1       8.277   5.585  15.860  0.00  0.00    +0.000 HD
ENDBRANCH  13  14
ENDBRANCH  11  13
ENDBRANCH   4   7
BRANCH   1  21
ATOM     21  S   UNL     1       0.633  12.275  19.947  0.00  0.00    +0.000 S 
ATOM     22  O   UNL     1       0.835  12.927  18.665  0.00  0.00    +0.000 OA
ATOM     23  O   UNL     1       1.396  12.700  21.105  0.00  0.00    +0.000 OA
BRANCH  21  24
ATOM     24  N   UNL     1      -1.023  12.311  20.318  0.00  0.00    +0.000 N 
ATOM     25  C   UNL     1      -1.946  11.765  19.309  0.00  0.00    +0.000 C 
BRANCH  24  33
ATOM     26  C   UNL     1      -1.421  10.932  23.156  0.00  0.00    +0.000 C 
ATOM     27  C   UNL     1      -1.736  12.317  22.738  0.00  0.00    +0.000 A 
ATOM     28  N   UNL     1      -2.300  13.153  23.616  0.00  0.00    +0.000 NA
ATOM     29  N   UNL     1      -2.447  14.300  22.931  0.00  0.00    +0.000 N 
ATOM     30  C   UNL     1      -3.033  15.434  23.609  0.00  0.00    +0.000 C 
ATOM     31  C   UNL     1      -2.017  14.221  21.627  0.00  0.00    +0.000 A 
ATOM     32  C   UNL     1      -2.114  15.356  20.672  0.00  0.00    +0.000 C 
ATOM     33  C   UNL     1      -1.527  12.933  21.474  0.00  0.00    +0.000 A 
ENDBRANCH  24  33
ENDBRANCH  21  24
ENDBRANCH   1  21
TORSDOF 6
ENDMDL
MODEL 9
REMARK VINA RESULT:      -8.4      1.794      3.570
REMARK  Name = 
REMARK  10 active torsions:
REMARK  status: ('A' for Active; 'I' for Inactive)
REMARK    1  A    between atoms: C_1  and  C_2
REMARK    2  A    between atoms: N_4  and  C_5
REMARK    3  A    between atoms: C_6  and  C_7
REMARK    4  A    between atoms: C_8  and  N_9
REMARK    5  A    between atoms: N_9  and  C_10
REMARK    6  A    between atoms: N_9  and  S_11
REMARK    7  A    between atoms: S_11  and  C_14
REMARK    8  A    between atoms: C_17  and  C_18
REMARK    9  A    between atoms: C_22  and  C_23
REMARK   10  A    between atoms: C_23  and  C_24
REMARK                            x       y       z     vdW  Elec       q    Type
REMARK                         _______ _______ _______ _____ _____    ______ ____
ROOT
ATOM      1  C   UNL     1       0.522  10.452  20.435  0.00  0.00    +0.000 A 
ATOM      2  C   UNL     1       1.086  10.149  19.188  0.00  0.00    +0.000 A 
ATOM      3  C   UNL     1       1.644   8.878  18.954  0.00  0.00    +0.000 A 
ATOM      4  C   UNL     1       1.679   7.886  19.952  0.00  0.00    +0.000 A 
ATOM      5  C   UNL     1       1.154   8.242  21.207  0.00  0.00    +0.000 A 
ATOM      6  C   UNL     1       0.575   9.497  21.450  0.00  0.00    +0.000 A 
ENDROOT
BRANCH   4   7
ATOM      7  C   UNL     1       2.151   6.500  19.689  0.00  0.00    +0.000 A 
ATOM      8  C   UNL     1       2.114   5.468  20.638  0.00  0.00    +0.000 A 
ATOM      9  C   UNL     1       2.688   4.215  20.371  0.00  0.00    +0.000 A 
ATOM     10  C   UNL     1       3.330   3.968  19.153  0.00  0.00    +0.000 A 
ATOM     11  C   UNL     1       3.364   4.962  18.172  0.00  0.00    +0.000 A 
ATOM     12  C   UNL     1       2.744   6.191  18.448  0.00  0.00    +0.000 A 
BRANCH  11  13
ATOM     13  C   UNL     1       4.090   4.777  16.853  0.00  0.00    +0.000 C 
BRANCH  13  14
ATOM     14  C   UNL     1       5.481   4.102  16.985  0.00  0.00    +0.000 C 
ATOM     15  C   UNL     1       6.544   4.937  17.720  0.00  0.00    +0.000 C 
ATOM     16  C   UNL     1       7.010   6.139  16.903  0.00  0.00    +0.000 C 
ATOM     17  N   UNL     1       7.568   5.744  15.612  0.00  0.00    +0.000 NA
ATOM     18  C   UNL     1       6.654   4.904  14.837  0.00  0.00    +0.000 C 
ATOM     19  C   UNL     1       6.070   3.719  15.612  0.00  0.00    +0.000 C 
ATOM     20  H   UNL     1       8.445   5.248  15.762  0.00  0.00    +0.000 HD
ENDBRANCH  13  14
ENDBRANCH  11  13
ENDBRANCH   4   7
BRANCH   1  21
ATOM     21  S   UNL     1      -0.040  12.111  20.832  0.00  0.00    +0.000 S 
ATOM     22  O   UNL     1       1.020  12.718  21.619  0.00  0.00    +0.000 OA
ATOM     23  O   UNL     1      -1.370  11.971  21.393  0.00  0.00    +0.000 OA
BRANCH  21  24
ATOM     24  N   UNL     1      -0.137  12.918  19.342  0.00  0.00    +0.000 N 
ATOM     25  C   UNL     1      -1.097  12.392  18.358  0.00  0.00    +0.000 C 
BRANCH  24  33
ATOM     26  C   UNL     1      -0.776  16.024  19.588  0.00  0.00    +0.000 C 
ATOM     27  C   UNL     1       0.442  15.359  19.071  0.00  0.00    +0.000 A 
ATOM     28  N   UNL     1       1.443  16.106  18.593  0.00  0.00    +0.000 NA
ATOM     29  N   UNL     1       2.371  15.210  18.216  0.00  0.00    +0.000 N 
ATOM     30  C   UNL     1       3.608  15.701  17.652  0.00  0.00    +0.000 C 
ATOM     31  C   UNL     1       1.988  13.905  18.414  0.00  0.00    +0.000 A 
ATOM     32  C   UNL     1       2.840  12.745  18.040  0.00  0.00    +0.000 C 
ATOM     33  C   UNL     1       0.730  13.969  18.992  0.00  0.00    +0.000 A 
ENDBRANCH  24  33
ENDBRANCH  21  24
ENDBRANCH   1  21
TORSDOF 6
ENDMDL
