MODEL 1
REMARK VINA RESULT:      -7.1      0.000      0.000
REMARK  Name = 
REMARK  15 active torsions:
REMARK  status: ('A' for Active; 'I' for Inactive)
REMARK    1  A    between atoms: C_1  and  C_2
REMARK    2  A    between atoms: C_2  and  C_3
REMARK    3  A    between atoms: N_5  and  C_6
REMARK    4  A    between atoms: N_5  and  C_7
REMARK    5  A    between atoms: C_7  and  C_8
REMARK    6  A    between atoms: C_12  and  C_13
REMARK    7  A    between atoms: C_14  and  C_15
REMARK    8  A    between atoms: C_15  and  C_16
REMARK    9  A    between atoms: C_15  and  C_17
REMARK   10  A    between atoms: C_15  and  O_18
REMARK   11  A    between atoms: N_25  and  C_26
REMARK   12  A    between atoms: C_26  and  C_27
REMARK   13  A    between atoms: C_26  and  C_28
REMARK   14  A    between atoms: C_28  and  O_29
REMARK   15  A    between atoms: C_31  and  C_32
REMARK                            x       y       z     vdW  Elec       q    Type
REMARK                         _______ _______ _______ _____ _____    ______ ____
ROOT
ATOM      1  C   UNL     1       5.021   5.464  17.094  0.00  0.00    +0.000 C 
ATOM      2  O   UNL     1       3.819   6.172  16.710  0.00  0.00    +0.000 OA
ATOM      3  C   UNL     1       3.026   6.635  17.729  0.00  0.00    +0.000 A 
ATOM      4  C   UNL     1       2.764   7.989  17.645  0.00  0.00    +0.000 A 
ATOM      5  C   UNL     1       2.217   8.639  18.745  0.00  0.00    +0.000 A 
ATOM      6  C   UNL     1       1.903   7.976  19.927  0.00  0.00    +0.000 A 
ATOM      7  C   UNL     1       2.089   6.608  19.992  0.00  0.00    +0.000 A 
ATOM      8  C   UNL     1       2.630   5.934  18.885  0.00  0.00    +0.000 A 
ATOM      9  S   UNL     1       2.685   4.188  18.971  0.00  0.00    +0.000 S 
ATOM     10  O   UNL     1       1.999   3.773  20.172  0.00  0.00    +0.000 OA
ATOM     11  O   UNL     1       2.227   3.711  17.680  0.00  0.00    +0.000 OA
ATOM     12  N   UNL     1       4.329   3.728  19.161  0.00  0.00    +0.000 NA
ATOM     13  C   UNL     1       5.420   4.700  19.508  0.00  0.00    +0.000 C 
ATOM     14  C   UNL     1       5.538   5.890  18.524  0.00  0.00    +0.000 C 
ATOM     15  C   UNL     1       6.893   6.607  18.557  0.00  0.00    +0.000 C 
ENDROOT
BRANCH   5  16
ATOM     16  C   UNL     1       1.978  10.017  18.660  0.00  0.00    +0.000 C 
ATOM     17  C   UNL     1       1.817  11.308  18.569  0.00  0.00    +0.000 C 
BRANCH  17  18
ATOM     18  C   UNL     1       1.630  12.813  18.463  0.00  0.00    +0.000 C 
ATOM     19  C   UNL     1       0.141  13.143  18.385  0.00  0.00    +0.000 C 
ATOM     20  C   UNL     1       2.274  13.496  19.666  0.00  0.00    +0.000 C 
BRANCH  18  21
ATOM     21  O   UNL     1       2.271  13.281  17.283  0.00  0.00    +0.000 OA
ATOM     22  H   UNL     1       2.792  14.062  17.532  0.00  0.00    +0.000 HD
ENDBRANCH  18  21
ENDBRANCH  17  18
ENDBRANCH   5  16
BRANCH  12  23
ATOM     23  C   UNL     1       4.550   2.243  19.337  0.00  0.00    +0.000 C 
ATOM     24  C   UNL     1       3.576   1.412  18.501  0.00  0.00    +0.000 C 
BRANCH  23  25
ATOM     25  C   UNL     1       4.380   1.797  20.815  0.00  0.00    +0.000 C 
BRANCH  25  26
ATOM     26  O   UNL     1       5.595   1.305  21.393  0.00  0.00    +0.000 OA
ATOM     27  H   UNL     1       6.306   1.355  20.732  0.00  0.00    +0.000 HD
ENDBRANCH  25  26
ENDBRANCH  23  25
ENDBRANCH  12  23
BRANCH   1  28
ATOM     28  C   UNL     1       6.076   5.515  15.953  0.00  0.00    +0.000 C 
BRANCH  28  31
ATOM     29  C   UNL     1       6.652   4.523  13.746  0.00  0.00    +0.000 C 
ATOM     30  O   UNL     1       7.246   5.570  13.431  0.00  0.00    +0.000 OA
ATOM     31  N   UNL     1       6.039   4.392  14.984  0.00  0.00    +0.000 N 
ATOM     32  C   UNL     1       5.388   3.175  15.428  0.00  0.00    +0.000 C 
BRANCH  29  34
ATOM     33  C   UNL     1       5.351   3.334  11.953  0.00  0.00    +0.000 C 
ATOM     34  C   UNL     1       6.625   3.340  12.772  0.00  0.00    +0.000 C 
ENDBRANCH  29  34
ENDBRANCH  28  31
ENDBRANCH   1  28
TORSDOF 9
ENDMDL
MODEL 2
REMARK VINA RESULT:      -7.0      5.245     10.671
REMARK  Name = 
REMARK  15 active torsions:
REMARK  status: ('A' for Active; 'I' for Inactive)
REMARK    1  A    between atoms: C_1  and  C_2
REMARK    2  A    between atoms: C_2  and  C_3
REMARK    3  A    between atoms: N_5  and  C_6
REMARK    4  A    between atoms: N_5  and  C_7
REMARK    5  A    between atoms: C_7  and  C_8
REMARK    6  A    between atoms: C_12  and  C_13
REMARK    7  A    between atoms: C_14  and  C_15
REMARK    8  A    between atoms: C_15  and  C_16
REMARK    9  A    between atoms: C_15  and  C_17
REMARK   10  A    between atoms: C_15  and  O_18
REMARK   11  A    between atoms: N_25  and  C_26
REMARK   12  A    between atoms: C_26  and  C_27
REMARK   13  A    between atoms: C_26  and  C_28
REMARK   14  A    between atoms: C_28  and  O_29
REMARK   15  A    between atoms: C_31  and  C_32
REMARK                            x       y       z     vdW  Elec       q    Type
REMARK                         _______ _______ _______ _____ _____    ______ ____
ROOT
ATOM      1  C   UNL     1      -0.457  12.955  19.711  0.00  0.00    +0.000 C 
ATOM      2  O   UNL     1       0.673  12.278  20.311  0.00  0.00    +0.000 OA
ATOM      3  C   UNL     1       0.388  11.237  21.157  0.00  0.00    +0.000 A 
ATOM      4  C   UNL     1       1.024  10.061  20.809  0.00  0.00    +0.000 A 
ATOM      5  C   UNL     1       0.613   8.871  21.400  0.00  0.00    +0.000 A 
ATOM      6  C   UNL     1      -0.405   8.819  22.347  0.00  0.00    +0.000 A 
ATOM      7  C   UNL     1      -0.992  10.000  22.758  0.00  0.00    +0.000 A 
ATOM      8  C   UNL     1      -0.581  11.211  22.179  0.00  0.00    +0.000 A 
ATOM      9  S   UNL     1      -1.244  12.680  22.860  0.00  0.00    +0.000 S 
ATOM     10  O   UNL     1      -2.015  12.328  24.029  0.00  0.00    +0.000 OA
ATOM     11  O   UNL     1      -0.131  13.600  22.983  0.00  0.00    +0.000 OA
ATOM     12  N   UNL     1      -2.353  13.327  21.719  0.00  0.00    +0.000 NA
ATOM     13  C   UNL     1      -2.853  12.558  20.529  0.00  0.00    +0.000 C 
ATOM     14  C   UNL     1      -1.729  12.025  19.608  0.00  0.00    +0.000 C 
ATOM     15  C   UNL     1      -2.186  11.677  18.187  0.00  0.00    +0.000 C 
ENDROOT
BRANCH   5  16
ATOM     16  C   UNL     1       1.246   7.680  21.023  0.00  0.00    +0.000 C 
ATOM     17  C   UNL     1       1.780   6.550  20.649  0.00  0.00    +0.000 C 
BRANCH  17  18
ATOM     18  C   UNL     1       2.401   5.233  20.214  0.00  0.00    +0.000 C 
ATOM     19  C   UNL     1       2.134   4.163  21.270  0.00  0.00    +0.000 C 
ATOM     20  C   UNL     1       1.827   4.816  18.863  0.00  0.00    +0.000 C 
BRANCH  18  21
ATOM     21  O   UNL     1       3.806   5.404  20.072  0.00  0.00    +0.000 OA
ATOM     22  H   UNL     1       3.952   6.304  19.737  0.00  0.00    +0.000 HD
ENDBRANCH  18  21
ENDBRANCH  17  18
ENDBRANCH   5  16
BRANCH  12  23
ATOM     23  C   UNL     1      -3.086  14.563  22.186  0.00  0.00    +0.000 C 
ATOM     24  C   UNL     1      -4.595  14.457  21.963  0.00  0.00    +0.000 C 
BRANCH  23  25
ATOM     25  C   UNL     1      -2.603  15.844  21.452  0.00  0.00    +0.000 C 
BRANCH  25  26
ATOM     26  O   UNL     1      -3.317  16.093  20.236  0.00  0.00    +0.000 OA
ATOM     27  H   UNL     1      -3.566  17.032  20.198  0.00  0.00    +0.000 HD
ENDBRANCH  25  26
ENDBRANCH  23  25
ENDBRANCH  12  23
BRANCH   1  28
ATOM     28  C   UNL     1      -0.034  13.667  18.396  0.00  0.00    +0.000 C 
BRANCH  28  31
ATOM     29  C   UNL     1       2.099  14.947  18.440  0.00  0.00    +0.000 C 
ATOM     30  O   UNL     1       2.730  13.903  18.192  0.00  0.00    +0.000 OA
ATOM     31  N   UNL     1       0.717  14.937  18.557  0.00  0.00    +0.000 N 
ATOM     32  C   UNL     1      -0.074  16.132  18.783  0.00  0.00    +0.000 C 
BRANCH  29  34
ATOM     33  C   UNL     1       3.096  16.913  17.231  0.00  0.00    +0.000 C 
ATOM     34  C   UNL     1       2.850  16.275  18.583  0.00  0.00    +0.000 C 
ENDBRANCH  29  34
ENDBRANCH  28  31
ENDBRANCH   1  28
TORSDOF 9
ENDMDL
MODEL 3
REMARK VINA RESULT:      -6.9      6.938     11.641
REMARK  Name = 
REMARK  15 active torsions:
REMARK  status: ('A' for Active; 'I' for Inactive)
REMARK    1  A    between atoms: C_1  and  C_2
REMARK    2  A    between atoms: C_2  and  C_3
REMARK    3  A    between atoms: N_5  and  C_6
REMARK    4  A    between atoms: N_5  and  C_7
REMARK    5  A    between atoms: C_7  and  C_8
REMARK    6  A    between atoms: C_12  and  C_13
REMARK    7  A    between atoms: C_14  and  C_15
REMARK    8  A    between atoms: C_15  and  C_16
REMARK    9  A    between atoms: C_15  and  C_17
REMARK   10  A    between atoms: C_15  and  O_18
REMARK   11  A    between atoms: N_25  and  C_26
REMARK   12  A    between atoms: C_26  and  C_27
REMARK   13  A    between atoms: C_26  and  C_28
REMARK   14  A    between atoms: C_28  and  O_29
REMARK   15  A    between atoms: C_31  and  C_32
REMARK                            x       y       z     vdW  Elec       q    Type
REMARK                         _______ _______ _______ _____ _____    ______ ____
ROOT
ATOM      1  C   UNL     1       7.841  14.886  19.536  0.00  0.00    +0.000 C 
ATOM      2  O   UNL     1       7.752  14.095  18.328  0.00  0.00    +0.000 OA
ATOM      3  C   UNL     1       8.672  13.088  18.183  0.00  0.00    +0.000 A 
ATOM      4  C   UNL     1       8.098  11.853  17.952  0.00  0.00    +0.000 A 
ATOM      5  C   UNL     1       8.884  10.712  18.065  0.00  0.00    +0.000 A 
ATOM      6  C   UNL     1      10.238  10.765  18.384  0.00  0.00    +0.000 A 
ATOM      7  C   UNL     1      10.837  12.000  18.538  0.00  0.00    +0.000 A 
ATOM      8  C   UNL     1      10.059  13.163  18.417  0.00  0.00    +0.000 A 
ATOM      9  S   UNL     1      10.908  14.691  18.459  0.00  0.00    +0.000 S 
ATOM     10  O   UNL     1      12.326  14.420  18.475  0.00  0.00    +0.000 OA
ATOM     11  O   UNL     1      10.342  15.491  17.391  0.00  0.00    +0.000 OA
ATOM     12  N   UNL     1      10.537  15.451  19.954  0.00  0.00    +0.000 NA
ATOM     13  C   UNL     1       9.870  14.738  21.095  0.00  0.00    +0.000 C 
ATOM     14  C   UNL     1       8.512  14.092  20.725  0.00  0.00    +0.000 C 
ATOM     15  C   UNL     1       7.604  13.794  21.924  0.00  0.00    +0.000 C 
ENDROOT
BRANCH   5  16
ATOM     16  C   UNL     1       8.289   9.462  17.855  0.00  0.00    +0.000 C 
ATOM     17  C   UNL     1       7.792   8.273  17.652  0.00  0.00    +0.000 C 
BRANCH  17  18
ATOM     18  C   UNL     1       7.213   6.888  17.415  0.00  0.00    +0.000 C 
ATOM     19  C   UNL     1       7.644   5.950  18.540  0.00  0.00    +0.000 C 
ATOM     20  C   UNL     1       5.692   6.974  17.333  0.00  0.00    +0.000 C 
BRANCH  18  21
ATOM     21  O   UNL     1       7.702   6.382  16.178  0.00  0.00    +0.000 OA
ATOM     22  H   UNL     1       8.231   5.592  16.382  0.00  0.00    +0.000 HD
ENDBRANCH  18  21
ENDBRANCH  17  18
ENDBRANCH   5  16
BRANCH  12  23
ATOM     23  C   UNL     1      11.261  16.756  20.193  0.00  0.00    +0.000 C 
ATOM     24  C   UNL     1      11.546  16.994  21.676  0.00  0.00    +0.000 C 
BRANCH  23  25
ATOM     25  C   UNL     1      10.451  17.978  19.680  0.00  0.00    +0.000 C 
BRANCH  25  26
ATOM     26  O   UNL     1      10.810  18.367  18.349  0.00  0.00    +0.000 OA
ATOM     27  H   UNL     1      10.380  19.212  18.136  0.00  0.00    +0.000 HD
ENDBRANCH  25  26
ENDBRANCH  23  25
ENDBRANCH  12  23
BRANCH   1  28
ATOM     28  C   UNL     1       6.473  15.552  19.857  0.00  0.00    +0.000 C 
BRANCH  28  31
ATOM     29  C   UNL     1       4.249  14.440  19.896  0.00  0.00    +0.000 C 
ATOM     30  O   UNL     1       4.275  14.430  21.140  0.00  0.00    +0.000 OA
ATOM     31  N   UNL     1       5.294  14.981  19.161  0.00  0.00    +0.000 N 
ATOM     32  C   UNL     1       5.288  15.077  17.714  0.00  0.00    +0.000 C 
BRANCH  29  34
ATOM     33  C   UNL     1       1.742  14.249  19.867  0.00  0.00    +0.000 C 
ATOM     34  C   UNL     1       3.028  13.882  19.155  0.00  0.00    +0.000 C 
ENDBRANCH  29  34
ENDBRANCH  28  31
ENDBRANCH   1  28
TORSDOF 9
ENDMDL
MODEL 4
REMARK VINA RESULT:      -6.9      4.764     10.194
REMARK  Name = 
REMARK  15 active torsions:
REMARK  status: ('A' for Active; 'I' for Inactive)
REMARK    1  A    between atoms: C_1  and  C_2
REMARK    2  A    between atoms: C_2  and  C_3
REMARK    3  A    between atoms: N_5  and  C_6
REMARK    4  A    between atoms: N_5  and  C_7
REMARK    5  A    between atoms: C_7  and  C_8
REMARK    6  A    between atoms: C_12  and  C_13
REMARK    7  A    between atoms: C_14  and  C_15
REMARK    8  A    between atoms: C_15  and  C_16
REMARK    9  A    between atoms: C_15  and  C_17
REMARK   10  A    between atoms: C_15  and  O_18
REMARK   11  A    between atoms: N_25  and  C_26
REMARK   12  A    between atoms: C_26  and  C_27
REMARK   13  A    between atoms: C_26  and  C_28
REMARK   14  A    between atoms: C_28  and  O_29
REMARK   15  A    between atoms: C_31  and  C_32
REMARK                            x       y       z     vdW  Elec       q    Type
REMARK                         _______ _______ _______ _____ _____    ______ ____
ROOT
ATOM      1  C   UNL     1      -0.403  13.036  19.697  0.00  0.00    +0.000 C 
ATOM      2  O   UNL     1       0.752  12.365  20.252  0.00  0.00    +0.000 OA
ATOM      3  C   UNL     1       0.527  11.157  20.862  0.00  0.00    +0.000 A 
ATOM      4  C   UNL     1       1.308  10.136  20.355  0.00  0.00    +0.000 A 
ATOM      5  C   UNL     1       0.991   8.821  20.678  0.00  0.00    +0.000 A 
ATOM      6  C   UNL     1      -0.074   8.490  21.510  0.00  0.00    +0.000 A 
ATOM      7  C   UNL     1      -0.811   9.509  22.083  0.00  0.00    +0.000 A 
ATOM      8  C   UNL     1      -0.497  10.843  21.776  0.00  0.00    +0.000 A 
ATOM      9  S   UNL     1      -1.357  12.083  22.661  0.00  0.00    +0.000 S 
ATOM     10  O   UNL     1      -2.159  11.440  23.676  0.00  0.00    +0.000 OA
ATOM     11  O   UNL     1      -0.360  13.062  23.046  0.00  0.00    +0.000 OA
ATOM     12  N   UNL     1      -2.454  12.832  21.572  0.00  0.00    +0.000 NA
ATOM     13  C   UNL     1      -2.790  12.265  20.223  0.00  0.00    +0.000 C 
ATOM     14  C   UNL     1      -1.558  12.029  19.315  0.00  0.00    +0.000 C 
ATOM     15  C   UNL     1      -1.882  11.922  17.821  0.00  0.00    +0.000 C 
ENDROOT
BRANCH   5  16
ATOM     16  C   UNL     1       1.772   7.790  20.139  0.00  0.00    +0.000 C 
ATOM     17  C   UNL     1       2.540   6.875  19.618  0.00  0.00    +0.000 C 
BRANCH  17  18
ATOM     18  C   UNL     1       3.435   5.807  19.009  0.00  0.00    +0.000 C 
ATOM     19  C   UNL     1       2.605   4.572  18.666  0.00  0.00    +0.000 C 
ATOM     20  C   UNL     1       4.121   6.361  17.764  0.00  0.00    +0.000 C 
BRANCH  18  21
ATOM     21  O   UNL     1       4.437   5.445  19.952  0.00  0.00    +0.000 OA
ATOM     22  H   UNL     1       4.058   4.753  20.519  0.00  0.00    +0.000 HD
ENDBRANCH  18  21
ENDBRANCH  17  18
ENDBRANCH   5  16
BRANCH  12  23
ATOM     23  C   UNL     1      -3.345  13.880  22.199  0.00  0.00    +0.000 C 
ATOM     24  C   UNL     1      -4.815  13.682  21.829  0.00  0.00    +0.000 C 
BRANCH  23  25
ATOM     25  C   UNL     1      -2.952  15.319  21.765  0.00  0.00    +0.000 C 
BRANCH  25  26
ATOM     26  O   UNL     1      -1.552  15.582  21.907  0.00  0.00    +0.000 OA
ATOM     27  H   UNL     1      -1.115  14.798  22.279  0.00  0.00    +0.000 HD
ENDBRANCH  25  26
ENDBRANCH  23  25
ENDBRANCH  12  23
BRANCH   1  28
ATOM     28  C   UNL     1       0.024  14.027  18.577  0.00  0.00    +0.000 C 
BRANCH  28  31
ATOM     29  C   UNL     1       2.471  14.449  18.439  0.00  0.00    +0.000 C 
ATOM     30  O   UNL     1       2.618  13.389  17.803  0.00  0.00    +0.000 OA
ATOM     31  N   UNL     1       1.217  14.860  18.867  0.00  0.00    +0.000 N 
ATOM     32  C   UNL     1       0.979  16.113  19.556  0.00  0.00    +0.000 C 
BRANCH  29  34
ATOM     33  C   UNL     1       4.880  14.920  17.895  0.00  0.00    +0.000 C 
ATOM     34  C   UNL     1       3.685  15.339  18.726  0.00  0.00    +0.000 C 
ENDBRANCH  29  34
ENDBRANCH  28  31
ENDBRANCH   1  28
TORSDOF 9
ENDMDL
MODEL 5
REMARK VINA RESULT:      -6.9      5.190     10.960
REMARK  Name = 
REMARK  15 active torsions:
REMARK  status: ('A' for Active; 'I' for Inactive)
REMARK    1  A    between atoms: C_1  and  C_2
REMARK    2  A    between atoms: C_2  and  C_3
REMARK    3  A    between atoms: N_5  and  C_6
REMARK    4  A    between atoms: N_5  and  C_7
REMARK    5  A    between atoms: C_7  and  C_8
REMARK    6  A    between atoms: C_12  and  C_13
REMARK    7  A    between atoms: C_14  and  C_15
REMARK    8  A    between atoms: C_15  and  C_16
REMARK    9  A    between atoms: C_15  and  C_17
REMARK   10  A    between atoms: C_15  and  O_18
REMARK   11  A    between atoms: N_25  and  C_26
REMARK   12  A    between atoms: C_26  and  C_27
REMARK   13  A    between atoms: C_26  and  C_28
REMARK   14  A    between atoms: C_28  and  O_29
REMARK   15  A    between atoms: C_31  and  C_32
REMARK                            x       y       z     vdW  Elec       q    Type
REMARK                         _______ _______ _______ _____ _____    ______ ____
ROOT
ATOM      1  C   UNL     1      -0.252  13.120  19.629  0.00  0.00    +0.000 C 
ATOM      2  O   UNL     1       0.844  12.414  20.258  0.00  0.00    +0.000 OA
ATOM      3  C   UNL     1       0.510  11.359  21.069  0.00  0.00    +0.000 A 
ATOM      4  C   UNL     1       1.144  10.182  20.720  0.00  0.00    +0.000 A 
ATOM      5  C   UNL     1       0.694   8.986  21.268  0.00  0.00    +0.000 A 
ATOM      6  C   UNL     1      -0.362   8.928  22.173  0.00  0.00    +0.000 A 
ATOM      7  C   UNL     1      -0.950  10.108  22.586  0.00  0.00    +0.000 A 
ATOM      8  C   UNL     1      -0.499  11.326  22.050  0.00  0.00    +0.000 A 
ATOM      9  S   UNL     1      -1.169  12.788  22.737  0.00  0.00    +0.000 S 
ATOM     10  O   UNL     1      -1.990  12.423  23.867  0.00  0.00    +0.000 OA
ATOM     11  O   UNL     1      -0.048  13.690  22.925  0.00  0.00    +0.000 OA
ATOM     12  N   UNL     1      -2.222  13.477  21.567  0.00  0.00    +0.000 NA
ATOM     13  C   UNL     1      -2.684  12.741  20.342  0.00  0.00    +0.000 C 
ATOM     14  C   UNL     1      -1.531  12.211  19.455  0.00  0.00    +0.000 C 
ATOM     15  C   UNL     1      -1.936  11.901  18.009  0.00  0.00    +0.000 C 
ENDROOT
BRANCH   5  16
ATOM     16  C   UNL     1       1.325   7.794  20.890  0.00  0.00    +0.000 C 
ATOM     17  C   UNL     1       1.856   6.663  20.517  0.00  0.00    +0.000 C 
BRANCH  17  18
ATOM     18  C   UNL     1       2.475   5.344  20.083  0.00  0.00    +0.000 C 
ATOM     19  C   UNL     1       2.100   4.246  21.077  0.00  0.00    +0.000 C 
ATOM     20  C   UNL     1       1.996   4.990  18.679  0.00  0.00    +0.000 C 
BRANCH  18  21
ATOM     21  O   UNL     1       3.891   5.479  20.055  0.00  0.00    +0.000 OA
ATOM     22  H   UNL     1       4.145   5.620  19.128  0.00  0.00    +0.000 HD
ENDBRANCH  18  21
ENDBRANCH  17  18
ENDBRANCH   5  16
BRANCH  12  23
ATOM     23  C   UNL     1      -2.956  14.713  22.033  0.00  0.00    +0.000 C 
ATOM     24  C   UNL     1      -4.446  14.659  21.696  0.00  0.00    +0.000 C 
BRANCH  23  25
ATOM     25  C   UNL     1      -2.387  16.008  21.392  0.00  0.00    +0.000 C 
BRANCH  25  26
ATOM     26  O   UNL     1      -2.883  16.241  20.069  0.00  0.00    +0.000 OA
ATOM     27  H   UNL     1      -2.288  16.856  19.608  0.00  0.00    +0.000 HD
ENDBRANCH  25  26
ENDBRANCH  23  25
ENDBRANCH  12  23
BRANCH   1  28
ATOM     28  C   UNL     1       0.233  13.855  18.348  0.00  0.00    +0.000 C 
BRANCH  28  31
ATOM     29  C   UNL     1       0.606  16.303  18.578  0.00  0.00    +0.000 C 
ATOM     30  O   UNL     1      -0.612  16.504  18.417  0.00  0.00    +0.000 OA
ATOM     31  N   UNL     1       1.128  15.019  18.566  0.00  0.00    +0.000 N 
ATOM     32  C   UNL     1       2.526  14.722  18.810  0.00  0.00    +0.000 C 
BRANCH  29  34
ATOM     33  C   UNL     1       1.306  18.092  20.201  0.00  0.00    +0.000 C 
ATOM     34  C   UNL     1       1.545  17.487  18.833  0.00  0.00    +0.000 C 
ENDBRANCH  29  34
ENDBRANCH  28  31
ENDBRANCH   1  28
TORSDOF 9
ENDMDL
MODEL 6
REMARK VINA RESULT:      -6.7      4.870     10.674
REMARK  Name = 
REMARK  15 active torsions:
REMARK  status: ('A' for Active; 'I' for Inactive)
REMARK    1  A    between atoms: C_1  and  C_2
REMARK    2  A    between atoms: C_2  and  C_3
REMARK    3  A    between atoms: N_5  and  C_6
REMARK    4  A    between atoms: N_5  and  C_7
REMARK    5  A    between atoms: C_7  and  C_8
REMARK    6  A    between atoms: C_12  and  C_13
REMARK    7  A    between atoms: C_14  and  C_15
REMARK    8  A    between atoms: C_15  and  C_16
REMARK    9  A    between atoms: C_15  and  C_17
REMARK   10  A    between atoms: C_15  and  O_18
REMARK   11  A    between atoms: N_25  and  C_26
REMARK   12  A    between atoms: C_26  and  C_27
REMARK   13  A    between atoms: C_26  and  C_28
REMARK   14  A    between atoms: C_28  and  O_29
REMARK   15  A    between atoms: C_31  and  C_32
REMARK                            x       y       z     vdW  Elec       q    Type
REMARK                         _______ _______ _______ _____ _____    ______ ____
ROOT
ATOM      1  C   UNL     1      -0.424  12.924  19.565  0.00  0.00    +0.000 C 
ATOM      2  O   UNL     1       0.772  12.282  20.063  0.00  0.00    +0.000 OA
ATOM      3  C   UNL     1       0.608  11.062  20.669  0.00  0.00    +0.000 A 
ATOM      4  C   UNL     1       1.396  10.069  20.119  0.00  0.00    +0.000 A 
ATOM      5  C   UNL     1       1.131   8.743  20.440  0.00  0.00    +0.000 A 
ATOM      6  C   UNL     1       0.112   8.373  21.313  0.00  0.00    +0.000 A 
ATOM      7  C   UNL     1      -0.629   9.364  21.928  0.00  0.00    +0.000 A 
ATOM      8  C   UNL     1      -0.366  10.710  21.623  0.00  0.00    +0.000 A 
ATOM      9  S   UNL     1      -1.223  11.915  22.557  0.00  0.00    +0.000 S 
ATOM     10  O   UNL     1      -1.961  11.240  23.597  0.00  0.00    +0.000 OA
ATOM     11  O   UNL     1      -0.239  12.920  22.910  0.00  0.00    +0.000 OA
ATOM     12  N   UNL     1      -2.386  12.643  21.523  0.00  0.00    +0.000 NA
ATOM     13  C   UNL     1      -2.763  12.079  20.183  0.00  0.00    +0.000 C 
ATOM     14  C   UNL     1      -1.565  11.887  19.222  0.00  0.00    +0.000 C 
ATOM     15  C   UNL     1      -1.950  11.785  17.742  0.00  0.00    +0.000 C 
ENDROOT
BRANCH   5  16
ATOM     16  C   UNL     1       1.917   7.740  19.858  0.00  0.00    +0.000 C 
ATOM     17  C   UNL     1       2.597   6.772  19.309  0.00  0.00    +0.000 C 
BRANCH  17  18
ATOM     18  C   UNL     1       3.389   5.643  18.669  0.00  0.00    +0.000 C 
ATOM     19  C   UNL     1       2.432   4.570  18.153  0.00  0.00    +0.000 C 
ATOM     20  C   UNL     1       4.245   6.197  17.534  0.00  0.00    +0.000 C 
BRANCH  18  21
ATOM     21  O   UNL     1       4.250   5.066  19.643  0.00  0.00    +0.000 OA
ATOM     22  H   UNL     1       5.119   4.951  19.222  0.00  0.00    +0.000 HD
ENDBRANCH  18  21
ENDBRANCH  17  18
ENDBRANCH   5  16
BRANCH  12  23
ATOM     23  C   UNL     1      -3.279  13.658  22.199  0.00  0.00    +0.000 C 
ATOM     24  C   UNL     1      -4.759  13.407  21.909  0.00  0.00    +0.000 C 
BRANCH  23  25
ATOM     25  C   UNL     1      -2.963  15.110  21.745  0.00  0.00    +0.000 C 
BRANCH  25  26
ATOM     26  O   UNL     1      -1.602  15.485  21.984  0.00  0.00    +0.000 OA
ATOM     27  H   UNL     1      -1.450  16.378  21.632  0.00  0.00    +0.000 HD
ENDBRANCH  25  26
ENDBRANCH  23  25
ENDBRANCH  12  23
BRANCH   1  28
ATOM     28  C   UNL     1      -0.074  13.938  18.439  0.00  0.00    +0.000 C 
BRANCH  28  31
ATOM     29  C   UNL     1       0.408  16.234  19.264  0.00  0.00    +0.000 C 
ATOM     30  O   UNL     1      -0.812  16.449  19.381  0.00  0.00    +0.000 OA
ATOM     31  N   UNL     1       0.880  15.013  18.807  0.00  0.00    +0.000 N 
ATOM     32  C   UNL     1       2.290  14.686  18.710  0.00  0.00    +0.000 C 
BRANCH  29  34
ATOM     33  C   UNL     1       0.732  18.451  20.405  0.00  0.00    +0.000 C 
ATOM     34  C   UNL     1       1.414  17.320  19.664  0.00  0.00    +0.000 C 
ENDBRANCH  29  34
ENDBRANCH  28  31
ENDBRANCH   1  28
TORSDOF 9
ENDMDL
MODEL 7
REMARK VINA RESULT:      -6.7      7.157     12.125
REMARK  Name = 
REMARK  15 active torsions:
REMARK  status: ('A' for Active; 'I' for Inactive)
REMARK    1  A    between atoms: C_1  and  C_2
REMARK    2  A    between atoms: C_2  and  C_3
REMARK    3  A    between atoms: N_5  and  C_6
REMARK    4  A    between atoms: N_5  and  C_7
REMARK    5  A    between atoms: C_7  and  C_8
REMARK    6  A    between atoms: C_12  and  C_13
REMARK    7  A    between atoms: C_14  and  C_15
REMARK    8  A    between atoms: C_15  and  C_16
REMARK    9  A    between atoms: C_15  and  C_17
REMARK   10  A    between atoms: C_15  and  O_18
REMARK   11  A    between atoms: N_25  and  C_26
REMARK   12  A    between atoms: C_26  and  C_27
REMARK   13  A    between atoms: C_26  and  C_28
REMARK   14  A    between atoms: C_28  and  O_29
REMARK   15  A    between atoms: C_31  and  C_32
REMARK                            x       y       z     vdW  Elec       q    Type
REMARK                         _______ _______ _______ _____ _____    ______ ____
ROOT
ATOM      1  C   UNL     1       7.821  14.815  18.633  0.00  0.00    +0.000 C 
ATOM      2  O   UNL     1       8.059  13.835  17.596  0.00  0.00    +0.000 OA
ATOM      3  C   UNL     1       8.869  12.777  17.924  0.00  0.00    +0.000 A 
ATOM      4  C   UNL     1       8.282  11.548  17.692  0.00  0.00    +0.000 A 
ATOM      5  C   UNL     1       8.867  10.409  18.233  0.00  0.00    +0.000 A 
ATOM      6  C   UNL     1      10.036  10.453  18.986  0.00  0.00    +0.000 A 
ATOM      7  C   UNL     1      10.672  11.669  19.156  0.00  0.00    +0.000 A 
ATOM      8  C   UNL     1      10.099  12.827  18.607  0.00  0.00    +0.000 A 
ATOM      9  S   UNL     1      11.036  14.301  18.716  0.00  0.00    +0.000 S 
ATOM     10  O   UNL     1      12.333  13.972  19.258  0.00  0.00    +0.000 OA
ATOM     11  O   UNL     1      10.939  14.931  17.414  0.00  0.00    +0.000 OA
ATOM     12  N   UNL     1      10.268  15.320  19.866  0.00  0.00    +0.000 NA
ATOM     13  C   UNL     1       9.192  14.844  20.798  0.00  0.00    +0.000 C 
ATOM     14  C   UNL     1       7.976  14.207  20.082  0.00  0.00    +0.000 C 
ATOM     15  C   UNL     1       6.697  14.160  20.925  0.00  0.00    +0.000 C 
ENDROOT
BRANCH   5  16
ATOM     16  C   UNL     1       8.252   9.169  18.014  0.00  0.00    +0.000 C 
ATOM     17  C   UNL     1       7.731   7.997  17.778  0.00  0.00    +0.000 C 
BRANCH  17  18
ATOM     18  C   UNL     1       7.123   6.632  17.503  0.00  0.00    +0.000 C 
ATOM     19  C   UNL     1       7.604   5.632  18.553  0.00  0.00    +0.000 C 
ATOM     20  C   UNL     1       5.601   6.736  17.511  0.00  0.00    +0.000 C 
BRANCH  18  21
ATOM     21  O   UNL     1       7.537   6.187  16.217  0.00  0.00    +0.000 OA
ATOM     22  H   UNL     1       6.907   5.502  15.935  0.00  0.00    +0.000 HD
ENDBRANCH  18  21
ENDBRANCH  17  18
ENDBRANCH   5  16
BRANCH  12  23
ATOM     23  C   UNL     1      11.000  16.613  20.147  0.00  0.00    +0.000 C 
ATOM     24  C   UNL     1      10.668  17.173  21.530  0.00  0.00    +0.000 C 
BRANCH  23  25
ATOM     25  C   UNL     1      10.657  17.717  19.110  0.00  0.00    +0.000 C 
BRANCH  25  26
ATOM     26  O   UNL     1      11.743  18.621  18.877  0.00  0.00    +0.000 OA
ATOM     27  H   UNL     1      11.388  19.483  18.600  0.00  0.00    +0.000 HD
ENDBRANCH  25  26
ENDBRANCH  23  25
ENDBRANCH  12  23
BRANCH   1  28
ATOM     28  C   UNL     1       6.499  15.587  18.364  0.00  0.00    +0.000 C 
BRANCH  28  31
ATOM     29  C   UNL     1       5.060  16.992  19.828  0.00  0.00    +0.000 C 
ATOM     30  O   UNL     1       4.143  16.156  19.730  0.00  0.00    +0.000 OA
ATOM     31  N   UNL     1       6.276  16.801  19.189  0.00  0.00    +0.000 N 
ATOM     32  C   UNL     1       7.399  17.709  19.319  0.00  0.00    +0.000 C 
BRANCH  29  34
ATOM     33  C   UNL     1       4.840  17.882  22.169  0.00  0.00    +0.000 C 
ATOM     34  C   UNL     1       4.863  18.239  20.697  0.00  0.00    +0.000 C 
ENDBRANCH  29  34
ENDBRANCH  28  31
ENDBRANCH   1  28
TORSDOF 9
ENDMDL
MODEL 8
REMARK VINA RESULT:      -6.7      5.026     10.378
REMARK  Name = 
REMARK  15 active torsions:
REMARK  status: ('A' for Active; 'I' for Inactive)
REMARK    1  A    between atoms: C_1  and  C_2
REMARK    2  A    between atoms: C_2  and  C_3
REMARK    3  A    between atoms: N_5  and  C_6
REMARK    4  A    between atoms: N_5  and  C_7
REMARK    5  A    between atoms: C_7  and  C_8
REMARK    6  A    between atoms: C_12  and  C_13
REMARK    7  A    between atoms: C_14  and  C_15
REMARK    8  A    between atoms: C_15  and  C_16
REMARK    9  A    between atoms: C_15  and  C_17
REMARK   10  A    between atoms: C_15  and  O_18
REMARK   11  A    between atoms: N_25  and  C_26
REMARK   12  A    between atoms: C_26  and  C_27
REMARK   13  A    between atoms: C_26  and  C_28
REMARK   14  A    between atoms: C_28  and  O_29
REMARK   15  A    between atoms: C_31  and  C_32
REMARK                            x       y       z     vdW  Elec       q    Type
REMARK                         _______ _______ _______ _____ _____    ______ ____
ROOT
ATOM      1  C   UNL     1      -0.124  12.931  19.758  0.00  0.00    +0.000 C 
ATOM      2  O   UNL     1       0.919  12.187  20.432  0.00  0.00    +0.000 OA
ATOM      3  C   UNL     1       0.519  11.112  21.185  0.00  0.00    +0.000 A 
ATOM      4  C   UNL     1       1.157   9.937  20.839  0.00  0.00    +0.000 A 
ATOM      5  C   UNL     1       0.656   8.732  21.317  0.00  0.00    +0.000 A 
ATOM      6  C   UNL     1      -0.457   8.662  22.150  0.00  0.00    +0.000 A 
ATOM      7  C   UNL     1      -1.053   9.838  22.564  0.00  0.00    +0.000 A 
ATOM      8  C   UNL     1      -0.552  11.064  22.099  0.00  0.00    +0.000 A 
ATOM      9  S   UNL     1      -1.243  12.515  22.789  0.00  0.00    +0.000 S 
ATOM     10  O   UNL     1      -2.140  12.127  23.851  0.00  0.00    +0.000 OA
ATOM     11  O   UNL     1      -0.124  13.392  23.077  0.00  0.00    +0.000 OA
ATOM     12  N   UNL     1      -2.209  13.257  21.578  0.00  0.00    +0.000 NA
ATOM     13  C   UNL     1      -2.602  12.568  20.302  0.00  0.00    +0.000 C 
ATOM     14  C   UNL     1      -1.402  12.049  19.473  0.00  0.00    +0.000 C 
ATOM     15  C   UNL     1      -1.718  11.791  17.995  0.00  0.00    +0.000 C 
ENDROOT
BRANCH   5  16
ATOM     16  C   UNL     1       1.293   7.542  20.941  0.00  0.00    +0.000 C 
ATOM     17  C   UNL     1       1.835   6.403  20.613  0.00  0.00    +0.000 C 
BRANCH  17  18
ATOM     18  C   UNL     1       2.467   5.074  20.229  0.00  0.00    +0.000 C 
ATOM     19  C   UNL     1       2.225   4.050  21.335  0.00  0.00    +0.000 C 
ATOM     20  C   UNL     1       1.883   4.591  18.905  0.00  0.00    +0.000 C 
BRANCH  18  21
ATOM     21  O   UNL     1       3.869   5.254  20.064  0.00  0.00    +0.000 OA
ATOM     22  H   UNL     1       3.996   5.772  19.252  0.00  0.00    +0.000 HD
ENDBRANCH  18  21
ENDBRANCH  17  18
ENDBRANCH   5  16
BRANCH  12  23
ATOM     23  C   UNL     1      -2.954  14.490  22.036  0.00  0.00    +0.000 C 
ATOM     24  C   UNL     1      -4.432  14.447  21.647  0.00  0.00    +0.000 C 
BRANCH  23  25
ATOM     25  C   UNL     1      -2.358  15.792  21.434  0.00  0.00    +0.000 C 
BRANCH  25  26
ATOM     26  O   UNL     1      -1.019  16.047  21.870  0.00  0.00    +0.000 OA
ATOM     27  H   UNL     1      -1.041  16.423  22.766  0.00  0.00    +0.000 HD
ENDBRANCH  25  26
ENDBRANCH  23  25
ENDBRANCH  12  23
BRANCH   1  28
ATOM     28  C   UNL     1       0.452  13.698  18.535  0.00  0.00    +0.000 C 
BRANCH  28  31
ATOM     29  C   UNL     1       2.548  14.961  18.982  0.00  0.00    +0.000 C 
ATOM     30  O   UNL     1       1.884  15.886  19.484  0.00  0.00    +0.000 OA
ATOM     31  N   UNL     1       1.930  13.823  18.484  0.00  0.00    +0.000 N 
ATOM     32  C   UNL     1       2.657  12.689  17.947  0.00  0.00    +0.000 C 
BRANCH  29  34
ATOM     33  C   UNL     1       4.531  16.473  18.668  0.00  0.00    +0.000 C 
ATOM     34  C   UNL     1       4.077  15.055  18.945  0.00  0.00    +0.000 C 
ENDBRANCH  29  34
ENDBRANCH  28  31
ENDBRANCH   1  28
TORSDOF 9
ENDMDL
MODEL 9
REMARK VINA RESULT:      -6.7      0.859      1.075
REMARK  Name = 
REMARK  15 active torsions:
REMARK  status: ('A' for Active; 'I' for Inactive)
REMARK    1  A    between atoms: C_1  and  C_2
REMARK    2  A    between atoms: C_2  and  C_3
REMARK    3  A    between atoms: N_5  and  C_6
REMARK    4  A    between atoms: N_5  and  C_7
REMARK    5  A    between atoms: C_7  and  C_8
REMARK    6  A    between atoms: C_12  and  C_13
REMARK    7  A    between atoms: C_14  and  C_15
REMARK    8  A    between atoms: C_15  and  C_16
REMARK    9  A    between atoms: C_15  and  C_17
REMARK   10  A    between atoms: C_15  and  O_18
REMARK   11  A    between atoms: N_25  and  C_26
REMARK   12  A    between atoms: C_26  and  C_27
REMARK   13  A    between atoms: C_26  and  C_28
REMARK   14  A    between atoms: C_28  and  O_29
REMARK   15  A    between atoms: C_31  and  C_32
REMARK                            x       y       z     vdW  Elec       q    Type
REMARK                         _______ _______ _______ _____ _____    ______ ____
ROOT
ATOM      1  C   UNL     1       4.685   5.327  17.541  0.00  0.00    +0.000 C 
ATOM      2  O   UNL     1       3.637   6.174  17.015  0.00  0.00    +0.000 OA
ATOM      3  C   UNL     1       2.801   6.760  17.931  0.00  0.00    +0.000 A 
ATOM      4  C   UNL     1       2.729   8.134  17.804  0.00  0.00    +0.000 A 
ATOM      5  C   UNL     1       2.152   8.876  18.828  0.00  0.00    +0.000 A 
ATOM      6  C   UNL     1       1.623   8.288  19.973  0.00  0.00    +0.000 A 
ATOM      7  C   UNL     1       1.621   6.910  20.072  0.00  0.00    +0.000 A 
ATOM      8  C   UNL     1       2.191   6.145  19.042  0.00  0.00    +0.000 A 
ATOM      9  S   UNL     1       2.007   4.409  19.150  0.00  0.00    +0.000 S 
ATOM     10  O   UNL     1       1.142   4.115  20.269  0.00  0.00    +0.000 OA
ATOM     11  O   UNL     1       1.638   3.963  17.820  0.00  0.00    +0.000 OA
ATOM     12  N   UNL     1       3.545   3.746  19.532  0.00  0.00    +0.000 NA
ATOM     13  C   UNL     1       4.708   4.578  19.992  0.00  0.00    +0.000 C 
ATOM     14  C   UNL     1       5.089   5.718  19.017  0.00  0.00    +0.000 C 
ATOM     15  C   UNL     1       6.514   6.256  19.197  0.00  0.00    +0.000 C 
ENDROOT
BRANCH   5  16
ATOM     16  C   UNL     1       2.105  10.271  18.703  0.00  0.00    +0.000 C 
ATOM     17  C   UNL     1       2.002  11.564  18.568  0.00  0.00    +0.000 C 
BRANCH  17  18
ATOM     18  C   UNL     1       1.881  13.071  18.410  0.00  0.00    +0.000 C 
ATOM     19  C   UNL     1       0.411  13.479  18.468  0.00  0.00    +0.000 C 
ATOM     20  C   UNL     1       2.680  13.767  19.508  0.00  0.00    +0.000 C 
BRANCH  18  21
ATOM     21  O   UNL     1       2.419  13.454  17.150  0.00  0.00    +0.000 OA
ATOM     22  H   UNL     1       3.353  13.185  17.145  0.00  0.00    +0.000 HD
ENDBRANCH  18  21
ENDBRANCH  17  18
ENDBRANCH   5  16
BRANCH  12  23
ATOM     23  C   UNL     1       3.549   2.250  19.747  0.00  0.00    +0.000 C 
ATOM     24  C   UNL     1       4.775   1.785  20.533  0.00  0.00    +0.000 C 
BRANCH  23  25
ATOM     25  C   UNL     1       3.538   1.465  18.407  0.00  0.00    +0.000 C 
BRANCH  25  26
ATOM     26  O   UNL     1       4.447   0.359  18.400  0.00  0.00    +0.000 OA
ATOM     27  H   UNL     1       5.280   0.633  17.981  0.00  0.00    +0.000 HD
ENDBRANCH  25  26
ENDBRANCH  23  25
ENDBRANCH  12  23
BRANCH   1  28
ATOM     28  C   UNL     1       5.859   5.214  16.528  0.00  0.00    +0.000 C 
BRANCH  28  31
ATOM     29  C   UNL     1       6.368   4.486  14.205  0.00  0.00    +0.000 C 
ATOM     30  O   UNL     1       7.230   5.379  14.114  0.00  0.00    +0.000 OA
ATOM     31  N   UNL     1       5.632   4.317  15.368  0.00  0.00    +0.000 N 
ATOM     32  C   UNL     1       4.661   3.255  15.552  0.00  0.00    +0.000 C 
BRANCH  29  34
ATOM     33  C   UNL     1       7.011   3.891  11.848  0.00  0.00    +0.000 C 
ATOM     34  C   UNL     1       6.136   3.529  13.030  0.00  0.00    +0.000 C 
ENDBRANCH  29  34
ENDBRANCH  28  31
ENDBRANCH   1  28
TORSDOF 9
ENDMDL
