MODEL 1
REMARK VINA RESULT:      -6.8      0.000      0.000
REMARK  Name = 
REMARK  12 active torsions:
REMARK  status: ('A' for Active; 'I' for Inactive)
REMARK    1  A    between atoms: C_1  and  C_2
REMARK    2  A    between atoms: C_2  and  C_3
REMARK    3  A    between atoms: C_3  and  C_4
REMARK    4  A    between atoms: C_4  and  C_6
REMARK    5  A    between atoms: C_9  and  O_10
REMARK    6  A    between atoms: O_10  and  C_11
REMARK    7  A    between atoms: C_11  and  C_12
REMARK    8  A    between atoms: C_12  and  C_13
REMARK    9  A    between atoms: C_13  and  N_14
REMARK   10  A    between atoms: C_18  and  O_20
REMARK   11  A    between atoms: O_20  and  C_21
REMARK   12  A    between atoms: C_21  and  C_22
REMARK                            x       y       z     vdW  Elec       q    Type
REMARK                         _______ _______ _______ _____ _____    ______ ____
ROOT
ATOM      1  C   UNL     1       8.241   8.929  17.827  0.00  0.00    +0.000 C 
ENDROOT
BRANCH   1   2
ATOM      2  O   UNL     1       8.838   9.243  19.089  0.00  0.00    +0.000 OA
BRANCH   2   6
ATOM      3  C   UNL     1      10.584  12.962  19.751  0.00  0.00    +0.000 A 
ATOM      4  C   UNL     1      10.254  12.094  20.796  0.00  0.00    +0.000 A 
ATOM      5  C   UNL     1       9.665  10.862  20.524  0.00  0.00    +0.000 A 
ATOM      6  C   UNL     1       9.402  10.478  19.210  0.00  0.00    +0.000 A 
ATOM      7  C   UNL     1       9.768  11.310  18.158  0.00  0.00    +0.000 A 
ATOM      8  C   UNL     1      10.356  12.556  18.427  0.00  0.00    +0.000 A 
BRANCH   3   9
ATOM      9  C   UNL     1      11.161  14.325  19.998  0.00  0.00    +0.000 C 
ATOM     10  O   UNL     1      10.656  15.044  20.853  0.00  0.00    +0.000 OA
BRANCH   9  11
ATOM     11  C   UNL     1      12.333  14.779  19.143  0.00  0.00    +0.000 C 
BRANCH  11  13
ATOM     12  C   UNL     1      11.206  16.067  17.329  0.00  0.00    +0.000 C 
ATOM     13  C   UNL     1      12.118  16.160  18.539  0.00  0.00    +0.000 C 
ENDBRANCH  11  13
ENDBRANCH   9  11
ENDBRANCH   3   9
ENDBRANCH   2   6
ENDBRANCH   1   2
BRANCH   1  14
ATOM     14  C   UNL     1       7.782   7.477  17.931  0.00  0.00    +0.000 C 
BRANCH  14  15
ATOM     15  C   UNL     1       6.452   7.190  17.234  0.00  0.00    +0.000 C 
BRANCH  15  16
ATOM     16  N   UNL     1       6.366   5.854  16.628  0.00  0.00    +0.000 NA
ATOM     17  C   UNL     1       6.980   4.788  17.450  0.00  0.00    +0.000 C 
ATOM     18  C   UNL     1       6.218   4.444  18.739  0.00  0.00    +0.000 C 
ATOM     19  N   UNL     1       4.807   4.183  18.489  0.00  0.00    +0.000 N 
ATOM     20  C   UNL     1       4.146   3.296  19.315  0.00  0.00    +0.000 C 
ATOM     21  O   UNL     1       4.692   2.657  20.206  0.00  0.00    +0.000 OA
ATOM     22  C   UNL     1       4.112   5.087  17.572  0.00  0.00    +0.000 C 
ATOM     23  C   UNL     1       4.964   5.476  16.346  0.00  0.00    +0.000 C 
BRANCH  20  24
ATOM     24  O   UNL     1       2.842   3.137  18.959  0.00  0.00    +0.000 OA
BRANCH  24  25
ATOM     25  C   UNL     1       1.910   3.821  19.804  0.00  0.00    +0.000 C 
ATOM     26  C   UNL     1       1.223   2.784  20.679  0.00  0.00    +0.000 C 
ENDBRANCH  24  25
ENDBRANCH  20  24
ENDBRANCH  15  16
ENDBRANCH  14  15
ENDBRANCH   1  14
TORSDOF 10
ENDMDL
MODEL 2
REMARK VINA RESULT:      -6.8      5.490      8.333
REMARK  Name = 
REMARK  12 active torsions:
REMARK  status: ('A' for Active; 'I' for Inactive)
REMARK    1  A    between atoms: C_1  and  C_2
REMARK    2  A    between atoms: C_2  and  C_3
REMARK    3  A    between atoms: C_3  and  C_4
REMARK    4  A    between atoms: C_4  and  C_6
REMARK    5  A    between atoms: C_9  and  O_10
REMARK    6  A    between atoms: O_10  and  C_11
REMARK    7  A    between atoms: C_11  and  C_12
REMARK    8  A    between atoms: C_12  and  C_13
REMARK    9  A    between atoms: C_13  and  N_14
REMARK   10  A    between atoms: C_18  and  O_20
REMARK   11  A    between atoms: O_20  and  C_21
REMARK   12  A    between atoms: C_21  and  C_22
REMARK                            x       y       z     vdW  Elec       q    Type
REMARK                         _______ _______ _______ _____ _____    ______ ____
ROOT
ATOM      1  C   UNL     1       1.763   5.341  21.056  0.00  0.00    +0.000 C 
ENDROOT
BRANCH   1   2
ATOM      2  O   UNL     1       2.355   6.082  19.985  0.00  0.00    +0.000 OA
BRANCH   2   6
ATOM      3  C   UNL     1       0.939   9.987  19.728  0.00  0.00    +0.000 A 
ATOM      4  C   UNL     1       0.825   9.225  20.894  0.00  0.00    +0.000 A 
ATOM      5  C   UNL     1       1.309   7.920  20.929  0.00  0.00    +0.000 A 
ATOM      6  C   UNL     1       1.915   7.360  19.806  0.00  0.00    +0.000 A 
ATOM      7  C   UNL     1       2.078   8.121  18.654  0.00  0.00    +0.000 A 
ATOM      8  C   UNL     1       1.587   9.435  18.612  0.00  0.00    +0.000 A 
BRANCH   3   9
ATOM      9  C   UNL     1       0.376  11.374  19.622  0.00  0.00    +0.000 C 
ATOM     10  O   UNL     1       0.511  12.149  20.562  0.00  0.00    +0.000 OA
BRANCH   9  11
ATOM     11  C   UNL     1      -0.380  11.752  18.358  0.00  0.00    +0.000 C 
BRANCH  11  13
ATOM     12  C   UNL     1      -2.183  10.133  17.765  0.00  0.00    +0.000 C 
ATOM     13  C   UNL     1      -1.869  11.448  18.454  0.00  0.00    +0.000 C 
ENDBRANCH  11  13
ENDBRANCH   9  11
ENDBRANCH   3   9
ENDBRANCH   2   6
ENDBRANCH   1   2
BRANCH   1  14
ATOM     14  C   UNL     1       2.346   3.934  20.963  0.00  0.00    +0.000 C 
BRANCH  14  15
ATOM     15  C   UNL     1       1.868   3.137  19.748  0.00  0.00    +0.000 C 
BRANCH  15  16
ATOM     16  N   UNL     1       2.867   2.204  19.210  0.00  0.00    +0.000 NA
ATOM     17  C   UNL     1       2.869   2.122  17.732  0.00  0.00    +0.000 C 
ATOM     18  C   UNL     1       3.396   3.375  17.015  0.00  0.00    +0.000 C 
ATOM     19  N   UNL     1       4.690   3.799  17.530  0.00  0.00    +0.000 N 
ATOM     20  C   UNL     1       5.563   4.436  16.670  0.00  0.00    +0.000 C 
ATOM     21  O   UNL     1       5.344   4.605  15.477  0.00  0.00    +0.000 OA
ATOM     22  C   UNL     1       4.869   3.787  18.982  0.00  0.00    +0.000 C 
ATOM     23  C   UNL     1       4.233   2.555  19.658  0.00  0.00    +0.000 C 
BRANCH  20  24
ATOM     24  O   UNL     1       6.735   4.762  17.279  0.00  0.00    +0.000 OA
BRANCH  24  25
ATOM     25  C   UNL     1       7.072   6.153  17.209  0.00  0.00    +0.000 C 
ATOM     26  C   UNL     1       7.778   6.529  18.502  0.00  0.00    +0.000 C 
ENDBRANCH  24  25
ENDBRANCH  20  24
ENDBRANCH  15  16
ENDBRANCH  14  15
ENDBRANCH   1  14
TORSDOF 10
ENDMDL
MODEL 3
REMARK VINA RESULT:      -6.7      5.574      7.754
REMARK  Name = 
REMARK  12 active torsions:
REMARK  status: ('A' for Active; 'I' for Inactive)
REMARK    1  A    between atoms: C_1  and  C_2
REMARK    2  A    between atoms: C_2  and  C_3
REMARK    3  A    between atoms: C_3  and  C_4
REMARK    4  A    between atoms: C_4  and  C_6
REMARK    5  A    between atoms: C_9  and  O_10
REMARK    6  A    between atoms: O_10  and  C_11
REMARK    7  A    between atoms: C_11  and  C_12
REMARK    8  A    between atoms: C_12  and  C_13
REMARK    9  A    between atoms: C_13  and  N_14
REMARK   10  A    between atoms: C_18  and  O_20
REMARK   11  A    between atoms: O_20  and  C_21
REMARK   12  A    between atoms: C_21  and  C_22
REMARK                            x       y       z     vdW  Elec       q    Type
REMARK                         _______ _______ _______ _____ _____    ______ ____
ROOT
ATOM      1  C   UNL     1       1.724   5.470  20.869  0.00  0.00    +0.000 C 
ENDROOT
BRANCH   1   2
ATOM      2  O   UNL     1       2.525   6.143  19.893  0.00  0.00    +0.000 OA
BRANCH   2   6
ATOM      3  C   UNL     1       1.194   9.990  19.024  0.00  0.00    +0.000 A 
ATOM      4  C   UNL     1       1.033   9.409  20.286  0.00  0.00    +0.000 A 
ATOM      5  C   UNL     1       1.490   8.116  20.526  0.00  0.00    +0.000 A 
ATOM      6  C   UNL     1       2.116   7.387  19.516  0.00  0.00    +0.000 A 
ATOM      7  C   UNL     1       2.325   7.969  18.270  0.00  0.00    +0.000 A 
ATOM      8  C   UNL     1       1.861   9.269  18.021  0.00  0.00    +0.000 A 
BRANCH   3   9
ATOM      9  C   UNL     1       0.662  11.354  18.700  0.00  0.00    +0.000 C 
ATOM     10  O   UNL     1      -0.533  11.491  18.461  0.00  0.00    +0.000 OA
BRANCH   9  11
ATOM     11  C   UNL     1       1.641  12.516  18.642  0.00  0.00    +0.000 C 
BRANCH  11  13
ATOM     12  C   UNL     1       0.908  14.279  20.247  0.00  0.00    +0.000 C 
ATOM     13  C   UNL     1       1.886  13.143  20.007  0.00  0.00    +0.000 C 
ENDBRANCH  11  13
ENDBRANCH   9  11
ENDBRANCH   3   9
ENDBRANCH   2   6
ENDBRANCH   1   2
BRANCH   1  14
ATOM     14  C   UNL     1       2.275   4.049  20.954  0.00  0.00    +0.000 C 
BRANCH  14  15
ATOM     15  C   UNL     1       1.722   3.100  19.890  0.00  0.00    +0.000 C 
BRANCH  15  16
ATOM     16  N   UNL     1       2.711   2.152  19.357  0.00  0.00    +0.000 NA
ATOM     17  C   UNL     1       2.687   2.035  17.883  0.00  0.00    +0.000 C 
ATOM     18  C   UNL     1       3.203   3.269  17.126  0.00  0.00    +0.000 C 
ATOM     19  N   UNL     1       4.507   3.704  17.609  0.00  0.00    +0.000 N 
ATOM     20  C   UNL     1       5.366   4.318  16.720  0.00  0.00    +0.000 C 
ATOM     21  O   UNL     1       5.127   4.459  15.527  0.00  0.00    +0.000 OA
ATOM     22  C   UNL     1       4.710   3.726  19.058  0.00  0.00    +0.000 C 
ATOM     23  C   UNL     1       4.085   2.511  19.774  0.00  0.00    +0.000 C 
BRANCH  20  24
ATOM     24  O   UNL     1       6.549   4.658  17.300  0.00  0.00    +0.000 OA
BRANCH  24  25
ATOM     25  C   UNL     1       7.181   5.808  16.727  0.00  0.00    +0.000 C 
ATOM     26  C   UNL     1       7.388   6.828  17.835  0.00  0.00    +0.000 C 
ENDBRANCH  24  25
ENDBRANCH  20  24
ENDBRANCH  15  16
ENDBRANCH  14  15
ENDBRANCH   1  14
TORSDOF 10
ENDMDL
MODEL 4
REMARK VINA RESULT:      -6.7      2.723     11.291
REMARK  Name = 
REMARK  12 active torsions:
REMARK  status: ('A' for Active; 'I' for Inactive)
REMARK    1  A    between atoms: C_1  and  C_2
REMARK    2  A    between atoms: C_2  and  C_3
REMARK    3  A    between atoms: C_3  and  C_4
REMARK    4  A    between atoms: C_4  and  C_6
REMARK    5  A    between atoms: C_9  and  O_10
REMARK    6  A    between atoms: O_10  and  C_11
REMARK    7  A    between atoms: C_11  and  C_12
REMARK    8  A    between atoms: C_12  and  C_13
REMARK    9  A    between atoms: C_13  and  N_14
REMARK   10  A    between atoms: C_18  and  O_20
REMARK   11  A    between atoms: O_20  and  C_21
REMARK   12  A    between atoms: C_21  and  C_22
REMARK                            x       y       z     vdW  Elec       q    Type
REMARK                         _______ _______ _______ _____ _____    ______ ____
ROOT
ATOM      1  C   UNL     1       7.571   8.083  17.558  0.00  0.00    +0.000 C 
ENDROOT
BRANCH   1   2
ATOM      2  O   UNL     1       7.654   6.681  17.830  0.00  0.00    +0.000 OA
BRANCH   2   6
ATOM      3  C   UNL     1       4.038   4.621  17.900  0.00  0.00    +0.000 A 
ATOM      4  C   UNL     1       4.620   5.070  16.711  0.00  0.00    +0.000 A 
ATOM      5  C   UNL     1       5.829   5.761  16.740  0.00  0.00    +0.000 A 
ATOM      6  C   UNL     1       6.474   6.008  17.950  0.00  0.00    +0.000 A 
ATOM      7  C   UNL     1       5.931   5.527  19.136  0.00  0.00    +0.000 A 
ATOM      8  C   UNL     1       4.710   4.836  19.113  0.00  0.00    +0.000 A 
BRANCH   3   9
ATOM      9  C   UNL     1       2.707   3.929  17.925  0.00  0.00    +0.000 C 
ATOM     10  O   UNL     1       2.340   3.299  16.940  0.00  0.00    +0.000 OA
BRANCH   9  11
ATOM     11  C   UNL     1       1.842   4.072  19.167  0.00  0.00    +0.000 C 
BRANCH  11  13
ATOM     12  C   UNL     1       1.661   2.993  21.409  0.00  0.00    +0.000 C 
ATOM     13  C   UNL     1       1.662   2.755  19.910  0.00  0.00    +0.000 C 
ENDBRANCH  11  13
ENDBRANCH   9  11
ENDBRANCH   3   9
ENDBRANCH   2   6
ENDBRANCH   1   2
BRANCH   1  14
ATOM     14  C   UNL     1       8.571   8.751  18.497  0.00  0.00    +0.000 C 
BRANCH  14  15
ATOM     15  C   UNL     1       8.837  10.224  18.183  0.00  0.00    +0.000 C 
BRANCH  15  16
ATOM     16  N   UNL     1       9.752  10.884  19.124  0.00  0.00    +0.000 NA
ATOM     17  C   UNL     1      11.037  11.292  18.517  0.00  0.00    +0.000 C 
ATOM     18  C   UNL     1      10.942  12.458  17.521  0.00  0.00    +0.000 C 
ATOM     19  N   UNL     1      10.225  13.598  18.076  0.00  0.00    +0.000 N 
ATOM     20  C   UNL     1      10.567  14.863  17.644  0.00  0.00    +0.000 C 
ATOM     21  O   UNL     1      11.488  15.095  16.870  0.00  0.00    +0.000 OA
ATOM     22  C   UNL     1       9.004  13.317  18.831  0.00  0.00    +0.000 C 
ATOM     23  C   UNL     1       9.128  12.077  19.740  0.00  0.00    +0.000 C 
BRANCH  20  24
ATOM     24  O   UNL     1       9.830  15.831  18.254  0.00  0.00    +0.000 OA
BRANCH  24  25
ATOM     25  C   UNL     1      10.600  16.780  19.001  0.00  0.00    +0.000 C 
ATOM     26  C   UNL     1      10.427  18.141  18.347  0.00  0.00    +0.000 C 
ENDBRANCH  24  25
ENDBRANCH  20  24
ENDBRANCH  15  16
ENDBRANCH  14  15
ENDBRANCH   1  14
TORSDOF 10
ENDMDL
MODEL 5
REMARK VINA RESULT:      -6.7      1.121      1.672
REMARK  Name = 
REMARK  12 active torsions:
REMARK  status: ('A' for Active; 'I' for Inactive)
REMARK    1  A    between atoms: C_1  and  C_2
REMARK    2  A    between atoms: C_2  and  C_3
REMARK    3  A    between atoms: C_3  and  C_4
REMARK    4  A    between atoms: C_4  and  C_6
REMARK    5  A    between atoms: C_9  and  O_10
REMARK    6  A    between atoms: O_10  and  C_11
REMARK    7  A    between atoms: C_11  and  C_12
REMARK    8  A    between atoms: C_12  and  C_13
REMARK    9  A    between atoms: C_13  and  N_14
REMARK   10  A    between atoms: C_18  and  O_20
REMARK   11  A    between atoms: O_20  and  C_21
REMARK   12  A    between atoms: C_21  and  C_22
REMARK                            x       y       z     vdW  Elec       q    Type
REMARK                         _______ _______ _______ _____ _____    ______ ____
ROOT
ATOM      1  C   UNL     1       8.099   8.589  17.820  0.00  0.00    +0.000 C 
ENDROOT
BRANCH   1   2
ATOM      2  O   UNL     1       8.849   8.931  18.989  0.00  0.00    +0.000 OA
BRANCH   2   6
ATOM      3  C   UNL     1      10.187  12.872  18.976  0.00  0.00    +0.000 A 
ATOM      4  C   UNL     1      10.035  12.129  17.802  0.00  0.00    +0.000 A 
ATOM      5  C   UNL     1       9.590  10.811  17.858  0.00  0.00    +0.000 A 
ATOM      6  C   UNL     1       9.287  10.218  19.082  0.00  0.00    +0.000 A 
ATOM      7  C   UNL     1       9.388  10.959  20.255  0.00  0.00    +0.000 A 
ATOM      8  C   UNL     1       9.842  12.286  20.204  0.00  0.00    +0.000 A 
BRANCH   3   9
ATOM      9  C   UNL     1      10.724  14.273  18.971  0.00  0.00    +0.000 C 
ATOM     10  O   UNL     1      11.135  14.761  20.017  0.00  0.00    +0.000 OA
BRANCH   9  11
ATOM     11  C   UNL     1      10.699  15.051  17.665  0.00  0.00    +0.000 C 
BRANCH  11  13
ATOM     12  C   UNL     1      10.673  17.543  17.556  0.00  0.00    +0.000 C 
ATOM     13  C   UNL     1       9.826  16.296  17.743  0.00  0.00    +0.000 C 
ENDBRANCH  11  13
ENDBRANCH   9  11
ENDBRANCH   3   9
ENDBRANCH   2   6
ENDBRANCH   1   2
BRANCH   1  14
ATOM     14  C   UNL     1       7.567   7.179  18.062  0.00  0.00    +0.000 C 
BRANCH  14  15
ATOM     15  C   UNL     1       7.263   6.397  16.784  0.00  0.00    +0.000 C 
BRANCH  15  16
ATOM     16  N   UNL     1       5.854   6.449  16.368  0.00  0.00    +0.000 NA
ATOM     17  C   UNL     1       5.410   5.250  15.623  0.00  0.00    +0.000 C 
ATOM     18  C   UNL     1       5.295   3.970  16.465  0.00  0.00    +0.000 C 
ATOM     19  N   UNL     1       4.506   4.175  17.672  0.00  0.00    +0.000 N 
ATOM     20  C   UNL     1       3.790   3.109  18.178  0.00  0.00    +0.000 C 
ATOM     21  O   UNL     1       3.721   2.013  17.635  0.00  0.00    +0.000 OA
ATOM     22  C   UNL     1       4.747   5.404  18.429  0.00  0.00    +0.000 C 
ATOM     23  C   UNL     1       4.953   6.638  17.526  0.00  0.00    +0.000 C 
BRANCH  20  24
ATOM     24  O   UNL     1       3.089   3.445  19.295  0.00  0.00    +0.000 OA
BRANCH  24  25
ATOM     25  C   UNL     1       2.120   2.472  19.702  0.00  0.00    +0.000 C 
ATOM     26  C   UNL     1       0.828   3.205  20.027  0.00  0.00    +0.000 C 
ENDBRANCH  24  25
ENDBRANCH  20  24
ENDBRANCH  15  16
ENDBRANCH  14  15
ENDBRANCH   1  14
TORSDOF 10
ENDMDL
MODEL 6
REMARK VINA RESULT:      -6.7      6.511      8.768
REMARK  Name = 
REMARK  12 active torsions:
REMARK  status: ('A' for Active; 'I' for Inactive)
REMARK    1  A    between atoms: C_1  and  C_2
REMARK    2  A    between atoms: C_2  and  C_3
REMARK    3  A    between atoms: C_3  and  C_4
REMARK    4  A    between atoms: C_4  and  C_6
REMARK    5  A    between atoms: C_9  and  O_10
REMARK    6  A    between atoms: O_10  and  C_11
REMARK    7  A    between atoms: C_11  and  C_12
REMARK    8  A    between atoms: C_12  and  C_13
REMARK    9  A    between atoms: C_13  and  N_14
REMARK   10  A    between atoms: C_18  and  O_20
REMARK   11  A    between atoms: O_20  and  C_21
REMARK   12  A    between atoms: C_21  and  C_22
REMARK                            x       y       z     vdW  Elec       q    Type
REMARK                         _______ _______ _______ _____ _____    ______ ____
ROOT
ATOM      1  C   UNL     1       1.870   6.144  19.924  0.00  0.00    +0.000 C 
ENDROOT
BRANCH   1   2
ATOM      2  O   UNL     1       2.398   7.461  20.110  0.00  0.00    +0.000 OA
BRANCH   2   6
ATOM      3  C   UNL     1      -0.009  10.648  18.940  0.00  0.00    +0.000 A 
ATOM      4  C   UNL     1      -0.075  10.090  20.220  0.00  0.00    +0.000 A 
ATOM      5  C   UNL     1       0.747   9.020  20.562  0.00  0.00    +0.000 A 
ATOM      6  C   UNL     1       1.647   8.495  19.637  0.00  0.00    +0.000 A 
ATOM      7  C   UNL     1       1.758   9.069  18.375  0.00  0.00    +0.000 A 
ATOM      8  C   UNL     1       0.927  10.144  18.023  0.00  0.00    +0.000 A 
BRANCH   3   9
ATOM      9  C   UNL     1      -0.919  11.759  18.505  0.00  0.00    +0.000 C 
ATOM     10  O   UNL     1      -0.727  12.892  18.930  0.00  0.00    +0.000 OA
BRANCH   9  11
ATOM     11  C   UNL     1      -2.075  11.423  17.576  0.00  0.00    +0.000 C 
BRANCH  11  13
ATOM     12  C   UNL     1      -2.790   9.614  16.016  0.00  0.00    +0.000 C 
ATOM     13  C   UNL     1      -2.276   9.923  17.410  0.00  0.00    +0.000 C 
ENDBRANCH  11  13
ENDBRANCH   9  11
ENDBRANCH   3   9
ENDBRANCH   2   6
ENDBRANCH   1   2
BRANCH   1  14
ATOM     14  C   UNL     1       3.033   5.188  20.174  0.00  0.00    +0.000 C 
BRANCH  14  15
ATOM     15  C   UNL     1       4.133   5.251  19.113  0.00  0.00    +0.000 C 
BRANCH  15  16
ATOM     16  N   UNL     1       3.675   5.723  17.799  0.00  0.00    +0.000 NA
ATOM     17  C   UNL     1       4.576   6.720  17.180  0.00  0.00    +0.000 C 
ATOM     18  C   UNL     1       5.928   6.165  16.704  0.00  0.00    +0.000 C 
ATOM     19  N   UNL     1       5.772   4.986  15.863  0.00  0.00    +0.000 N 
ATOM     20  C   UNL     1       6.716   4.748  14.884  0.00  0.00    +0.000 C 
ATOM     21  O   UNL     1       7.644   5.507  14.632  0.00  0.00    +0.000 OA
ATOM     22  C   UNL     1       4.798   3.983  16.291  0.00  0.00    +0.000 C 
ATOM     23  C   UNL     1       3.500   4.601  16.851  0.00  0.00    +0.000 C 
BRANCH  20  24
ATOM     24  O   UNL     1       6.439   3.626  14.166  0.00  0.00    +0.000 OA
BRANCH  24  25
ATOM     25  C   UNL     1       6.539   3.790  12.747  0.00  0.00    +0.000 C 
ATOM     26  C   UNL     1       5.262   3.250  12.123  0.00  0.00    +0.000 C 
ENDBRANCH  24  25
ENDBRANCH  20  24
ENDBRANCH  15  16
ENDBRANCH  14  15
ENDBRANCH   1  14
TORSDOF 10
ENDMDL
MODEL 7
REMARK VINA RESULT:      -6.7      2.634     10.997
REMARK  Name = 
REMARK  12 active torsions:
REMARK  status: ('A' for Active; 'I' for Inactive)
REMARK    1  A    between atoms: C_1  and  C_2
REMARK    2  A    between atoms: C_2  and  C_3
REMARK    3  A    between atoms: C_3  and  C_4
REMARK    4  A    between atoms: C_4  and  C_6
REMARK    5  A    between atoms: C_9  and  O_10
REMARK    6  A    between atoms: O_10  and  C_11
REMARK    7  A    between atoms: C_11  and  C_12
REMARK    8  A    between atoms: C_12  and  C_13
REMARK    9  A    between atoms: C_13  and  N_14
REMARK   10  A    between atoms: C_18  and  O_20
REMARK   11  A    between atoms: O_20  and  C_21
REMARK   12  A    between atoms: C_21  and  C_22
REMARK                            x       y       z     vdW  Elec       q    Type
REMARK                         _______ _______ _______ _____ _____    ______ ____
ROOT
ATOM      1  C   UNL     1       7.970   7.831  18.097  0.00  0.00    +0.000 C 
ENDROOT
BRANCH   1   2
ATOM      2  O   UNL     1       7.005   7.555  17.076  0.00  0.00    +0.000 OA
BRANCH   2   6
ATOM      3  C   UNL     1       4.573   4.307  18.004  0.00  0.00    +0.000 A 
ATOM      4  C   UNL     1       5.602   4.737  18.848  0.00  0.00    +0.000 A 
ATOM      5  C   UNL     1       6.393   5.826  18.490  0.00  0.00    +0.000 A 
ATOM      6  C   UNL     1       6.167   6.502  17.293  0.00  0.00    +0.000 A 
ATOM      7  C   UNL     1       5.118   6.115  16.466  0.00  0.00    +0.000 A 
ATOM      8  C   UNL     1       4.322   5.015  16.818  0.00  0.00    +0.000 A 
BRANCH   3   9
ATOM      9  C   UNL     1       3.737   3.102  18.316  0.00  0.00    +0.000 C 
ATOM     10  O   UNL     1       4.167   2.259  19.095  0.00  0.00    +0.000 OA
BRANCH   9  11
ATOM     11  C   UNL     1       2.395   2.953  17.617  0.00  0.00    +0.000 C 
BRANCH  11  13
ATOM     12  C   UNL     1       1.204   3.861  19.612  0.00  0.00    +0.000 C 
ATOM     13  C   UNL     1       1.247   2.736  18.593  0.00  0.00    +0.000 C 
ENDBRANCH  11  13
ENDBRANCH   9  11
ENDBRANCH   3   9
ENDBRANCH   2   6
ENDBRANCH   1   2
BRANCH   1  14
ATOM     14  C   UNL     1       8.334   9.304  17.941  0.00  0.00    +0.000 C 
BRANCH  14  15
ATOM     15  C   UNL     1       8.965   9.928  19.186  0.00  0.00    +0.000 C 
BRANCH  15  16
ATOM     16  N   UNL     1      10.118  10.795  18.905  0.00  0.00    +0.000 NA
ATOM     17  C   UNL     1       9.896  11.736  17.785  0.00  0.00    +0.000 C 
ATOM     18  C   UNL     1       8.895  12.866  18.077  0.00  0.00    +0.000 C 
ATOM     19  N   UNL     1       9.206  13.568  19.315  0.00  0.00    +0.000 N 
ATOM     20  C   UNL     1       8.870  14.903  19.415  0.00  0.00    +0.000 C 
ATOM     21  O   UNL     1       8.386  15.556  18.498  0.00  0.00    +0.000 OA
ATOM     22  C   UNL     1       9.586  12.753  20.469  0.00  0.00    +0.000 C 
ATOM     23  C   UNL     1      10.512  11.576  20.099  0.00  0.00    +0.000 C 
BRANCH  20  24
ATOM     24  O   UNL     1       9.230  15.434  20.615  0.00  0.00    +0.000 OA
BRANCH  24  25
ATOM     25  C   UNL     1      10.087  16.579  20.523  0.00  0.00    +0.000 C 
ATOM     26  C   UNL     1      11.513  16.082  20.354  0.00  0.00    +0.000 C 
ENDBRANCH  24  25
ENDBRANCH  20  24
ENDBRANCH  15  16
ENDBRANCH  14  15
ENDBRANCH   1  14
TORSDOF 10
ENDMDL
MODEL 8
REMARK VINA RESULT:      -6.6      5.096      7.620
REMARK  Name = 
REMARK  12 active torsions:
REMARK  status: ('A' for Active; 'I' for Inactive)
REMARK    1  A    between atoms: C_1  and  C_2
REMARK    2  A    between atoms: C_2  and  C_3
REMARK    3  A    between atoms: C_3  and  C_4
REMARK    4  A    between atoms: C_4  and  C_6
REMARK    5  A    between atoms: C_9  and  O_10
REMARK    6  A    between atoms: O_10  and  C_11
REMARK    7  A    between atoms: C_11  and  C_12
REMARK    8  A    between atoms: C_12  and  C_13
REMARK    9  A    between atoms: C_13  and  N_14
REMARK   10  A    between atoms: C_18  and  O_20
REMARK   11  A    between atoms: O_20  and  C_21
REMARK   12  A    between atoms: C_21  and  C_22
REMARK                            x       y       z     vdW  Elec       q    Type
REMARK                         _______ _______ _______ _____ _____    ______ ____
ROOT
ATOM      1  C   UNL     1       1.859   5.540  20.541  0.00  0.00    +0.000 C 
ENDROOT
BRANCH   1   2
ATOM      2  O   UNL     1       2.530   6.458  19.672  0.00  0.00    +0.000 OA
BRANCH   2   6
ATOM      3  C   UNL     1       0.941  10.254  19.051  0.00  0.00    +0.000 A 
ATOM      4  C   UNL     1       1.553   9.523  18.029  0.00  0.00    +0.000 A 
ATOM      5  C   UNL     1       2.076   8.258  18.288  0.00  0.00    +0.000 A 
ATOM      6  C   UNL     1       1.992   7.705  19.564  0.00  0.00    +0.000 A 
ATOM      7  C   UNL     1       1.344   8.401  20.580  0.00  0.00    +0.000 A 
ATOM      8  C   UNL     1       0.821   9.678  20.326  0.00  0.00    +0.000 A 
BRANCH   3   9
ATOM      9  C   UNL     1       0.421  11.645  18.836  0.00  0.00    +0.000 C 
ATOM     10  O   UNL     1      -0.685  11.800  18.333  0.00  0.00    +0.000 OA
BRANCH   9  11
ATOM     11  C   UNL     1       1.312  12.816  19.219  0.00  0.00    +0.000 C 
BRANCH  11  13
ATOM     12  C   UNL     1       3.372  14.089  18.619  0.00  0.00    +0.000 C 
ATOM     13  C   UNL     1       2.225  13.253  18.081  0.00  0.00    +0.000 C 
ENDBRANCH  11  13
ENDBRANCH   9  11
ENDBRANCH   3   9
ENDBRANCH   2   6
ENDBRANCH   1   2
BRANCH   1  14
ATOM     14  C   UNL     1       1.383   4.395  19.651  0.00  0.00    +0.000 C 
BRANCH  14  15
ATOM     15  C   UNL     1       2.208   4.208  18.377  0.00  0.00    +0.000 C 
BRANCH  15  16
ATOM     16  N   UNL     1       3.171   3.101  18.440  0.00  0.00    +0.000 NA
ATOM     17  C   UNL     1       3.874   2.850  17.162  0.00  0.00    +0.000 C 
ATOM     18  C   UNL     1       4.882   3.935  16.754  0.00  0.00    +0.000 C 
ATOM     19  N   UNL     1       5.816   4.249  17.827  0.00  0.00    +0.000 N 
ATOM     20  C   UNL     1       7.088   4.667  17.490  0.00  0.00    +0.000 C 
ATOM     21  O   UNL     1       7.505   4.724  16.340  0.00  0.00    +0.000 OA
ATOM     22  C   UNL     1       5.265   4.381  19.176  0.00  0.00    +0.000 C 
ATOM     23  C   UNL     1       4.186   3.325  19.494  0.00  0.00    +0.000 C 
BRANCH  20  24
ATOM     24  O   UNL     1       7.855   4.910  18.587  0.00  0.00    +0.000 OA
BRANCH  24  25
ATOM     25  C   UNL     1       8.153   6.294  18.807  0.00  0.00    +0.000 C 
ATOM     26  C   UNL     1       7.343   7.110  17.814  0.00  0.00    +0.000 C 
ENDBRANCH  24  25
ENDBRANCH  20  24
ENDBRANCH  15  16
ENDBRANCH  14  15
ENDBRANCH   1  14
TORSDOF 10
ENDMDL
MODEL 9
REMARK VINA RESULT:      -6.6      4.726      8.757
REMARK  Name = 
REMARK  12 active torsions:
REMARK  status: ('A' for Active; 'I' for Inactive)
REMARK    1  A    between atoms: C_1  and  C_2
REMARK    2  A    between atoms: C_2  and  C_3
REMARK    3  A    between atoms: C_3  and  C_4
REMARK    4  A    between atoms: C_4  and  C_6
REMARK    5  A    between atoms: C_9  and  O_10
REMARK    6  A    between atoms: O_10  and  C_11
REMARK    7  A    between atoms: C_11  and  C_12
REMARK    8  A    between atoms: C_12  and  C_13
REMARK    9  A    between atoms: C_13  and  N_14
REMARK   10  A    between atoms: C_18  and  O_20
REMARK   11  A    between atoms: O_20  and  C_21
REMARK   12  A    between atoms: C_21  and  C_22
REMARK                            x       y       z     vdW  Elec       q    Type
REMARK                         _______ _______ _______ _____ _____    ______ ____
ROOT
ATOM      1  C   UNL     1       1.119   2.764  19.602  0.00  0.00    +0.000 C 
ENDROOT
BRANCH   1   2
ATOM      2  O   UNL     1       2.435   2.202  19.612  0.00  0.00    +0.000 OA
BRANCH   2   6
ATOM      3  C   UNL     1       5.256   4.433  17.517  0.00  0.00    +0.000 A 
ATOM      4  C   UNL     1       4.069   3.986  16.929  0.00  0.00    +0.000 A 
ATOM      5  C   UNL     1       3.158   3.237  17.670  0.00  0.00    +0.000 A 
ATOM      6  C   UNL     1       3.416   2.928  19.004  0.00  0.00    +0.000 A 
ATOM      7  C   UNL     1       4.570   3.405  19.616  0.00  0.00    +0.000 A 
ATOM      8  C   UNL     1       5.494   4.155  18.872  0.00  0.00    +0.000 A 
BRANCH   3   9
ATOM      9  C   UNL     1       6.296   5.187  16.742  0.00  0.00    +0.000 C 
ATOM     10  O   UNL     1       7.007   4.583  15.947  0.00  0.00    +0.000 OA
BRANCH   9  11
ATOM     11  C   UNL     1       6.453   6.677  17.005  0.00  0.00    +0.000 C 
BRANCH  11  13
ATOM     12  C   UNL     1       7.993   8.487  17.761  0.00  0.00    +0.000 C 
ATOM     13  C   UNL     1       7.699   6.999  17.818  0.00  0.00    +0.000 C 
ENDBRANCH  11  13
ENDBRANCH   9  11
ENDBRANCH   3   9
ENDBRANCH   2   6
ENDBRANCH   1   2
BRANCH   1  14
ATOM     14  C   UNL     1       1.125   3.859  20.665  0.00  0.00    +0.000 C 
BRANCH  14  15
ATOM     15  C   UNL     1       1.003   5.277  20.104  0.00  0.00    +0.000 C 
BRANCH  15  16
ATOM     16  N   UNL     1       2.106   6.170  20.484  0.00  0.00    +0.000 NA
ATOM     17  C   UNL     1       2.931   6.616  19.340  0.00  0.00    +0.000 C 
ATOM     18  C   UNL     1       2.235   7.596  18.382  0.00  0.00    +0.000 C 
ATOM     19  N   UNL     1       1.640   8.723  19.086  0.00  0.00    +0.000 N 
ATOM     20  C   UNL     1       1.555   9.936  18.432  0.00  0.00    +0.000 C 
ATOM     21  O   UNL     1       2.013  10.142  17.315  0.00  0.00    +0.000 OA
ATOM     22  C   UNL     1       0.913   8.432  20.322  0.00  0.00    +0.000 C 
ATOM     23  C   UNL     1       1.610   7.370  21.197  0.00  0.00    +0.000 C 
BRANCH  20  24
ATOM     24  O   UNL     1       0.993  10.901  19.210  0.00  0.00    +0.000 OA
BRANCH  24  25
ATOM     25  C   UNL     1       1.693  12.151  19.200  0.00  0.00    +0.000 C 
ATOM     26  C   UNL     1       0.770  13.198  18.598  0.00  0.00    +0.000 C 
ENDBRANCH  24  25
ENDBRANCH  20  24
ENDBRANCH  15  16
ENDBRANCH  14  15
ENDBRANCH   1  14
TORSDOF 10
ENDMDL
