MODEL 1
REMARK VINA RESULT:      -7.3      0.000      0.000
REMARK  Name = 
REMARK  10 active torsions:
REMARK  status: ('A' for Active; 'I' for Inactive)
REMARK    1  A    between atoms: C_1  and  O_2
REMARK    2  A    between atoms: O_2  and  C_3
REMARK    3  A    between atoms: C_3  and  C_4
REMARK    4  A    between atoms: C_5  and  C_6
REMARK    5  A    between atoms: C_8  and  N_9
REMARK    6  A    between atoms: N_9  and  C_10
REMARK    7  A    between atoms: C_10  and  C_11
REMARK    8  A    between atoms: C_11  and  C_12
REMARK    9  A    between atoms: C_19  and  C_20
REMARK   10  A    between atoms: C_21  and  N_22
REMARK                            x       y       z     vdW  Elec       q    Type
REMARK                         _______ _______ _______ _____ _____    ______ ____
ROOT
ATOM      1  C   UNL     1       4.919   4.967  18.154  0.00  0.00    +0.000 A 
ATOM      2  C   UNL     1       6.151   5.520  17.717  0.00  0.00    +0.000 A 
ATOM      3  C   UNL     1       6.221   6.857  17.282  0.00  0.00    +0.000 A 
ATOM      4  N   UNL     1       5.112   7.628  17.290  0.00  0.00    +0.000 NA
ATOM      5  C   UNL     1       3.913   7.127  17.696  0.00  0.00    +0.000 A 
ATOM      6  C   UNL     1       2.788   8.123  17.666  0.00  0.00    +0.000 C 
ATOM      7  C   UNL     1       3.793   5.815  18.140  0.00  0.00    +0.000 A 
ENDROOT
BRANCH   7   8
ATOM      8  N   UNL     1       2.514   5.358  18.660  0.00  0.00    +0.000 N 
ATOM      9  O   UNL     1       2.333   5.472  19.880  0.00  0.00    +0.000 OA
ATOM     10  O   UNL     1       1.683   4.932  17.848  0.00  0.00    +0.000 OA
ENDBRANCH   7   8
BRANCH   2  11
ATOM     11  C   UNL     1       7.342   4.735  17.766  0.00  0.00    +0.000 C 
ATOM     12  N   UNL     1       8.348   4.148  17.822  0.00  0.00    +0.000 NA
ENDBRANCH   2  11
BRANCH   3  13
ATOM     13  N   UNL     1       7.413   7.475  16.921  0.00  0.00    +0.000 N 
ATOM     14  H   UNL     1       7.789   7.392  15.985  0.00  0.00    +0.000 HD
BRANCH  13  15
ATOM     15  C   UNL     1       8.145   8.216  17.953  0.00  0.00    +0.000 C 
BRANCH  15  16
ATOM     16  C   UNL     1       8.006   9.745  17.861  0.00  0.00    +0.000 C 
BRANCH  16  17
ATOM     17  C   UNL     1       9.193  10.439  18.516  0.00  0.00    +0.000 A 
ATOM     18  C   UNL     1       9.240  10.593  19.909  0.00  0.00    +0.000 A 
ATOM     19  C   UNL     1      10.290  11.287  20.520  0.00  0.00    +0.000 A 
ATOM     20  C   UNL     1      11.310  11.836  19.747  0.00  0.00    +0.000 A 
ATOM     21  C   UNL     1      11.283  11.685  18.362  0.00  0.00    +0.000 A 
ATOM     22  C   UNL     1      10.231  10.992  17.749  0.00  0.00    +0.000 A 
ENDBRANCH  16  17
ENDBRANCH  15  16
ENDBRANCH  13  15
ENDBRANCH   3  13
BRANCH   1  23
ATOM     23  C   UNL     1       4.815   3.521  18.596  0.00  0.00    +0.000 C 
BRANCH  23  25
ATOM     24  C   UNL     1       3.437   1.663  18.163  0.00  0.00    +0.000 C 
ATOM     25  O   UNL     1       4.067   2.816  17.610  0.00  0.00    +0.000 OA
ENDBRANCH  23  25
ENDBRANCH   1  23
TORSDOF 8
ENDMDL
MODEL 2
REMARK VINA RESULT:      -7.3      0.695      1.207
REMARK  Name = 
REMARK  10 active torsions:
REMARK  status: ('A' for Active; 'I' for Inactive)
REMARK    1  A    between atoms: C_1  and  O_2
REMARK    2  A    between atoms: O_2  and  C_3
REMARK    3  A    between atoms: C_3  and  C_4
REMARK    4  A    between atoms: C_5  and  C_6
REMARK    5  A    between atoms: C_8  and  N_9
REMARK    6  A    between atoms: N_9  and  C_10
REMARK    7  A    between atoms: C_10  and  C_11
REMARK    8  A    between atoms: C_11  and  C_12
REMARK    9  A    between atoms: C_19  and  C_20
REMARK   10  A    between atoms: C_21  and  N_22
REMARK                            x       y       z     vdW  Elec       q    Type
REMARK                         _______ _______ _______ _____ _____    ______ ____
ROOT
ATOM      1  C   UNL     1       4.906   4.914  17.990  0.00  0.00    +0.000 A 
ATOM      2  C   UNL     1       6.148   5.494  17.621  0.00  0.00    +0.000 A 
ATOM      3  C   UNL     1       6.231   6.861  17.298  0.00  0.00    +0.000 A 
ATOM      4  N   UNL     1       5.125   7.636  17.350  0.00  0.00    +0.000 NA
ATOM      5  C   UNL     1       3.918   7.110  17.694  0.00  0.00    +0.000 A 
ATOM      6  C   UNL     1       2.797   8.111  17.727  0.00  0.00    +0.000 C 
ATOM      7  C   UNL     1       3.784   5.766  18.026  0.00  0.00    +0.000 A 
ENDROOT
BRANCH   7   8
ATOM      8  N   UNL     1       2.494   5.275  18.485  0.00  0.00    +0.000 N 
ATOM      9  O   UNL     1       2.253   5.383  19.695  0.00  0.00    +0.000 OA
ATOM     10  O   UNL     1       1.713   4.829  17.635  0.00  0.00    +0.000 OA
ENDBRANCH   7   8
BRANCH   2  11
ATOM     11  C   UNL     1       7.335   4.701  17.625  0.00  0.00    +0.000 C 
ATOM     12  N   UNL     1       8.334   4.101  17.598  0.00  0.00    +0.000 NA
ENDBRANCH   2  11
BRANCH   3  13
ATOM     13  N   UNL     1       7.432   7.500  17.009  0.00  0.00    +0.000 N 
ATOM     14  H   UNL     1       7.928   7.327  16.145  0.00  0.00    +0.000 HD
BRANCH  13  15
ATOM     15  C   UNL     1       7.992   8.402  18.020  0.00  0.00    +0.000 C 
BRANCH  15  16
ATOM     16  C   UNL     1       8.171   9.856  17.550  0.00  0.00    +0.000 C 
BRANCH  16  17
ATOM     17  C   UNL     1       9.179  10.590  18.424  0.00  0.00    +0.000 A 
ATOM     18  C   UNL     1      10.223  11.320  17.838  0.00  0.00    +0.000 A 
ATOM     19  C   UNL     1      11.196  11.943  18.627  0.00  0.00    +0.000 A 
ATOM     20  C   UNL     1      11.138  11.848  20.015  0.00  0.00    +0.000 A 
ATOM     21  C   UNL     1      10.102  11.134  20.614  0.00  0.00    +0.000 A 
ATOM     22  C   UNL     1       9.128  10.507  19.825  0.00  0.00    +0.000 A 
ENDBRANCH  16  17
ENDBRANCH  15  16
ENDBRANCH  13  15
ENDBRANCH   3  13
BRANCH   1  23
ATOM     23  C   UNL     1       4.788   3.437  18.310  0.00  0.00    +0.000 C 
BRANCH  23  25
ATOM     24  C   UNL     1       4.108   2.386  20.303  0.00  0.00    +0.000 C 
ATOM     25  O   UNL     1       5.050   3.270  19.700  0.00  0.00    +0.000 OA
ENDBRANCH  23  25
ENDBRANCH   1  23
TORSDOF 8
ENDMDL
MODEL 3
REMARK VINA RESULT:      -7.0      0.709      1.074
REMARK  Name = 
REMARK  10 active torsions:
REMARK  status: ('A' for Active; 'I' for Inactive)
REMARK    1  A    between atoms: C_1  and  O_2
REMARK    2  A    between atoms: O_2  and  C_3
REMARK    3  A    between atoms: C_3  and  C_4
REMARK    4  A    between atoms: C_5  and  C_6
REMARK    5  A    between atoms: C_8  and  N_9
REMARK    6  A    between atoms: N_9  and  C_10
REMARK    7  A    between atoms: C_10  and  C_11
REMARK    8  A    between atoms: C_11  and  C_12
REMARK    9  A    between atoms: C_19  and  C_20
REMARK   10  A    between atoms: C_21  and  N_22
REMARK                            x       y       z     vdW  Elec       q    Type
REMARK                         _______ _______ _______ _____ _____    ______ ____
ROOT
ATOM      1  C   UNL     1       4.910   5.027  18.208  0.00  0.00    +0.000 A 
ATOM      2  C   UNL     1       6.148   5.597  17.810  0.00  0.00    +0.000 A 
ATOM      3  C   UNL     1       6.216   6.937  17.388  0.00  0.00    +0.000 A 
ATOM      4  N   UNL     1       5.099   7.697  17.370  0.00  0.00    +0.000 NA
ATOM      5  C   UNL     1       3.895   7.180  17.739  0.00  0.00    +0.000 A 
ATOM      6  C   UNL     1       2.760   8.164  17.685  0.00  0.00    +0.000 C 
ATOM      7  C   UNL     1       3.776   5.863  18.168  0.00  0.00    +0.000 A 
ENDROOT
BRANCH   7   8
ATOM      8  N   UNL     1       2.488   5.389  18.649  0.00  0.00    +0.000 N 
ATOM      9  O   UNL     1       2.247   5.549  19.853  0.00  0.00    +0.000 OA
ATOM     10  O   UNL     1       1.709   4.903  17.819  0.00  0.00    +0.000 OA
ENDBRANCH   7   8
BRANCH   2  11
ATOM     11  C   UNL     1       7.346   4.824  17.886  0.00  0.00    +0.000 C 
ATOM     12  N   UNL     1       8.314   4.174  17.887  0.00  0.00    +0.000 NA
ENDBRANCH   2  11
BRANCH   3  13
ATOM     13  N   UNL     1       7.411   7.570  17.065  0.00  0.00    +0.000 N 
ATOM     14  H   UNL     1       8.127   7.104  16.524  0.00  0.00    +0.000 HD
BRANCH  13  15
ATOM     15  C   UNL     1       7.631   8.927  17.574  0.00  0.00    +0.000 C 
BRANCH  15  16
ATOM     16  C   UNL     1       8.692   9.031  18.682  0.00  0.00    +0.000 C 
BRANCH  16  17
ATOM     17  C   UNL     1       9.236  10.449  18.783  0.00  0.00    +0.000 A 
ATOM     18  C   UNL     1       8.862  11.418  17.840  0.00  0.00    +0.000 A 
ATOM     19  C   UNL     1       9.405  12.707  17.879  0.00  0.00    +0.000 A 
ATOM     20  C   UNL     1      10.330  13.048  18.864  0.00  0.00    +0.000 A 
ATOM     21  C   UNL     1      10.706  12.100  19.813  0.00  0.00    +0.000 A 
ATOM     22  C   UNL     1      10.164  10.808  19.774  0.00  0.00    +0.000 A 
ENDBRANCH  16  17
ENDBRANCH  15  16
ENDBRANCH  13  15
ENDBRANCH   3  13
BRANCH   1  23
ATOM     23  C   UNL     1       4.809   3.577  18.636  0.00  0.00    +0.000 C 
BRANCH  23  25
ATOM     24  C   UNL     1       3.390   1.787  18.069  0.00  0.00    +0.000 C 
ATOM     25  O   UNL     1       4.199   2.849  17.573  0.00  0.00    +0.000 OA
ENDBRANCH  23  25
ENDBRANCH   1  23
TORSDOF 8
ENDMDL
MODEL 4
REMARK VINA RESULT:      -6.9      4.312      6.749
REMARK  Name = 
REMARK  10 active torsions:
REMARK  status: ('A' for Active; 'I' for Inactive)
REMARK    1  A    between atoms: C_1  and  O_2
REMARK    2  A    between atoms: O_2  and  C_3
REMARK    3  A    between atoms: C_3  and  C_4
REMARK    4  A    between atoms: C_5  and  C_6
REMARK    5  A    between atoms: C_8  and  N_9
REMARK    6  A    between atoms: N_9  and  C_10
REMARK    7  A    between atoms: C_10  and  C_11
REMARK    8  A    between atoms: C_11  and  C_12
REMARK    9  A    between atoms: C_19  and  C_20
REMARK   10  A    between atoms: C_21  and  N_22
REMARK                            x       y       z     vdW  Elec       q    Type
REMARK                         _______ _______ _______ _____ _____    ______ ____
ROOT
ATOM      1  C   UNL     1       4.244   4.408  18.155  0.00  0.00    +0.000 A 
ATOM      2  C   UNL     1       3.805   5.739  17.927  0.00  0.00    +0.000 A 
ATOM      3  C   UNL     1       2.680   6.246  18.604  0.00  0.00    +0.000 A 
ATOM      4  N   UNL     1       2.017   5.469  19.488  0.00  0.00    +0.000 NA
ATOM      5  C   UNL     1       2.408   4.187  19.725  0.00  0.00    +0.000 A 
ATOM      6  C   UNL     1       1.578   3.471  20.753  0.00  0.00    +0.000 C 
ATOM      7  C   UNL     1       3.515   3.640  19.085  0.00  0.00    +0.000 A 
ENDROOT
BRANCH   7   8
ATOM      8  N   UNL     1       3.953   2.302  19.448  0.00  0.00    +0.000 N 
ATOM      9  O   UNL     1       3.516   1.366  18.764  0.00  0.00    +0.000 OA
ATOM     10  O   UNL     1       4.760   2.195  20.379  0.00  0.00    +0.000 OA
ENDBRANCH   7   8
BRANCH   2  11
ATOM     11  C   UNL     1       4.536   6.590  17.045  0.00  0.00    +0.000 C 
ATOM     12  N   UNL     1       5.105   7.336  16.353  0.00  0.00    +0.000 NA
ENDBRANCH   2  11
BRANCH   3  13
ATOM     13  N   UNL     1       2.254   7.564  18.482  0.00  0.00    +0.000 N 
ATOM     14  H   UNL     1       2.258   8.041  17.590  0.00  0.00    +0.000 HD
BRANCH  13  15
ATOM     15  C   UNL     1       1.838   8.268  19.699  0.00  0.00    +0.000 C 
BRANCH  15  16
ATOM     16  C   UNL     1       0.917   9.476  19.456  0.00  0.00    +0.000 C 
BRANCH  16  17
ATOM     17  C   UNL     1       0.268   9.935  20.754  0.00  0.00    +0.000 A 
ATOM     18  C   UNL     1       0.319   9.121  21.896  0.00  0.00    +0.000 A 
ATOM     19  C   UNL     1      -0.330   9.497  23.077  0.00  0.00    +0.000 A 
ATOM     20  C   UNL     1      -1.037  10.695  23.136  0.00  0.00    +0.000 A 
ATOM     21  C   UNL     1      -1.091  11.520  22.014  0.00  0.00    +0.000 A 
ATOM     22  C   UNL     1      -0.443  11.143  20.830  0.00  0.00    +0.000 A 
ENDBRANCH  16  17
ENDBRANCH  15  16
ENDBRANCH  13  15
ENDBRANCH   3  13
BRANCH   1  23
ATOM     23  C   UNL     1       5.433   3.832  17.413  0.00  0.00    +0.000 C 
BRANCH  23  25
ATOM     24  C   UNL     1       7.646   4.632  17.454  0.00  0.00    +0.000 C 
ATOM     25  O   UNL     1       6.593   4.045  18.213  0.00  0.00    +0.000 OA
ENDBRANCH  23  25
ENDBRANCH   1  23
TORSDOF 8
ENDMDL
MODEL 5
REMARK VINA RESULT:      -6.9      4.295      6.684
REMARK  Name = 
REMARK  10 active torsions:
REMARK  status: ('A' for Active; 'I' for Inactive)
REMARK    1  A    between atoms: C_1  and  O_2
REMARK    2  A    between atoms: O_2  and  C_3
REMARK    3  A    between atoms: C_3  and  C_4
REMARK    4  A    between atoms: C_5  and  C_6
REMARK    5  A    between atoms: C_8  and  N_9
REMARK    6  A    between atoms: N_9  and  C_10
REMARK    7  A    between atoms: C_10  and  C_11
REMARK    8  A    between atoms: C_11  and  C_12
REMARK    9  A    between atoms: C_19  and  C_20
REMARK   10  A    between atoms: C_21  and  N_22
REMARK                            x       y       z     vdW  Elec       q    Type
REMARK                         _______ _______ _______ _____ _____    ______ ____
ROOT
ATOM      1  C   UNL     1       4.254   4.386  18.049  0.00  0.00    +0.000 A 
ATOM      2  C   UNL     1       3.807   5.707  17.787  0.00  0.00    +0.000 A 
ATOM      3  C   UNL     1       2.627   6.194  18.380  0.00  0.00    +0.000 A 
ATOM      4  N   UNL     1       1.917   5.406  19.217  0.00  0.00    +0.000 NA
ATOM      5  C   UNL     1       2.315   4.132  19.485  0.00  0.00    +0.000 A 
ATOM      6  C   UNL     1       1.428   3.402  20.453  0.00  0.00    +0.000 C 
ATOM      7  C   UNL     1       3.475   3.606  18.928  0.00  0.00    +0.000 A 
ENDROOT
BRANCH   7   8
ATOM      8  N   UNL     1       3.911   2.277  19.325  0.00  0.00    +0.000 N 
ATOM      9  O   UNL     1       4.671   2.206  20.301  0.00  0.00    +0.000 OA
ATOM     10  O   UNL     1       3.461   1.312  18.695  0.00  0.00    +0.000 OA
ENDBRANCH   7   8
BRANCH   2  11
ATOM     11  C   UNL     1       4.583   6.571  16.956  0.00  0.00    +0.000 C 
ATOM     12  N   UNL     1       5.227   7.313  16.329  0.00  0.00    +0.000 NA
ENDBRANCH   2  11
BRANCH   3  13
ATOM     13  N   UNL     1       2.186   7.503  18.223  0.00  0.00    +0.000 N 
ATOM     14  H   UNL     1       2.061   7.914  17.307  0.00  0.00    +0.000 HD
BRANCH  13  15
ATOM     15  C   UNL     1       1.948   8.299  19.432  0.00  0.00    +0.000 C 
BRANCH  15  16
ATOM     16  C   UNL     1       0.968   9.469  19.244  0.00  0.00    +0.000 C 
BRANCH  16  17
ATOM     17  C   UNL     1       0.283   9.820  20.558  0.00  0.00    +0.000 A 
ATOM     18  C   UNL     1      -0.118  11.139  20.816  0.00  0.00    +0.000 A 
ATOM     19  C   UNL     1      -0.686  11.491  22.045  0.00  0.00    +0.000 A 
ATOM     20  C   UNL     1      -0.865  10.528  23.035  0.00  0.00    +0.000 A 
ATOM     21  C   UNL     1      -0.480   9.211  22.793  0.00  0.00    +0.000 A 
ATOM     22  C   UNL     1       0.091   8.858  21.563  0.00  0.00    +0.000 A 
ENDBRANCH  16  17
ENDBRANCH  15  16
ENDBRANCH  13  15
ENDBRANCH   3  13
BRANCH   1  23
ATOM     23  C   UNL     1       5.504   3.831  17.396  0.00  0.00    +0.000 C 
BRANCH  23  25
ATOM     24  C   UNL     1       7.725   4.602  17.509  0.00  0.00    +0.000 C 
ATOM     25  O   UNL     1       6.608   4.118  18.250  0.00  0.00    +0.000 OA
ENDBRANCH  23  25
ENDBRANCH   1  23
TORSDOF 8
ENDMDL
MODEL 6
REMARK VINA RESULT:      -6.8      4.405      6.945
REMARK  Name = 
REMARK  10 active torsions:
REMARK  status: ('A' for Active; 'I' for Inactive)
REMARK    1  A    between atoms: C_1  and  O_2
REMARK    2  A    between atoms: O_2  and  C_3
REMARK    3  A    between atoms: C_3  and  C_4
REMARK    4  A    between atoms: C_5  and  C_6
REMARK    5  A    between atoms: C_8  and  N_9
REMARK    6  A    between atoms: N_9  and  C_10
REMARK    7  A    between atoms: C_10  and  C_11
REMARK    8  A    between atoms: C_11  and  C_12
REMARK    9  A    between atoms: C_19  and  C_20
REMARK   10  A    between atoms: C_21  and  N_22
REMARK                            x       y       z     vdW  Elec       q    Type
REMARK                         _______ _______ _______ _____ _____    ______ ____
ROOT
ATOM      1  C   UNL     1       4.015   4.443  18.656  0.00  0.00    +0.000 A 
ATOM      2  C   UNL     1       3.472   5.754  18.697  0.00  0.00    +0.000 A 
ATOM      3  C   UNL     1       2.461   6.081  19.618  0.00  0.00    +0.000 A 
ATOM      4  N   UNL     1       2.007   5.147  20.483  0.00  0.00    +0.000 NA
ATOM      5  C   UNL     1       2.502   3.879  20.467  0.00  0.00    +0.000 A 
ATOM      6  C   UNL     1       1.907   2.974  21.509  0.00  0.00    +0.000 C 
ATOM      7  C   UNL     1       3.505   3.507  19.579  0.00  0.00    +0.000 A 
ENDROOT
BRANCH   7   8
ATOM      8  N   UNL     1       4.070   2.170  19.670  0.00  0.00    +0.000 N 
ATOM      9  O   UNL     1       3.644   1.327  18.869  0.00  0.00    +0.000 OA
ATOM     10  O   UNL     1       4.964   1.980  20.504  0.00  0.00    +0.000 OA
ENDBRANCH   7   8
BRANCH   2  11
ATOM     11  C   UNL     1       3.988   6.766  17.832  0.00  0.00    +0.000 C 
ATOM     12  N   UNL     1       4.376   7.636  17.160  0.00  0.00    +0.000 NA
ENDBRANCH   2  11
BRANCH   3  13
ATOM     13  N   UNL     1       1.950   7.367  19.758  0.00  0.00    +0.000 N 
ATOM     14  H   UNL     1       2.145   8.090  19.078  0.00  0.00    +0.000 HD
BRANCH  13  15
ATOM     15  C   UNL     1       1.153   7.665  20.951  0.00  0.00    +0.000 C 
BRANCH  15  16
ATOM     16  C   UNL     1       1.701   8.813  21.816  0.00  0.00    +0.000 C 
BRANCH  16  17
ATOM     17  C   UNL     1       0.664   9.917  21.975  0.00  0.00    +0.000 A 
ATOM     18  C   UNL     1      -0.285   9.852  23.005  0.00  0.00    +0.000 A 
ATOM     19  C   UNL     1      -1.286  10.822  23.124  0.00  0.00    +0.000 A 
ATOM     20  C   UNL     1      -1.352  11.874  22.214  0.00  0.00    +0.000 A 
ATOM     21  C   UNL     1      -0.411  11.959  21.189  0.00  0.00    +0.000 A 
ATOM     22  C   UNL     1       0.590  10.987  21.068  0.00  0.00    +0.000 A 
ENDBRANCH  16  17
ENDBRANCH  15  16
ENDBRANCH  13  15
ENDBRANCH   3  13
BRANCH   1  23
ATOM     23  C   UNL     1       5.082   4.060  17.650  0.00  0.00    +0.000 C 
BRANCH  23  25
ATOM     24  C   UNL     1       7.325   4.729  17.400  0.00  0.00    +0.000 C 
ATOM     25  O   UNL     1       6.349   4.188  18.288  0.00  0.00    +0.000 OA
ENDBRANCH  23  25
ENDBRANCH   1  23
TORSDOF 8
ENDMDL
MODEL 7
REMARK VINA RESULT:      -6.8      4.463      6.676
REMARK  Name = 
REMARK  10 active torsions:
REMARK  status: ('A' for Active; 'I' for Inactive)
REMARK    1  A    between atoms: C_1  and  O_2
REMARK    2  A    between atoms: O_2  and  C_3
REMARK    3  A    between atoms: C_3  and  C_4
REMARK    4  A    between atoms: C_5  and  C_6
REMARK    5  A    between atoms: C_8  and  N_9
REMARK    6  A    between atoms: N_9  and  C_10
REMARK    7  A    between atoms: C_10  and  C_11
REMARK    8  A    between atoms: C_11  and  C_12
REMARK    9  A    between atoms: C_19  and  C_20
REMARK   10  A    between atoms: C_21  and  N_22
REMARK                            x       y       z     vdW  Elec       q    Type
REMARK                         _______ _______ _______ _____ _____    ______ ____
ROOT
ATOM      1  C   UNL     1       4.361   4.402  18.006  0.00  0.00    +0.000 A 
ATOM      2  C   UNL     1       3.888   5.720  17.776  0.00  0.00    +0.000 A 
ATOM      3  C   UNL     1       2.701   6.170  18.382  0.00  0.00    +0.000 A 
ATOM      4  N   UNL     1       2.009   5.349  19.203  0.00  0.00    +0.000 NA
ATOM      5  C   UNL     1       2.431   4.078  19.440  0.00  0.00    +0.000 A 
ATOM      6  C   UNL     1       1.561   3.308  20.393  0.00  0.00    +0.000 C 
ATOM      7  C   UNL     1       3.600   3.586  18.868  0.00  0.00    +0.000 A 
ENDROOT
BRANCH   7   8
ATOM      8  N   UNL     1       4.063   2.257  19.234  0.00  0.00    +0.000 N 
ATOM      9  O   UNL     1       3.659   1.314  18.540  0.00  0.00    +0.000 OA
ATOM     10  O   UNL     1       4.857   2.165  20.178  0.00  0.00    +0.000 OA
ENDBRANCH   7   8
BRANCH   2  11
ATOM     11  C   UNL     1       4.645   6.617  16.964  0.00  0.00    +0.000 C 
ATOM     12  N   UNL     1       5.237   7.323  16.248  0.00  0.00    +0.000 NA
ENDBRANCH   2  11
BRANCH   3  13
ATOM     13  N   UNL     1       2.234   7.474  18.258  0.00  0.00    +0.000 N 
ATOM     14  H   UNL     1       2.107   7.905  17.352  0.00  0.00    +0.000 HD
BRANCH  13  15
ATOM     15  C   UNL     1       1.973   8.232  19.485  0.00  0.00    +0.000 C 
BRANCH  15  16
ATOM     16  C   UNL     1       1.066   9.460  19.297  0.00  0.00    +0.000 C 
BRANCH  16  17
ATOM     17  C   UNL     1       0.342   9.804  20.592  0.00  0.00    +0.000 A 
ATOM     18  C   UNL     1      -0.288  11.048  20.740  0.00  0.00    +0.000 A 
ATOM     19  C   UNL     1      -0.898  11.406  21.947  0.00  0.00    +0.000 A 
ATOM     20  C   UNL     1      -0.889  10.524  23.025  0.00  0.00    +0.000 A 
ATOM     21  C   UNL     1      -0.275   9.280  22.892  0.00  0.00    +0.000 A 
ATOM     22  C   UNL     1       0.339   8.922  21.685  0.00  0.00    +0.000 A 
ENDBRANCH  16  17
ENDBRANCH  15  16
ENDBRANCH  13  15
ENDBRANCH   3  13
BRANCH   1  23
ATOM     23  C   UNL     1       5.620   3.886  17.338  0.00  0.00    +0.000 C 
BRANCH  23  25
ATOM     24  C   UNL     1       6.215   3.889  15.060  0.00  0.00    +0.000 C 
ATOM     25  O   UNL     1       5.270   3.444  16.029  0.00  0.00    +0.000 OA
ENDBRANCH  23  25
ENDBRANCH   1  23
TORSDOF 8
ENDMDL
MODEL 8
REMARK VINA RESULT:      -6.8      2.988      6.364
REMARK  Name = 
REMARK  10 active torsions:
REMARK  status: ('A' for Active; 'I' for Inactive)
REMARK    1  A    between atoms: C_1  and  O_2
REMARK    2  A    between atoms: O_2  and  C_3
REMARK    3  A    between atoms: C_3  and  C_4
REMARK    4  A    between atoms: C_5  and  C_6
REMARK    5  A    between atoms: C_8  and  N_9
REMARK    6  A    between atoms: N_9  and  C_10
REMARK    7  A    between atoms: C_10  and  C_11
REMARK    8  A    between atoms: C_11  and  C_12
REMARK    9  A    between atoms: C_19  and  C_20
REMARK   10  A    between atoms: C_21  and  N_22
REMARK                            x       y       z     vdW  Elec       q    Type
REMARK                         _______ _______ _______ _____ _____    ______ ____
ROOT
ATOM      1  C   UNL     1       4.941   4.785  17.975  0.00  0.00    +0.000 A 
ATOM      2  C   UNL     1       3.735   5.520  17.828  0.00  0.00    +0.000 A 
ATOM      3  C   UNL     1       3.768   6.898  17.543  0.00  0.00    +0.000 A 
ATOM      4  N   UNL     1       4.954   7.528  17.394  0.00  0.00    +0.000 NA
ATOM      5  C   UNL     1       6.128   6.854  17.535  0.00  0.00    +0.000 A 
ATOM      6  C   UNL     1       7.352   7.698  17.314  0.00  0.00    +0.000 C 
ATOM      7  C   UNL     1       6.149   5.492  17.812  0.00  0.00    +0.000 A 
ENDROOT
BRANCH   7   8
ATOM      8  N   UNL     1       7.426   4.797  17.851  0.00  0.00    +0.000 N 
ATOM      9  O   UNL     1       7.873   4.386  16.772  0.00  0.00    +0.000 OA
ATOM     10  O   UNL     1       7.997   4.705  18.945  0.00  0.00    +0.000 OA
ENDBRANCH   7   8
BRANCH   2  11
ATOM     11  C   UNL     1       2.477   4.852  17.918  0.00  0.00    +0.000 C 
ATOM     12  N   UNL     1       1.467   4.270  17.942  0.00  0.00    +0.000 NA
ENDBRANCH   2  11
BRANCH   3  13
ATOM     13  N   UNL     1       2.623   7.651  17.309  0.00  0.00    +0.000 N 
ATOM     14  H   UNL     1       1.885   7.316  16.705  0.00  0.00    +0.000 HD
BRANCH  13  15
ATOM     15  C   UNL     1       2.532   8.976  17.928  0.00  0.00    +0.000 C 
BRANCH  15  16
ATOM     16  C   UNL     1       1.098   9.502  18.106  0.00  0.00    +0.000 C 
BRANCH  16  17
ATOM     17  C   UNL     1       0.721   9.564  19.580  0.00  0.00    +0.000 A 
ATOM     18  C   UNL     1      -0.162  10.550  20.043  0.00  0.00    +0.000 A 
ATOM     19  C   UNL     1      -0.465  10.663  21.405  0.00  0.00    +0.000 A 
ATOM     20  C   UNL     1       0.108   9.788  22.324  0.00  0.00    +0.000 A 
ATOM     21  C   UNL     1       0.981   8.796  21.880  0.00  0.00    +0.000 A 
ATOM     22  C   UNL     1       1.287   8.684  20.517  0.00  0.00    +0.000 A 
ENDBRANCH  16  17
ENDBRANCH  15  16
ENDBRANCH  13  15
ENDBRANCH   3  13
BRANCH   1  23
ATOM     23  C   UNL     1       4.928   3.308  18.314  0.00  0.00    +0.000 C 
BRANCH  23  25
ATOM     24  C   UNL     1       4.487   1.949  20.185  0.00  0.00    +0.000 C 
ATOM     25  O   UNL     1       5.036   3.183  19.729  0.00  0.00    +0.000 OA
ENDBRANCH  23  25
ENDBRANCH   1  23
TORSDOF 8
ENDMDL
MODEL 9
REMARK VINA RESULT:      -6.7      4.370      7.057
REMARK  Name = 
REMARK  10 active torsions:
REMARK  status: ('A' for Active; 'I' for Inactive)
REMARK    1  A    between atoms: C_1  and  O_2
REMARK    2  A    between atoms: O_2  and  C_3
REMARK    3  A    between atoms: C_3  and  C_4
REMARK    4  A    between atoms: C_5  and  C_6
REMARK    5  A    between atoms: C_8  and  N_9
REMARK    6  A    between atoms: N_9  and  C_10
REMARK    7  A    between atoms: C_10  and  C_11
REMARK    8  A    between atoms: C_11  and  C_12
REMARK    9  A    between atoms: C_19  and  C_20
REMARK   10  A    between atoms: C_21  and  N_22
REMARK                            x       y       z     vdW  Elec       q    Type
REMARK                         _______ _______ _______ _____ _____    ______ ____
ROOT
ATOM      1  C   UNL     1       4.139   4.366  18.624  0.00  0.00    +0.000 A 
ATOM      2  C   UNL     1       3.543   5.654  18.579  0.00  0.00    +0.000 A 
ATOM      3  C   UNL     1       2.437   5.960  19.393  0.00  0.00    +0.000 A 
ATOM      4  N   UNL     1       1.942   5.027  20.237  0.00  0.00    +0.000 NA
ATOM      5  C   UNL     1       2.486   3.782  20.301  0.00  0.00    +0.000 A 
ATOM      6  C   UNL     1       1.833   2.876  21.307  0.00  0.00    +0.000 C 
ATOM      7  C   UNL     1       3.582   3.431  19.520  0.00  0.00    +0.000 A 
ENDROOT
BRANCH   7   8
ATOM      8  N   UNL     1       4.189   2.122  19.699  0.00  0.00    +0.000 N 
ATOM      9  O   UNL     1       3.801   1.218  18.947  0.00  0.00    +0.000 OA
ATOM     10  O   UNL     1       5.078   2.013  20.553  0.00  0.00    +0.000 OA
ENDBRANCH   7   8
BRANCH   2  11
ATOM     11  C   UNL     1       4.098   6.667  17.739  0.00  0.00    +0.000 C 
ATOM     12  N   UNL     1       4.518   7.538  17.088  0.00  0.00    +0.000 NA
ENDBRANCH   2  11
BRANCH   3  13
ATOM     13  N   UNL     1       1.865   7.226  19.450  0.00  0.00    +0.000 N 
ATOM     14  H   UNL     1       1.521   7.688  18.619  0.00  0.00    +0.000 HD
BRANCH  13  15
ATOM     15  C   UNL     1       1.816   7.901  20.750  0.00  0.00    +0.000 C 
BRANCH  15  16
ATOM     16  C   UNL     1       0.437   7.877  21.431  0.00  0.00    +0.000 C 
BRANCH  16  17
ATOM     17  C   UNL     1      -0.086   9.291  21.649  0.00  0.00    +0.000 A 
ATOM     18  C   UNL     1       0.034  10.253  20.636  0.00  0.00    +0.000 A 
ATOM     19  C   UNL     1      -0.380  11.573  20.845  0.00  0.00    +0.000 A 
ATOM     20  C   UNL     1      -0.922  11.951  22.071  0.00  0.00    +0.000 A 
ATOM     21  C   UNL     1      -1.056  11.006  23.086  0.00  0.00    +0.000 A 
ATOM     22  C   UNL     1      -0.640   9.684  22.878  0.00  0.00    +0.000 A 
ENDBRANCH  16  17
ENDBRANCH  15  16
ENDBRANCH  13  15
ENDBRANCH   3  13
BRANCH   1  23
ATOM     23  C   UNL     1       5.310   4.006  17.732  0.00  0.00    +0.000 C 
BRANCH  23  25
ATOM     24  C   UNL     1       7.563   4.671  17.583  0.00  0.00    +0.000 C 
ATOM     25  O   UNL     1       6.508   4.274  18.455  0.00  0.00    +0.000 OA
ENDBRANCH  23  25
ENDBRANCH   1  23
TORSDOF 8
ENDMDL
