MODEL 1
REMARK VINA RESULT:      -7.9      0.000      0.000
REMARK  Name = 
REMARK  13 active torsions:
REMARK  status: ('A' for Active; 'I' for Inactive)
REMARK    1  A    between atoms: C_1  and  O_2
REMARK    2  A    between atoms: O_2  and  C_3
REMARK    3  A    between atoms: C_8  and  O_9
REMARK    4  A    between atoms: O_9  and  C_10
REMARK    5  A    between atoms: C_10  and  C_11
REMARK    6  A    between atoms: C_17  and  C_18
REMARK    7  A    between atoms: C_18  and  C_20
REMARK    8  A    between atoms: C_21  and  C_22
REMARK    9  A    between atoms: C_21  and  C_23
REMARK   10  A    between atoms: C_24  and  C_25
REMARK   11  A    between atoms: C_24  and  C_26
REMARK   12  A    between atoms: N_28  and  C_29
REMARK   13  A    between atoms: C_29  and  C_30
REMARK                            x       y       z     vdW  Elec       q    Type
REMARK                         _______ _______ _______ _____ _____    ______ ____
ROOT
ATOM      1  C   UNL     1       0.395   8.843  21.095  0.00  0.00    +0.000 A 
ATOM      2  C   UNL     1       0.701   7.476  21.248  0.00  0.00    +0.000 A 
ATOM      3  C   UNL     1       1.661   6.893  20.395  0.00  0.00    +0.000 A 
ATOM      4  C   UNL     1       2.198   7.592  19.310  0.00  0.00    +0.000 A 
ATOM      5  C   UNL     1       1.813   8.928  19.149  0.00  0.00    +0.000 A 
ATOM      6  C   UNL     1       0.993   9.585  20.074  0.00  0.00    +0.000 A 
ATOM      7  C   UNL     1       3.073   6.725  18.590  0.00  0.00    +0.000 A 
ATOM      8  C   UNL     1       3.056   5.525  19.294  0.00  0.00    +0.000 A 
ATOM      9  N   UNL     1       2.259   5.653  20.399  0.00  0.00    +0.000 N 
ENDROOT
BRANCH   1  11
ATOM     10  C   UNL     1      -0.135   9.579  23.285  0.00  0.00    +0.000 C 
ATOM     11  O   UNL     1      -0.485   9.512  21.908  0.00  0.00    +0.000 OA
ENDBRANCH   1  11
BRANCH   7  12
ATOM     12  C   UNL     1       3.902   6.920  17.384  0.00  0.00    +0.000 C 
ATOM     13  O   UNL     1       3.903   8.011  16.837  0.00  0.00    +0.000 OA
BRANCH  12  14
ATOM     14  C   UNL     1       4.774   5.784  16.881  0.00  0.00    +0.000 C 
ATOM     15  C   UNL     1       5.541   5.767  15.542  0.00  0.00    +0.000 C 
ATOM     16  C   UNL     1       5.796   4.440  14.829  0.00  0.00    +0.000 C 
ATOM     17  C   UNL     1       5.286   6.860  14.523  0.00  0.00    +0.000 C 
ATOM     18  C   UNL     1       6.295   5.968  16.882  0.00  0.00    +0.000 C 
ATOM     19  C   UNL     1       6.886   7.308  17.271  0.00  0.00    +0.000 C 
ATOM     20  C   UNL     1       7.165   4.837  17.415  0.00  0.00    +0.000 C 
ENDBRANCH  12  14
ENDBRANCH   7  12
BRANCH   6  21
ATOM     21  O   UNL     1       0.799  10.958  20.017  0.00  0.00    +0.000 OA
BRANCH  21  22
ATOM     22  C   UNL     1       0.358  11.386  18.719  0.00  0.00    +0.000 C 
BRANCH  22  23
ATOM     23  C   UNL     1      -1.093  11.197  18.371  0.00  0.00    +0.000 A 
ATOM     24  C   UNL     1      -2.120  11.960  18.925  0.00  0.00    +0.000 A 
ATOM     25  C   UNL     1      -3.447  11.650  18.625  0.00  0.00    +0.000 A 
ATOM     26  C   UNL     1      -3.755  10.579  17.783  0.00  0.00    +0.000 A 
ATOM     27  C   UNL     1      -2.738   9.811  17.229  0.00  0.00    +0.000 A 
ATOM     28  C   UNL     1      -1.414  10.118  17.525  0.00  0.00    +0.000 A 
ENDBRANCH  22  23
ENDBRANCH  21  22
ENDBRANCH   6  21
BRANCH   9  29
ATOM     29  C   UNL     1       2.088   4.620  21.409  0.00  0.00    +0.000 C 
BRANCH  29  30
ATOM     30  C   UNL     1       1.956   3.180  20.851  0.00  0.00    +0.000 C 
ATOM     31  C   UNL     1       3.273   2.675  20.245  0.00  0.00    +0.000 C 
ATOM     32  C   UNL     1       3.090   1.438  19.378  0.00  0.00    +0.000 C 
ATOM     33  O   UNL     1       2.091   1.668  18.388  0.00  0.00    +0.000 OA
ATOM     34  C   UNL     1       0.813   1.873  18.978  0.00  0.00    +0.000 C 
ATOM     35  C   UNL     1       0.812   3.141  19.822  0.00  0.00    +0.000 C 
ENDBRANCH  29  30
ENDBRANCH   9  29
TORSDOF 8
ENDMDL
MODEL 2
REMARK VINA RESULT:      -7.8      2.483      7.440
REMARK  Name = 
REMARK  13 active torsions:
REMARK  status: ('A' for Active; 'I' for Inactive)
REMARK    1  A    between atoms: C_1  and  O_2
REMARK    2  A    between atoms: O_2  and  C_3
REMARK    3  A    between atoms: C_8  and  O_9
REMARK    4  A    between atoms: O_9  and  C_10
REMARK    5  A    between atoms: C_10  and  C_11
REMARK    6  A    between atoms: C_17  and  C_18
REMARK    7  A    between atoms: C_18  and  C_20
REMARK    8  A    between atoms: C_21  and  C_22
REMARK    9  A    between atoms: C_21  and  C_23
REMARK   10  A    between atoms: C_24  and  C_25
REMARK   11  A    between atoms: C_24  and  C_26
REMARK   12  A    between atoms: N_28  and  C_29
REMARK   13  A    between atoms: C_29  and  C_30
REMARK                            x       y       z     vdW  Elec       q    Type
REMARK                         _______ _______ _______ _____ _____    ______ ____
ROOT
ATOM      1  C   UNL     1       6.115   5.722  17.212  0.00  0.00    +0.000 A 
ATOM      2  C   UNL     1       4.928   5.007  17.467  0.00  0.00    +0.000 A 
ATOM      3  C   UNL     1       3.735   5.725  17.693  0.00  0.00    +0.000 A 
ATOM      4  C   UNL     1       3.731   7.117  17.824  0.00  0.00    +0.000 A 
ATOM      5  C   UNL     1       4.946   7.786  17.636  0.00  0.00    +0.000 A 
ATOM      6  C   UNL     1       6.113   7.118  17.245  0.00  0.00    +0.000 A 
ATOM      7  C   UNL     1       2.405   7.549  18.125  0.00  0.00    +0.000 A 
ATOM      8  C   UNL     1       1.638   6.388  18.135  0.00  0.00    +0.000 A 
ATOM      9  N   UNL     1       2.427   5.315  17.820  0.00  0.00    +0.000 N 
ENDROOT
BRANCH   1  11
ATOM     10  C   UNL     1       7.308   4.204  15.838  0.00  0.00    +0.000 C 
ATOM     11  O   UNL     1       7.313   5.115  16.930  0.00  0.00    +0.000 OA
ENDBRANCH   1  11
BRANCH   7  12
ATOM     12  C   UNL     1       1.818   8.883  18.361  0.00  0.00    +0.000 C 
ATOM     13  O   UNL     1       2.313   9.852  17.807  0.00  0.00    +0.000 OA
BRANCH  12  14
ATOM     14  C   UNL     1       0.586   9.017  19.237  0.00  0.00    +0.000 C 
ATOM     15  C   UNL     1       0.586   9.099  20.777  0.00  0.00    +0.000 C 
ATOM     16  C   UNL     1      -0.606   8.560  21.567  0.00  0.00    +0.000 C 
ATOM     17  C   UNL     1       1.871   8.835  21.538  0.00  0.00    +0.000 C 
ATOM     18  C   UNL     1       0.312  10.360  19.919  0.00  0.00    +0.000 C 
ATOM     19  C   UNL     1       1.325  11.480  19.802  0.00  0.00    +0.000 C 
ATOM     20  C   UNL     1      -1.101  10.926  19.872  0.00  0.00    +0.000 C 
ENDBRANCH  12  14
ENDBRANCH   7  12
BRANCH   6  21
ATOM     21  O   UNL     1       7.246   7.817  16.853  0.00  0.00    +0.000 OA
BRANCH  21  22
ATOM     22  C   UNL     1       8.119   8.090  17.961  0.00  0.00    +0.000 C 
BRANCH  22  23
ATOM     23  C   UNL     1       8.458   9.527  18.251  0.00  0.00    +0.000 A 
ATOM     24  C   UNL     1       8.072  10.586  17.432  0.00  0.00    +0.000 A 
ATOM     25  C   UNL     1       8.516  11.878  17.721  0.00  0.00    +0.000 A 
ATOM     26  C   UNL     1       9.348  12.116  18.817  0.00  0.00    +0.000 A 
ATOM     27  C   UNL     1       9.741  11.064  19.638  0.00  0.00    +0.000 A 
ATOM     28  C   UNL     1       9.298   9.777  19.353  0.00  0.00    +0.000 A 
ENDBRANCH  22  23
ENDBRANCH  21  22
ENDBRANCH   6  21
BRANCH   9  29
ATOM     29  C   UNL     1       1.933   3.957  17.649  0.00  0.00    +0.000 C 
BRANCH  29  30
ATOM     30  C   UNL     1       1.949   3.093  18.937  0.00  0.00    +0.000 C 
ATOM     31  C   UNL     1       0.929   3.586  19.973  0.00  0.00    +0.000 C 
ATOM     32  C   UNL     1       1.168   3.005  21.360  0.00  0.00    +0.000 C 
ATOM     33  O   UNL     1       2.512   3.235  21.772  0.00  0.00    +0.000 OA
ATOM     34  C   UNL     1       3.435   2.542  20.939  0.00  0.00    +0.000 C 
ATOM     35  C   UNL     1       3.376   3.077  19.515  0.00  0.00    +0.000 C 
ENDBRANCH  29  30
ENDBRANCH   9  29
TORSDOF 8
ENDMDL
MODEL 3
REMARK VINA RESULT:      -7.7      1.730      7.535
REMARK  Name = 
REMARK  13 active torsions:
REMARK  status: ('A' for Active; 'I' for Inactive)
REMARK    1  A    between atoms: C_1  and  O_2
REMARK    2  A    between atoms: O_2  and  C_3
REMARK    3  A    between atoms: C_8  and  O_9
REMARK    4  A    between atoms: O_9  and  C_10
REMARK    5  A    between atoms: C_10  and  C_11
REMARK    6  A    between atoms: C_17  and  C_18
REMARK    7  A    between atoms: C_18  and  C_20
REMARK    8  A    between atoms: C_21  and  C_22
REMARK    9  A    between atoms: C_21  and  C_23
REMARK   10  A    between atoms: C_24  and  C_25
REMARK   11  A    between atoms: C_24  and  C_26
REMARK   12  A    between atoms: N_28  and  C_29
REMARK   13  A    between atoms: C_29  and  C_30
REMARK                            x       y       z     vdW  Elec       q    Type
REMARK                         _______ _______ _______ _____ _____    ______ ____
ROOT
ATOM      1  C   UNL     1       5.426   5.125  17.922  0.00  0.00    +0.000 A 
ATOM      2  C   UNL     1       4.653   4.976  19.091  0.00  0.00    +0.000 A 
ATOM      3  C   UNL     1       3.587   5.870  19.322  0.00  0.00    +0.000 A 
ATOM      4  C   UNL     1       3.376   6.985  18.506  0.00  0.00    +0.000 A 
ATOM      5  C   UNL     1       4.212   7.139  17.395  0.00  0.00    +0.000 A 
ATOM      6  C   UNL     1       5.171   6.181  17.043  0.00  0.00    +0.000 A 
ATOM      7  C   UNL     1       2.284   7.740  19.030  0.00  0.00    +0.000 A 
ATOM      8  C   UNL     1       1.848   7.025  20.142  0.00  0.00    +0.000 A 
ATOM      9  N   UNL     1       2.592   5.884  20.273  0.00  0.00    +0.000 N 
ENDROOT
BRANCH   1  11
ATOM     10  C   UNL     1       7.745   4.650  18.037  0.00  0.00    +0.000 C 
ATOM     11  O   UNL     1       6.449   4.277  17.583  0.00  0.00    +0.000 OA
ENDBRANCH   1  11
BRANCH   7  12
ATOM     12  C   UNL     1       1.628   8.986  18.587  0.00  0.00    +0.000 C 
ATOM     13  O   UNL     1       1.429   9.158  17.395  0.00  0.00    +0.000 OA
BRANCH  12  14
ATOM     14  C   UNL     1       1.168  10.000  19.619  0.00  0.00    +0.000 C 
ATOM     15  C   UNL     1       1.202  11.533  19.448  0.00  0.00    +0.000 C 
ATOM     16  C   UNL     1       1.384  12.431  20.671  0.00  0.00    +0.000 C 
ATOM     17  C   UNL     1       1.921  12.134  18.255  0.00  0.00    +0.000 C 
ATOM     18  C   UNL     1      -0.139  10.759  19.372  0.00  0.00    +0.000 C 
ATOM     19  C   UNL     1      -0.878  10.572  18.063  0.00  0.00    +0.000 C 
ATOM     20  C   UNL     1      -1.132  10.893  20.519  0.00  0.00    +0.000 C 
ENDBRANCH  12  14
ENDBRANCH   7  12
BRANCH   6  21
ATOM     21  O   UNL     1       5.836   6.240  15.827  0.00  0.00    +0.000 OA
BRANCH  21  22
ATOM     22  C   UNL     1       5.094   5.601  14.776  0.00  0.00    +0.000 C 
BRANCH  22  23
ATOM     23  C   UNL     1       5.860   4.788  13.768  0.00  0.00    +0.000 A 
ATOM     24  C   UNL     1       7.165   5.083  13.377  0.00  0.00    +0.000 A 
ATOM     25  C   UNL     1       7.765   4.338  12.361  0.00  0.00    +0.000 A 
ATOM     26  C   UNL     1       7.067   3.308  11.727  0.00  0.00    +0.000 A 
ATOM     27  C   UNL     1       5.764   3.008  12.108  0.00  0.00    +0.000 A 
ATOM     28  C   UNL     1       5.164   3.748  13.122  0.00  0.00    +0.000 A 
ENDBRANCH  22  23
ENDBRANCH  21  22
ENDBRANCH   6  21
BRANCH   9  29
ATOM     29  C   UNL     1       2.347   4.858  21.274  0.00  0.00    +0.000 C 
BRANCH  29  30
ATOM     30  C   UNL     1       1.896   3.488  20.704  0.00  0.00    +0.000 C 
ATOM     31  C   UNL     1       3.087   2.637  20.243  0.00  0.00    +0.000 C 
ATOM     32  C   UNL     1       2.671   1.468  19.360  0.00  0.00    +0.000 C 
ATOM     33  O   UNL     1       1.879   1.926  18.268  0.00  0.00    +0.000 OA
ATOM     34  C   UNL     1       0.647   2.479  18.718  0.00  0.00    +0.000 C 
ATOM     35  C   UNL     1       0.896   3.725  19.558  0.00  0.00    +0.000 C 
ENDBRANCH  29  30
ENDBRANCH   9  29
TORSDOF 8
ENDMDL
MODEL 4
REMARK VINA RESULT:      -7.6      3.829      8.539
REMARK  Name = 
REMARK  13 active torsions:
REMARK  status: ('A' for Active; 'I' for Inactive)
REMARK    1  A    between atoms: C_1  and  O_2
REMARK    2  A    between atoms: O_2  and  C_3
REMARK    3  A    between atoms: C_8  and  O_9
REMARK    4  A    between atoms: O_9  and  C_10
REMARK    5  A    between atoms: C_10  and  C_11
REMARK    6  A    between atoms: C_17  and  C_18
REMARK    7  A    between atoms: C_18  and  C_20
REMARK    8  A    between atoms: C_21  and  C_22
REMARK    9  A    between atoms: C_21  and  C_23
REMARK   10  A    between atoms: C_24  and  C_25
REMARK   11  A    between atoms: C_24  and  C_26
REMARK   12  A    between atoms: N_28  and  C_29
REMARK   13  A    between atoms: C_29  and  C_30
REMARK                            x       y       z     vdW  Elec       q    Type
REMARK                         _______ _______ _______ _____ _____    ______ ____
ROOT
ATOM      1  C   UNL     1      -2.935  10.919  17.752  0.00  0.00    +0.000 A 
ATOM      2  C   UNL     1      -1.532  10.791  17.723  0.00  0.00    +0.000 A 
ATOM      3  C   UNL     1      -0.773  11.376  18.758  0.00  0.00    +0.000 A 
ATOM      4  C   UNL     1      -1.359  12.205  19.719  0.00  0.00    +0.000 A 
ATOM      5  C   UNL     1      -2.748  12.366  19.670  0.00  0.00    +0.000 A 
ATOM      6  C   UNL     1      -3.549  11.667  18.760  0.00  0.00    +0.000 A 
ATOM      7  C   UNL     1      -0.338  12.709  20.578  0.00  0.00    +0.000 A 
ATOM      8  C   UNL     1       0.843  12.133  20.118  0.00  0.00    +0.000 A 
ATOM      9  N   UNL     1       0.566  11.297  19.071  0.00  0.00    +0.000 N 
ENDROOT
BRANCH   1  11
ATOM     10  C   UNL     1      -3.275  10.316  15.486  0.00  0.00    +0.000 C 
ATOM     11  O   UNL     1      -3.763  10.344  16.822  0.00  0.00    +0.000 OA
ENDBRANCH   1  11
BRANCH   7  12
ATOM     12  C   UNL     1      -0.371  13.609  21.749  0.00  0.00    +0.000 C 
ATOM     13  O   UNL     1       0.662  13.817  22.363  0.00  0.00    +0.000 OA
BRANCH  12  14
ATOM     14  C   UNL     1      -1.670  14.295  22.131  0.00  0.00    +0.000 C 
ATOM     15  C   UNL     1      -1.794  15.540  23.034  0.00  0.00    +0.000 C 
ATOM     16  C   UNL     1      -3.046  15.739  23.887  0.00  0.00    +0.000 C 
ATOM     17  C   UNL     1      -0.574  16.043  23.782  0.00  0.00    +0.000 C 
ATOM     18  C   UNL     1      -1.997  15.652  21.501  0.00  0.00    +0.000 C 
ATOM     19  C   UNL     1      -0.977  16.328  20.609  0.00  0.00    +0.000 C 
ATOM     20  C   UNL     1      -3.402  15.883  20.960  0.00  0.00    +0.000 C 
ENDBRANCH  12  14
ENDBRANCH   7  12
BRANCH   6  21
ATOM     21  O   UNL     1      -4.933  11.671  18.866  0.00  0.00    +0.000 OA
BRANCH  21  22
ATOM     22  C   UNL     1      -5.420  12.862  19.506  0.00  0.00    +0.000 C 
BRANCH  22  23
ATOM     23  C   UNL     1      -6.121  12.713  20.828  0.00  0.00    +0.000 A 
ATOM     24  C   UNL     1      -5.638  13.256  22.017  0.00  0.00    +0.000 A 
ATOM     25  C   UNL     1      -6.297  12.983  23.218  0.00  0.00    +0.000 A 
ATOM     26  C   UNL     1      -7.429  12.166  23.237  0.00  0.00    +0.000 A 
ATOM     27  C   UNL     1      -7.916  11.617  22.056  0.00  0.00    +0.000 A 
ATOM     28  C   UNL     1      -7.262  11.889  20.859  0.00  0.00    +0.000 A 
ENDBRANCH  22  23
ENDBRANCH  21  22
ENDBRANCH   6  21
BRANCH   9  29
ATOM     29  C   UNL     1       1.554  10.460  18.408  0.00  0.00    +0.000 C 
BRANCH  29  30
ATOM     30  C   UNL     1       1.411   8.941  18.684  0.00  0.00    +0.000 C 
ATOM     31  C   UNL     1       1.544   8.613  20.178  0.00  0.00    +0.000 C 
ATOM     32  C   UNL     1       1.773   7.130  20.440  0.00  0.00    +0.000 C 
ATOM     33  O   UNL     1       2.880   6.656  19.680  0.00  0.00    +0.000 OA
ATOM     34  C   UNL     1       2.620   6.727  18.283  0.00  0.00    +0.000 C 
ATOM     35  C   UNL     1       2.451   8.176  17.845  0.00  0.00    +0.000 C 
ENDBRANCH  29  30
ENDBRANCH   9  29
TORSDOF 8
ENDMDL
MODEL 5
REMARK VINA RESULT:      -7.6      4.585      9.605
REMARK  Name = 
REMARK  13 active torsions:
REMARK  status: ('A' for Active; 'I' for Inactive)
REMARK    1  A    between atoms: C_1  and  O_2
REMARK    2  A    between atoms: O_2  and  C_3
REMARK    3  A    between atoms: C_8  and  O_9
REMARK    4  A    between atoms: O_9  and  C_10
REMARK    5  A    between atoms: C_10  and  C_11
REMARK    6  A    between atoms: C_17  and  C_18
REMARK    7  A    between atoms: C_18  and  C_20
REMARK    8  A    between atoms: C_21  and  C_22
REMARK    9  A    between atoms: C_21  and  C_23
REMARK   10  A    between atoms: C_24  and  C_25
REMARK   11  A    between atoms: C_24  and  C_26
REMARK   12  A    between atoms: N_28  and  C_29
REMARK   13  A    between atoms: C_29  and  C_30
REMARK                            x       y       z     vdW  Elec       q    Type
REMARK                         _______ _______ _______ _____ _____    ______ ____
ROOT
ATOM      1  C   UNL     1      -3.926  11.693  18.419  0.00  0.00    +0.000 A 
ATOM      2  C   UNL     1      -2.517  11.715  18.398  0.00  0.00    +0.000 A 
ATOM      3  C   UNL     1      -1.826  12.174  19.538  0.00  0.00    +0.000 A 
ATOM      4  C   UNL     1      -2.497  12.749  20.620  0.00  0.00    +0.000 A 
ATOM      5  C   UNL     1      -3.896  12.775  20.572  0.00  0.00    +0.000 A 
ATOM      6  C   UNL     1      -4.618  12.176  19.532  0.00  0.00    +0.000 A 
ATOM      7  C   UNL     1      -1.537  13.187  21.580  0.00  0.00    +0.000 A 
ATOM      8  C   UNL     1      -0.302  12.829  21.048  0.00  0.00    +0.000 A 
ATOM      9  N   UNL     1      -0.487  12.174  19.860  0.00  0.00    +0.000 N 
ENDROOT
BRANCH   1  11
ATOM     10  C   UNL     1      -4.029  11.109  16.124  0.00  0.00    +0.000 C 
ATOM     11  O   UNL     1      -4.687  11.217  17.381  0.00  0.00    +0.000 OA
ENDBRANCH   1  11
BRANCH   7  12
ATOM     12  C   UNL     1      -1.667  13.849  22.894  0.00  0.00    +0.000 C 
ATOM     13  O   UNL     1      -0.798  13.673  23.732  0.00  0.00    +0.000 OA
BRANCH  12  14
ATOM     14  C   UNL     1      -2.843  14.771  23.157  0.00  0.00    +0.000 C 
ATOM     15  C   UNL     1      -2.859  15.940  24.163  0.00  0.00    +0.000 C 
ATOM     16  C   UNL     1      -4.167  16.342  24.843  0.00  0.00    +0.000 C 
ATOM     17  C   UNL     1      -1.703  16.106  25.131  0.00  0.00    +0.000 C 
ATOM     18  C   UNL     1      -2.779  16.211  22.639  0.00  0.00    +0.000 C 
ATOM     19  C   UNL     1      -1.509  16.714  21.984  0.00  0.00    +0.000 C 
ATOM     20  C   UNL     1      -3.998  16.784  21.928  0.00  0.00    +0.000 C 
ENDBRANCH  12  14
ENDBRANCH   7  12
BRANCH   6  21
ATOM     21  O   UNL     1      -5.995  12.021  19.607  0.00  0.00    +0.000 OA
BRANCH  21  22
ATOM     22  C   UNL     1      -6.652  13.234  20.005  0.00  0.00    +0.000 C 
BRANCH  22  23
ATOM     23  C   UNL     1      -7.034  13.384  21.453  0.00  0.00    +0.000 A 
ATOM     24  C   UNL     1      -6.927  14.584  22.154  0.00  0.00    +0.000 A 
ATOM     25  C   UNL     1      -7.206  14.610  23.522  0.00  0.00    +0.000 A 
ATOM     26  C   UNL     1      -7.581  13.444  24.194  0.00  0.00    +0.000 A 
ATOM     27  C   UNL     1      -7.687  12.242  23.503  0.00  0.00    +0.000 A 
ATOM     28  C   UNL     1      -7.411  12.214  22.139  0.00  0.00    +0.000 A 
ENDBRANCH  22  23
ENDBRANCH  21  22
ENDBRANCH   6  21
BRANCH   9  29
ATOM     29  C   UNL     1       0.585  11.578  19.078  0.00  0.00    +0.000 C 
BRANCH  29  30
ATOM     30  C   UNL     1       0.615  10.028  19.092  0.00  0.00    +0.000 C 
ATOM     31  C   UNL     1       0.951   9.472  20.483  0.00  0.00    +0.000 C 
ATOM     32  C   UNL     1       1.343   8.001  20.453  0.00  0.00    +0.000 C 
ATOM     33  O   UNL     1       2.395   7.786  19.516  0.00  0.00    +0.000 OA
ATOM     34  C   UNL     1       1.969   8.061  18.186  0.00  0.00    +0.000 C 
ATOM     35  C   UNL     1       1.617   9.534  18.032  0.00  0.00    +0.000 C 
ENDBRANCH  29  30
ENDBRANCH   9  29
TORSDOF 8
ENDMDL
MODEL 6
REMARK VINA RESULT:      -7.5      6.891     11.110
REMARK  Name = 
REMARK  13 active torsions:
REMARK  status: ('A' for Active; 'I' for Inactive)
REMARK    1  A    between atoms: C_1  and  O_2
REMARK    2  A    between atoms: O_2  and  C_3
REMARK    3  A    between atoms: C_8  and  O_9
REMARK    4  A    between atoms: O_9  and  C_10
REMARK    5  A    between atoms: C_10  and  C_11
REMARK    6  A    between atoms: C_17  and  C_18
REMARK    7  A    between atoms: C_18  and  C_20
REMARK    8  A    between atoms: C_21  and  C_22
REMARK    9  A    between atoms: C_21  and  C_23
REMARK   10  A    between atoms: C_24  and  C_25
REMARK   11  A    between atoms: C_24  and  C_26
REMARK   12  A    between atoms: N_28  and  C_29
REMARK   13  A    between atoms: C_29  and  C_30
REMARK                            x       y       z     vdW  Elec       q    Type
REMARK                         _______ _______ _______ _____ _____    ______ ____
ROOT
ATOM      1  C   UNL     1      -2.928  11.480  17.390  0.00  0.00    +0.000 A 
ATOM      2  C   UNL     1      -4.309  11.488  17.667  0.00  0.00    +0.000 A 
ATOM      3  C   UNL     1      -4.752  11.986  18.909  0.00  0.00    +0.000 A 
ATOM      4  C   UNL     1      -3.853  12.326  19.925  0.00  0.00    +0.000 A 
ATOM      5  C   UNL     1      -2.487  12.234  19.635  0.00  0.00    +0.000 A 
ATOM      6  C   UNL     1      -2.016  11.904  18.359  0.00  0.00    +0.000 A 
ATOM      7  C   UNL     1      -4.591  12.718  21.082  0.00  0.00    +0.000 A 
ATOM      8  C   UNL     1      -5.928  12.631  20.707  0.00  0.00    +0.000 A 
ATOM      9  N   UNL     1      -6.013  12.250  19.396  0.00  0.00    +0.000 N 
ENDROOT
BRANCH   1  11
ATOM     10  C   UNL     1      -3.187  10.131  15.458  0.00  0.00    +0.000 C 
ATOM     11  O   UNL     1      -2.403  11.063  16.192  0.00  0.00    +0.000 OA
ENDBRANCH   1  11
BRANCH   7  12
ATOM     12  C   UNL     1      -4.176  13.174  22.424  0.00  0.00    +0.000 C 
ATOM     13  O   UNL     1      -4.479  12.500  23.396  0.00  0.00    +0.000 OA
BRANCH  12  14
ATOM     14  C   UNL     1      -3.342  14.434  22.565  0.00  0.00    +0.000 C 
ATOM     15  C   UNL     1      -2.729  14.961  23.879  0.00  0.00    +0.000 C 
ATOM     16  C   UNL     1      -2.527  16.463  24.075  0.00  0.00    +0.000 C 
ATOM     17  C   UNL     1      -3.119  14.317  25.195  0.00  0.00    +0.000 C 
ATOM     18  C   UNL     1      -1.835  14.295  22.801  0.00  0.00    +0.000 C 
ATOM     19  C   UNL     1      -1.233  12.920  23.003  0.00  0.00    +0.000 C 
ATOM     20  C   UNL     1      -0.888  15.168  21.989  0.00  0.00    +0.000 C 
ENDBRANCH  12  14
ENDBRANCH   7  12
BRANCH   6  21
ATOM     21  O   UNL     1      -0.673  12.030  18.032  0.00  0.00    +0.000 OA
BRANCH  21  22
ATOM     22  C   UNL     1       0.174  11.933  19.189  0.00  0.00    +0.000 C 
BRANCH  22  23
ATOM     23  C   UNL     1       1.059  13.106  19.512  0.00  0.00    +0.000 A 
ATOM     24  C   UNL     1       1.998  13.097  20.542  0.00  0.00    +0.000 A 
ATOM     25  C   UNL     1       2.706  14.263  20.839  0.00  0.00    +0.000 A 
ATOM     26  C   UNL     1       2.475  15.438  20.121  0.00  0.00    +0.000 A 
ATOM     27  C   UNL     1       1.537  15.457  19.093  0.00  0.00    +0.000 A 
ATOM     28  C   UNL     1       0.832  14.295  18.794  0.00  0.00    +0.000 A 
ENDBRANCH  22  23
ENDBRANCH  21  22
ENDBRANCH   6  21
BRANCH   9  29
ATOM     29  C   UNL     1      -7.258  12.150  18.650  0.00  0.00    +0.000 C 
BRANCH  29  30
ATOM     30  C   UNL     1      -7.732  13.472  17.994  0.00  0.00    +0.000 C 
ATOM     31  C   UNL     1      -6.837  13.882  16.815  0.00  0.00    +0.000 C 
ATOM     32  C   UNL     1      -7.045  15.329  16.390  0.00  0.00    +0.000 C 
ATOM     33  O   UNL     1      -6.901  16.201  17.507  0.00  0.00    +0.000 OA
ATOM     34  C   UNL     1      -7.917  15.973  18.478  0.00  0.00    +0.000 C 
ATOM     35  C   UNL     1      -7.788  14.575  19.067  0.00  0.00    +0.000 C 
ENDBRANCH  29  30
ENDBRANCH   9  29
TORSDOF 8
ENDMDL
MODEL 7
REMARK VINA RESULT:      -7.5      2.333      5.212
REMARK  Name = 
REMARK  13 active torsions:
REMARK  status: ('A' for Active; 'I' for Inactive)
REMARK    1  A    between atoms: C_1  and  O_2
REMARK    2  A    between atoms: O_2  and  C_3
REMARK    3  A    between atoms: C_8  and  O_9
REMARK    4  A    between atoms: O_9  and  C_10
REMARK    5  A    between atoms: C_10  and  C_11
REMARK    6  A    between atoms: C_17  and  C_18
REMARK    7  A    between atoms: C_18  and  C_20
REMARK    8  A    between atoms: C_21  and  C_22
REMARK    9  A    between atoms: C_21  and  C_23
REMARK   10  A    between atoms: C_24  and  C_25
REMARK   11  A    between atoms: C_24  and  C_26
REMARK   12  A    between atoms: N_28  and  C_29
REMARK   13  A    between atoms: C_29  and  C_30
REMARK                            x       y       z     vdW  Elec       q    Type
REMARK                         _______ _______ _______ _____ _____    ______ ____
ROOT
ATOM      1  C   UNL     1       1.556  10.358  18.578  0.00  0.00    +0.000 A 
ATOM      2  C   UNL     1       2.510   9.638  17.833  0.00  0.00    +0.000 A 
ATOM      3  C   UNL     1       2.707   8.271  18.116  0.00  0.00    +0.000 A 
ATOM      4  C   UNL     1       2.096   7.655  19.212  0.00  0.00    +0.000 A 
ATOM      5  C   UNL     1       1.210   8.425  19.973  0.00  0.00    +0.000 A 
ATOM      6  C   UNL     1       0.865   9.735  19.619  0.00  0.00    +0.000 A 
ATOM      7  C   UNL     1       2.543   6.303  19.290  0.00  0.00    +0.000 A 
ATOM      8  C   UNL     1       3.396   6.138  18.203  0.00  0.00    +0.000 A 
ATOM      9  N   UNL     1       3.442   7.298  17.478  0.00  0.00    +0.000 N 
ENDROOT
BRANCH   1  11
ATOM     10  C   UNL     1       2.340  12.592  18.454  0.00  0.00    +0.000 C 
ATOM     11  O   UNL     1       1.256  11.677  18.343  0.00  0.00    +0.000 OA
ENDBRANCH   1  11
BRANCH   7  12
ATOM     12  C   UNL     1       2.234   5.200  20.222  0.00  0.00    +0.000 C 
ATOM     13  O   UNL     1       1.290   5.320  20.987  0.00  0.00    +0.000 OA
BRANCH  12  14
ATOM     14  C   UNL     1       3.056   3.925  20.176  0.00  0.00    +0.000 C 
ATOM     15  C   UNL     1       2.694   2.599  20.878  0.00  0.00    +0.000 C 
ATOM     16  C   UNL     1       3.804   1.659  21.347  0.00  0.00    +0.000 C 
ATOM     17  C   UNL     1       1.540   2.566  21.862  0.00  0.00    +0.000 C 
ATOM     18  C   UNL     1       2.541   2.748  19.342  0.00  0.00    +0.000 C 
ATOM     19  C   UNL     1       1.180   2.837  18.682  0.00  0.00    +0.000 C 
ATOM     20  C   UNL     1       3.518   2.019  18.430  0.00  0.00    +0.000 C 
ENDBRANCH  12  14
ENDBRANCH   7  12
BRANCH   6  21
ATOM     21  O   UNL     1      -0.173  10.404  20.254  0.00  0.00    +0.000 OA
BRANCH  21  22
ATOM     22  C   UNL     1       0.237  10.960  21.514  0.00  0.00    +0.000 C 
BRANCH  22  23
ATOM     23  C   UNL     1      -0.664  11.977  22.159  0.00  0.00    +0.000 A 
ATOM     24  C   UNL     1      -0.354  13.333  22.244  0.00  0.00    +0.000 A 
ATOM     25  C   UNL     1      -1.199  14.190  22.950  0.00  0.00    +0.000 A 
ATOM     26  C   UNL     1      -2.345  13.701  23.579  0.00  0.00    +0.000 A 
ATOM     27  C   UNL     1      -2.661  12.348  23.503  0.00  0.00    +0.000 A 
ATOM     28  C   UNL     1      -1.822  11.492  22.798  0.00  0.00    +0.000 A 
ENDBRANCH  22  23
ENDBRANCH  21  22
ENDBRANCH   6  21
BRANCH   9  29
ATOM     29  C   UNL     1       4.165   7.452  16.224  0.00  0.00    +0.000 C 
BRANCH  29  30
ATOM     30  C   UNL     1       5.486   6.646  16.132  0.00  0.00    +0.000 C 
ATOM     31  C   UNL     1       5.235   5.162  15.834  0.00  0.00    +0.000 C 
ATOM     32  C   UNL     1       6.456   4.291  16.096  0.00  0.00    +0.000 C 
ATOM     33  O   UNL     1       6.944   4.502  17.418  0.00  0.00    +0.000 OA
ATOM     34  C   UNL     1       7.420   5.833  17.588  0.00  0.00    +0.000 C 
ATOM     35  C   UNL     1       6.280   6.831  17.438  0.00  0.00    +0.000 C 
ENDBRANCH  29  30
ENDBRANCH   9  29
TORSDOF 8
ENDMDL
MODEL 8
REMARK VINA RESULT:      -7.5      3.693      7.515
REMARK  Name = 
REMARK  13 active torsions:
REMARK  status: ('A' for Active; 'I' for Inactive)
REMARK    1  A    between atoms: C_1  and  O_2
REMARK    2  A    between atoms: O_2  and  C_3
REMARK    3  A    between atoms: C_8  and  O_9
REMARK    4  A    between atoms: O_9  and  C_10
REMARK    5  A    between atoms: C_10  and  C_11
REMARK    6  A    between atoms: C_17  and  C_18
REMARK    7  A    between atoms: C_18  and  C_20
REMARK    8  A    between atoms: C_21  and  C_22
REMARK    9  A    between atoms: C_21  and  C_23
REMARK   10  A    between atoms: C_24  and  C_25
REMARK   11  A    between atoms: C_24  and  C_26
REMARK   12  A    between atoms: N_28  and  C_29
REMARK   13  A    between atoms: C_29  and  C_30
REMARK                            x       y       z     vdW  Elec       q    Type
REMARK                         _______ _______ _______ _____ _____    ______ ____
ROOT
ATOM      1  C   UNL     1      -2.791  10.926  18.205  0.00  0.00    +0.000 A 
ATOM      2  C   UNL     1      -1.524  10.411  17.865  0.00  0.00    +0.000 A 
ATOM      3  C   UNL     1      -0.381  10.936  18.502  0.00  0.00    +0.000 A 
ATOM      4  C   UNL     1      -0.457  12.052  19.341  0.00  0.00    +0.000 A 
ATOM      5  C   UNL     1      -1.727  12.580  19.598  0.00  0.00    +0.000 A 
ATOM      6  C   UNL     1      -2.897  11.980  19.115  0.00  0.00    +0.000 A 
ATOM      7  C   UNL     1       0.859  12.397  19.770  0.00  0.00    +0.000 A 
ATOM      8  C   UNL     1       1.692  11.445  19.191  0.00  0.00    +0.000 A 
ATOM      9  N   UNL     1       0.939  10.546  18.485  0.00  0.00    +0.000 N 
ENDROOT
BRANCH   1  11
ATOM     10  C   UNL     1      -4.444  11.112  16.518  0.00  0.00    +0.000 C 
ATOM     11  O   UNL     1      -3.964  10.447  17.680  0.00  0.00    +0.000 OA
ENDBRANCH   1  11
BRANCH   7  12
ATOM     12  C   UNL     1       1.375  13.463  20.652  0.00  0.00    +0.000 C 
ATOM     13  O   UNL     1       2.302  13.211  21.405  0.00  0.00    +0.000 OA
BRANCH  12  14
ATOM     14  C   UNL     1       0.782  14.859  20.569  0.00  0.00    +0.000 C 
ATOM     15  C   UNL     1       1.552  16.175  20.805  0.00  0.00    +0.000 C 
ATOM     16  C   UNL     1       0.820  17.394  21.363  0.00  0.00    +0.000 C 
ATOM     17  C   UNL     1       2.964  16.124  21.356  0.00  0.00    +0.000 C 
ATOM     18  C   UNL     1       1.147  15.742  19.373  0.00  0.00    +0.000 C 
ATOM     19  C   UNL     1       2.172  15.256  18.368  0.00  0.00    +0.000 C 
ATOM     20  C   UNL     1       0.035  16.500  18.661  0.00  0.00    +0.000 C 
ENDBRANCH  12  14
ENDBRANCH   7  12
BRANCH   6  21
ATOM     21  O   UNL     1      -4.149  12.386  19.555  0.00  0.00    +0.000 OA
BRANCH  21  22
ATOM     22  C   UNL     1      -4.060  13.389  20.580  0.00  0.00    +0.000 C 
BRANCH  22  23
ATOM     23  C   UNL     1      -4.478  13.008  21.974  0.00  0.00    +0.000 A 
ATOM     24  C   UNL     1      -5.788  13.117  22.438  0.00  0.00    +0.000 A 
ATOM     25  C   UNL     1      -6.069  12.838  23.777  0.00  0.00    +0.000 A 
ATOM     26  C   UNL     1      -5.051  12.460  24.655  0.00  0.00    +0.000 A 
ATOM     27  C   UNL     1      -3.741  12.351  24.200  0.00  0.00    +0.000 A 
ATOM     28  C   UNL     1      -3.458  12.627  22.866  0.00  0.00    +0.000 A 
ENDBRANCH  22  23
ENDBRANCH  21  22
ENDBRANCH   6  21
BRANCH   9  29
ATOM     29  C   UNL     1       1.477   9.364  17.829  0.00  0.00    +0.000 C 
BRANCH  29  30
ATOM     30  C   UNL     1       2.244   8.393  18.763  0.00  0.00    +0.000 C 
ATOM     31  C   UNL     1       2.693   7.123  18.028  0.00  0.00    +0.000 C 
ATOM     32  C   UNL     1       3.115   6.009  18.977  0.00  0.00    +0.000 C 
ATOM     33  O   UNL     1       2.087   5.749  19.928  0.00  0.00    +0.000 OA
ATOM     34  C   UNL     1       1.872   6.870  20.778  0.00  0.00    +0.000 C 
ATOM     35  C   UNL     1       1.358   8.058  19.977  0.00  0.00    +0.000 C 
ENDBRANCH  29  30
ENDBRANCH   9  29
TORSDOF 8
ENDMDL
MODEL 9
REMARK VINA RESULT:      -7.4      3.208      7.071
REMARK  Name = 
REMARK  13 active torsions:
REMARK  status: ('A' for Active; 'I' for Inactive)
REMARK    1  A    between atoms: C_1  and  O_2
REMARK    2  A    between atoms: O_2  and  C_3
REMARK    3  A    between atoms: C_8  and  O_9
REMARK    4  A    between atoms: O_9  and  C_10
REMARK    5  A    between atoms: C_10  and  C_11
REMARK    6  A    between atoms: C_17  and  C_18
REMARK    7  A    between atoms: C_18  and  C_20
REMARK    8  A    between atoms: C_21  and  C_22
REMARK    9  A    between atoms: C_21  and  C_23
REMARK   10  A    between atoms: C_24  and  C_25
REMARK   11  A    between atoms: C_24  and  C_26
REMARK   12  A    between atoms: N_28  and  C_29
REMARK   13  A    between atoms: C_29  and  C_30
REMARK                            x       y       z     vdW  Elec       q    Type
REMARK                         _______ _______ _______ _____ _____    ______ ____
ROOT
ATOM      1  C   UNL     1      -2.717  10.246  17.038  0.00  0.00    +0.000 A 
ATOM      2  C   UNL     1      -1.421   9.703  16.943  0.00  0.00    +0.000 A 
ATOM      3  C   UNL     1      -0.456  10.070  17.903  0.00  0.00    +0.000 A 
ATOM      4  C   UNL     1      -0.705  11.070  18.848  0.00  0.00    +0.000 A 
ATOM      5  C   UNL     1      -1.984  11.638  18.864  0.00  0.00    +0.000 A 
ATOM      6  C   UNL     1      -3.015  11.178  18.035  0.00  0.00    +0.000 A 
ATOM      7  C   UNL     1       0.474  11.275  19.625  0.00  0.00    +0.000 A 
ATOM      8  C   UNL     1       1.397  10.357  19.135  0.00  0.00    +0.000 A 
ATOM      9  N   UNL     1       0.817   9.605  18.150  0.00  0.00    +0.000 N 
ENDROOT
BRANCH   1  11
ATOM     10  C   UNL     1      -3.571  10.308  14.828  0.00  0.00    +0.000 C 
ATOM     11  O   UNL     1      -3.738   9.912  16.184  0.00  0.00    +0.000 OA
ENDBRANCH   1  11
BRANCH   7  12
ATOM     12  C   UNL     1       0.785  12.185  20.746  0.00  0.00    +0.000 C 
ATOM     13  O   UNL     1       1.439  11.761  21.685  0.00  0.00    +0.000 OA
BRANCH  12  14
ATOM     14  C   UNL     1       0.337  13.633  20.685  0.00  0.00    +0.000 C 
ATOM     15  C   UNL     1       1.222  14.860  20.988  0.00  0.00    +0.000 C 
ATOM     16  C   UNL     1       0.593  16.130  21.558  0.00  0.00    +0.000 C 
ATOM     17  C   UNL     1       2.601  14.655  21.586  0.00  0.00    +0.000 C 
ATOM     18  C   UNL     1       0.831  14.508  19.530  0.00  0.00    +0.000 C 
ATOM     19  C   UNL     1       1.839  13.950  18.547  0.00  0.00    +0.000 C 
ATOM     20  C   UNL     1      -0.174  15.392  18.804  0.00  0.00    +0.000 C 
ENDBRANCH  12  14
ENDBRANCH   7  12
BRANCH   6  21
ATOM     21  O   UNL     1      -4.325  11.600  18.214  0.00  0.00    +0.000 OA
BRANCH  21  22
ATOM     22  C   UNL     1      -4.468  12.435  19.373  0.00  0.00    +0.000 C 
BRANCH  22  23
ATOM     23  C   UNL     1      -5.682  12.234  20.239  0.00  0.00    +0.000 A 
ATOM     24  C   UNL     1      -5.875  12.891  21.453  0.00  0.00    +0.000 A 
ATOM     25  C   UNL     1      -6.980  12.569  22.243  0.00  0.00    +0.000 A 
ATOM     26  C   UNL     1      -7.888  11.590  21.831  0.00  0.00    +0.000 A 
ATOM     27  C   UNL     1      -7.701  10.928  20.622  0.00  0.00    +0.000 A 
ATOM     28  C   UNL     1      -6.601  11.248  19.833  0.00  0.00    +0.000 A 
ENDBRANCH  22  23
ENDBRANCH  21  22
ENDBRANCH   6  21
BRANCH   9  29
ATOM     29  C   UNL     1       1.467   8.488  17.482  0.00  0.00    +0.000 C 
BRANCH  29  30
ATOM     30  C   UNL     1       2.653   7.865  18.262  0.00  0.00    +0.000 C 
ATOM     31  C   UNL     1       3.766   7.378  17.323  0.00  0.00    +0.000 C 
ATOM     32  C   UNL     1       4.756   6.449  18.012  0.00  0.00    +0.000 C 
ATOM     33  O   UNL     1       4.072   5.372  18.644  0.00  0.00    +0.000 OA
ATOM     34  C   UNL     1       3.236   5.835  19.699  0.00  0.00    +0.000 C 
ATOM     35  C   UNL     1       2.126   6.722  19.150  0.00  0.00    +0.000 C 
ENDBRANCH  29  30
ENDBRANCH   9  29
TORSDOF 8
ENDMDL
