MODEL 1
REMARK VINA RESULT:      -6.3      0.000      0.000
REMARK  Name = 
REMARK  5 active torsions:
REMARK  status: ('A' for Active; 'I' for Inactive)
REMARK    1  A    between atoms: C_1  and  C_2
REMARK    2  A    between atoms: C_5  and  C_6
REMARK    3  A    between atoms: N_7  and  C_8
REMARK    4  A    between atoms: C_8  and  C_9
REMARK    5  A    between atoms: C_9  and  N_11
REMARK                            x       y       z     vdW  Elec       q    Type
REMARK                         _______ _______ _______ _____ _____    ______ ____
ROOT
ATOM      1  C   UNL     1       5.122   4.424  19.059  0.00  0.00    +0.000 C 
ATOM      2  O   UNL     1       5.217   3.351  19.634  0.00  0.00    +0.000 OA
ENDROOT
BRANCH   1   3
ATOM      3  N   UNL     1       6.134   5.431  19.165  0.00  0.00    +0.000 NA
ATOM      4  C   UNL     1       7.344   5.432  18.709  0.00  0.00    +0.000 C 
ATOM      5  N   UNL     1       7.852   4.412  17.856  0.00  0.00    +0.000 N 
ATOM      6  N   UNL     1       8.203   6.504  19.073  0.00  0.00    +0.000 N 
ATOM      7  H   UNL     1       7.261   3.669  17.468  0.00  0.00    +0.000 HD
ATOM      8  H   UNL     1       8.828   4.459  17.536  0.00  0.00    +0.000 HD
ATOM      9  H   UNL     1       7.871   7.249  19.704  0.00  0.00    +0.000 HD
ATOM     10  H   UNL     1       9.180   6.527  18.749  0.00  0.00    +0.000 HD
ENDBRANCH   1   3
BRANCH   1  11
ATOM     11  C   UNL     1       3.846   4.790  18.354  0.00  0.00    +0.000 C 
BRANCH  11  18
ATOM     12  C   UNL     1       2.016   6.029  20.592  0.00  0.00    +0.000 C 
ATOM     13  C   UNL     1       1.840   4.698  19.918  0.00  0.00    +0.000 A 
ATOM     14  C   UNL     1       0.799   3.837  20.189  0.00  0.00    +0.000 A 
ATOM     15  C   UNL     1       0.966   2.744  19.371  0.00  0.00    +0.000 A 
ATOM     16  C   UNL     1       2.113   2.972  18.634  0.00  0.00    +0.000 A 
ATOM     17  C   UNL     1       2.628   2.046  17.573  0.00  0.00    +0.000 C 
ATOM     18  N   UNL     1       2.655   4.169  18.968  0.00  0.00    +0.000 N 
ENDBRANCH  11  18
ENDBRANCH   1  11
TORSDOF 3
ENDMDL
MODEL 2
REMARK VINA RESULT:      -6.3      1.243      1.402
REMARK  Name = 
REMARK  5 active torsions:
REMARK  status: ('A' for Active; 'I' for Inactive)
REMARK    1  A    between atoms: C_1  and  C_2
REMARK    2  A    between atoms: C_5  and  C_6
REMARK    3  A    between atoms: N_7  and  C_8
REMARK    4  A    between atoms: C_8  and  C_9
REMARK    5  A    between atoms: C_9  and  N_11
REMARK                            x       y       z     vdW  Elec       q    Type
REMARK                         _______ _______ _______ _____ _____    ______ ____
ROOT
ATOM      1  C   UNL     1       4.680   5.195  18.219  0.00  0.00    +0.000 C 
ATOM      2  O   UNL     1       5.110   5.161  19.362  0.00  0.00    +0.000 OA
ENDROOT
BRANCH   1   3
ATOM      3  N   UNL     1       5.541   5.388  17.092  0.00  0.00    +0.000 NA
ATOM      4  C   UNL     1       6.790   5.081  16.950  0.00  0.00    +0.000 C 
ATOM      5  N   UNL     1       7.519   4.332  17.915  0.00  0.00    +0.000 N 
ATOM      6  N   UNL     1       7.460   5.509  15.772  0.00  0.00    +0.000 N 
ATOM      7  H   UNL     1       7.075   3.901  18.733  0.00  0.00    +0.000 HD
ATOM      8  H   UNL     1       8.514   4.131  17.753  0.00  0.00    +0.000 HD
ATOM      9  H   UNL     1       6.965   6.069  15.061  0.00  0.00    +0.000 HD
ATOM     10  H   UNL     1       8.460   5.305  15.633  0.00  0.00    +0.000 HD
ENDBRANCH   1   3
BRANCH   1  11
ATOM     11  C   UNL     1       3.197   5.208  17.973  0.00  0.00    +0.000 C 
BRANCH  11  18
ATOM     12  C   UNL     1       1.760   6.203  20.588  0.00  0.00    +0.000 C 
ATOM     13  C   UNL     1       1.803   4.796  20.064  0.00  0.00    +0.000 A 
ATOM     14  C   UNL     1       1.170   3.735  20.672  0.00  0.00    +0.000 A 
ATOM     15  C   UNL     1       1.421   2.627  19.897  0.00  0.00    +0.000 A 
ATOM     16  C   UNL     1       2.209   3.050  18.843  0.00  0.00    +0.000 A 
ATOM     17  C   UNL     1       2.665   2.162  17.724  0.00  0.00    +0.000 C 
ATOM     18  N   UNL     1       2.450   4.381  18.942  0.00  0.00    +0.000 N 
ENDBRANCH  11  18
ENDBRANCH   1  11
TORSDOF 3
ENDMDL
MODEL 3
REMARK VINA RESULT:      -6.3      1.282      1.428
REMARK  Name = 
REMARK  5 active torsions:
REMARK  status: ('A' for Active; 'I' for Inactive)
REMARK    1  A    between atoms: C_1  and  C_2
REMARK    2  A    between atoms: C_5  and  C_6
REMARK    3  A    between atoms: N_7  and  C_8
REMARK    4  A    between atoms: C_8  and  C_9
REMARK    5  A    between atoms: C_9  and  N_11
REMARK                            x       y       z     vdW  Elec       q    Type
REMARK                         _______ _______ _______ _____ _____    ______ ____
ROOT
ATOM      1  C   UNL     1       4.936   4.297  18.092  0.00  0.00    +0.000 C 
ATOM      2  O   UNL     1       5.389   3.760  19.091  0.00  0.00    +0.000 OA
ENDROOT
BRANCH   1   3
ATOM      3  N   UNL     1       5.713   5.200  17.299  0.00  0.00    +0.000 NA
ATOM      4  C   UNL     1       6.997   5.270  17.154  0.00  0.00    +0.000 C 
ATOM      5  N   UNL     1       7.892   4.307  17.697  0.00  0.00    +0.000 N 
ATOM      6  N   UNL     1       7.534   6.357  16.413  0.00  0.00    +0.000 N 
ATOM      7  H   UNL     1       7.571   3.444  18.149  0.00  0.00    +0.000 HD
ATOM      8  H   UNL     1       8.905   4.424  17.561  0.00  0.00    +0.000 HD
ATOM      9  H   UNL     1       6.913   7.082  16.022  0.00  0.00    +0.000 HD
ATOM     10  H   UNL     1       8.552   6.460  16.296  0.00  0.00    +0.000 HD
ENDBRANCH   1   3
BRANCH   1  11
ATOM     11  C   UNL     1       3.476   4.156  17.759  0.00  0.00    +0.000 C 
BRANCH  11  18
ATOM     12  C   UNL     1       2.725   6.805  19.278  0.00  0.00    +0.000 C 
ATOM     13  C   UNL     1       2.251   5.417  19.600  0.00  0.00    +0.000 A 
ATOM     14  C   UNL     1       1.372   5.128  20.621  0.00  0.00    +0.000 A 
ATOM     15  C   UNL     1       1.165   3.769  20.591  0.00  0.00    +0.000 A 
ATOM     16  C   UNL     1       1.933   3.272  19.555  0.00  0.00    +0.000 A 
ATOM     17  C   UNL     1       1.954   1.831  19.140  0.00  0.00    +0.000 C 
ATOM     18  N   UNL     1       2.605   4.279  18.945  0.00  0.00    +0.000 N 
ENDBRANCH  11  18
ENDBRANCH   1  11
TORSDOF 3
ENDMDL
MODEL 4
REMARK VINA RESULT:      -6.3      1.279      2.571
REMARK  Name = 
REMARK  5 active torsions:
REMARK  status: ('A' for Active; 'I' for Inactive)
REMARK    1  A    between atoms: C_1  and  C_2
REMARK    2  A    between atoms: C_5  and  C_6
REMARK    3  A    between atoms: N_7  and  C_8
REMARK    4  A    between atoms: C_8  and  C_9
REMARK    5  A    between atoms: C_9  and  N_11
REMARK                            x       y       z     vdW  Elec       q    Type
REMARK                         _______ _______ _______ _____ _____    ______ ____
ROOT
ATOM      1  C   UNL     1       4.773   5.091  18.214  0.00  0.00    +0.000 C 
ATOM      2  O   UNL     1       5.222   5.114  19.350  0.00  0.00    +0.000 OA
ENDROOT
BRANCH   1   3
ATOM      3  N   UNL     1       5.610   5.268  17.066  0.00  0.00    +0.000 NA
ATOM      4  C   UNL     1       6.868   5.007  16.918  0.00  0.00    +0.000 C 
ATOM      5  N   UNL     1       7.641   4.331  17.903  0.00  0.00    +0.000 N 
ATOM      6  N   UNL     1       7.504   5.409  15.712  0.00  0.00    +0.000 N 
ATOM      7  H   UNL     1       7.227   3.919  18.746  0.00  0.00    +0.000 HD
ATOM      8  H   UNL     1       8.642   4.164  17.734  0.00  0.00    +0.000 HD
ATOM      9  H   UNL     1       6.976   5.917  14.986  0.00  0.00    +0.000 HD
ATOM     10  H   UNL     1       8.509   5.240  15.566  0.00  0.00    +0.000 HD
ENDBRANCH   1   3
BRANCH   1  11
ATOM     11  C   UNL     1       3.287   5.045  17.993  0.00  0.00    +0.000 C 
BRANCH  11  18
ATOM     12  C   UNL     1       3.086   1.906  17.987  0.00  0.00    +0.000 C 
ATOM     13  C   UNL     1       2.510   2.844  19.009  0.00  0.00    +0.000 A 
ATOM     14  C   UNL     1       1.823   2.425  20.127  0.00  0.00    +0.000 A 
ATOM     15  C   UNL     1       1.472   3.558  20.823  0.00  0.00    +0.000 A 
ATOM     16  C   UNL     1       1.952   4.634  20.100  0.00  0.00    +0.000 A 
ATOM     17  C   UNL     1       1.835   6.063  20.539  0.00  0.00    +0.000 C 
ATOM     18  N   UNL     1       2.588   4.201  18.982  0.00  0.00    +0.000 N 
ENDBRANCH  11  18
ENDBRANCH   1  11
TORSDOF 3
ENDMDL
MODEL 5
REMARK VINA RESULT:      -6.2      1.520      2.558
REMARK  Name = 
REMARK  5 active torsions:
REMARK  status: ('A' for Active; 'I' for Inactive)
REMARK    1  A    between atoms: C_1  and  C_2
REMARK    2  A    between atoms: C_5  and  C_6
REMARK    3  A    between atoms: N_7  and  C_8
REMARK    4  A    between atoms: C_8  and  C_9
REMARK    5  A    between atoms: C_9  and  N_11
REMARK                            x       y       z     vdW  Elec       q    Type
REMARK                         _______ _______ _______ _____ _____    ______ ____
ROOT
ATOM      1  C   UNL     1       4.898   4.061  17.779  0.00  0.00    +0.000 C 
ATOM      2  O   UNL     1       5.360   3.784  18.876  0.00  0.00    +0.000 OA
ENDROOT
BRANCH   1   3
ATOM      3  N   UNL     1       5.715   4.567  16.719  0.00  0.00    +0.000 NA
ATOM      4  C   UNL     1       6.997   4.741  16.680  0.00  0.00    +0.000 C 
ATOM      5  N   UNL     1       7.870   4.301  17.714  0.00  0.00    +0.000 N 
ATOM      6  N   UNL     1       7.556   5.397  15.550  0.00  0.00    +0.000 N 
ATOM      7  H   UNL     1       7.551   3.729  18.503  0.00  0.00    +0.000 HD
ATOM      8  H   UNL     1       8.880   4.480  17.634  0.00  0.00    +0.000 HD
ATOM      9  H   UNL     1       6.947   5.745  14.793  0.00  0.00    +0.000 HD
ATOM     10  H   UNL     1       8.568   5.575  15.494  0.00  0.00    +0.000 HD
ENDBRANCH   1   3
BRANCH   1  11
ATOM     11  C   UNL     1       3.410   4.038  17.563  0.00  0.00    +0.000 C 
BRANCH  11  18
ATOM     12  C   UNL     1       2.038   2.099  19.624  0.00  0.00    +0.000 C 
ATOM     13  C   UNL     1       2.072   3.600  19.683  0.00  0.00    +0.000 A 
ATOM     14  C   UNL     1       1.509   4.336  20.702  0.00  0.00    +0.000 A 
ATOM     15  C   UNL     1       1.758   5.659  20.419  0.00  0.00    +0.000 A 
ATOM     16  C   UNL     1       2.459   5.685  19.228  0.00  0.00    +0.000 A 
ATOM     17  C   UNL     1       2.980   6.936  18.586  0.00  0.00    +0.000 C 
ATOM     18  N   UNL     1       2.651   4.423  18.769  0.00  0.00    +0.000 N 
ENDBRANCH  11  18
ENDBRANCH   1  11
TORSDOF 3
ENDMDL
MODEL 6
REMARK VINA RESULT:      -6.2      2.127      3.115
REMARK  Name = 
REMARK  5 active torsions:
REMARK  status: ('A' for Active; 'I' for Inactive)
REMARK    1  A    between atoms: C_1  and  C_2
REMARK    2  A    between atoms: C_5  and  C_6
REMARK    3  A    between atoms: N_7  and  C_8
REMARK    4  A    between atoms: C_8  and  C_9
REMARK    5  A    between atoms: C_9  and  N_11
REMARK                            x       y       z     vdW  Elec       q    Type
REMARK                         _______ _______ _______ _____ _____    ______ ____
ROOT
ATOM      1  C   UNL     1       6.767   4.528  17.076  0.00  0.00    +0.000 C 
ATOM      2  O   UNL     1       7.494   4.651  16.103  0.00  0.00    +0.000 OA
ENDROOT
BRANCH   1   3
ATOM      3  N   UNL     1       7.271   4.609  18.413  0.00  0.00    +0.000 NA
ATOM      4  C   UNL     1       7.835   5.602  19.020  0.00  0.00    +0.000 C 
ATOM      5  N   UNL     1       7.931   6.904  18.454  0.00  0.00    +0.000 N 
ATOM      6  N   UNL     1       8.379   5.382  20.315  0.00  0.00    +0.000 N 
ATOM      7  H   UNL     1       7.469   7.162  17.575  0.00  0.00    +0.000 HD
ATOM      8  H   UNL     1       8.404   7.651  18.979  0.00  0.00    +0.000 HD
ATOM      9  H   UNL     1       8.343   4.445  20.745  0.00  0.00    +0.000 HD
ATOM     10  H   UNL     1       8.858   6.141  20.820  0.00  0.00    +0.000 HD
ENDBRANCH   1   3
BRANCH   1  11
ATOM     11  C   UNL     1       5.333   4.114  16.896  0.00  0.00    +0.000 C 
BRANCH  11  18
ATOM     12  C   UNL     1       4.211   2.530  19.370  0.00  0.00    +0.000 C 
ATOM     13  C   UNL     1       3.973   3.977  19.044  0.00  0.00    +0.000 A 
ATOM     14  C   UNL     1       3.230   4.826  19.834  0.00  0.00    +0.000 A 
ATOM     15  C   UNL     1       3.254   6.057  19.223  0.00  0.00    +0.000 A 
ATOM     16  C   UNL     1       4.007   5.916  18.073  0.00  0.00    +0.000 A 
ATOM     17  C   UNL     1       4.334   7.041  17.137  0.00  0.00    +0.000 C 
ATOM     18  N   UNL     1       4.448   4.639  17.955  0.00  0.00    +0.000 N 
ENDBRANCH  11  18
ENDBRANCH   1  11
TORSDOF 3
ENDMDL
MODEL 7
REMARK VINA RESULT:      -6.2      2.459      3.573
REMARK  Name = 
REMARK  5 active torsions:
REMARK  status: ('A' for Active; 'I' for Inactive)
REMARK    1  A    between atoms: C_1  and  C_2
REMARK    2  A    between atoms: C_5  and  C_6
REMARK    3  A    between atoms: N_7  and  C_8
REMARK    4  A    between atoms: C_8  and  C_9
REMARK    5  A    between atoms: C_9  and  N_11
REMARK                            x       y       z     vdW  Elec       q    Type
REMARK                         _______ _______ _______ _____ _____    ______ ____
ROOT
ATOM      1  C   UNL     1       6.192   4.721  17.344  0.00  0.00    +0.000 C 
ATOM      2  O   UNL     1       6.829   5.760  17.436  0.00  0.00    +0.000 OA
ENDROOT
BRANCH   1   3
ATOM      3  N   UNL     1       6.075   4.013  16.106  0.00  0.00    +0.000 NA
ATOM      4  C   UNL     1       6.599   4.279  14.954  0.00  0.00    +0.000 C 
ATOM      5  N   UNL     1       7.548   5.321  14.756  0.00  0.00    +0.000 N 
ATOM      6  N   UNL     1       6.212   3.490  13.837  0.00  0.00    +0.000 N 
ATOM      7  H   UNL     1       7.952   5.858  15.531  0.00  0.00    +0.000 HD
ATOM      8  H   UNL     1       7.919   5.494  13.812  0.00  0.00    +0.000 HD
ATOM      9  H   UNL     1       5.513   2.739  13.944  0.00  0.00    +0.000 HD
ATOM     10  H   UNL     1       6.589   3.686  12.899  0.00  0.00    +0.000 HD
ENDBRANCH   1   3
BRANCH   1  11
ATOM     11  C   UNL     1       5.361   4.244  18.502  0.00  0.00    +0.000 C 
BRANCH  11  18
ATOM     12  C   UNL     1       3.639   1.626  18.232  0.00  0.00    +0.000 C 
ATOM     13  C   UNL     1       3.158   3.041  18.080  0.00  0.00    +0.000 A 
ATOM     14  C   UNL     1       1.847   3.378  17.823  0.00  0.00    +0.000 A 
ATOM     15  C   UNL     1       1.794   4.751  17.772  0.00  0.00    +0.000 A 
ATOM     16  C   UNL     1       3.081   5.207  17.992  0.00  0.00    +0.000 A 
ATOM     17  C   UNL     1       3.457   6.656  18.076  0.00  0.00    +0.000 C 
ATOM     18  N   UNL     1       3.923   4.160  18.178  0.00  0.00    +0.000 N 
ENDBRANCH  11  18
ENDBRANCH   1  11
TORSDOF 3
ENDMDL
MODEL 8
REMARK VINA RESULT:      -6.1      3.945      5.344
REMARK  Name = 
REMARK  5 active torsions:
REMARK  status: ('A' for Active; 'I' for Inactive)
REMARK    1  A    between atoms: C_1  and  C_2
REMARK    2  A    between atoms: C_5  and  C_6
REMARK    3  A    between atoms: N_7  and  C_8
REMARK    4  A    between atoms: C_8  and  C_9
REMARK    5  A    between atoms: C_9  and  N_11
REMARK                            x       y       z     vdW  Elec       q    Type
REMARK                         _______ _______ _______ _____ _____    ______ ____
ROOT
ATOM      1  C   UNL     1       6.605   4.929  14.716  0.00  0.00    +0.000 C 
ATOM      2  O   UNL     1       7.737   5.380  14.634  0.00  0.00    +0.000 OA
ENDROOT
BRANCH   1   3
ATOM      3  N   UNL     1       6.167   3.831  13.908  0.00  0.00    +0.000 NA
ATOM      4  C   UNL     1       6.397   3.587  12.659  0.00  0.00    +0.000 C 
ATOM      5  N   UNL     1       7.294   4.360  11.870  0.00  0.00    +0.000 N 
ATOM      6  N   UNL     1       5.726   2.492  12.050  0.00  0.00    +0.000 N 
ATOM      7  H   UNL     1       7.891   5.094  12.267  0.00  0.00    +0.000 HD
ATOM      8  H   UNL     1       7.426   4.126  10.877  0.00  0.00    +0.000 HD
ATOM      9  H   UNL     1       5.055   1.924  12.589  0.00  0.00    +0.000 HD
ATOM     10  H   UNL     1       5.864   2.281  11.052  0.00  0.00    +0.000 HD
ENDBRANCH   1   3
BRANCH   1  11
ATOM     11  C   UNL     1       5.574   5.632  15.554  0.00  0.00    +0.000 C 
BRANCH  11  18
ATOM     12  C   UNL     1       7.448   7.090  17.616  0.00  0.00    +0.000 C 
ATOM     13  C   UNL     1       6.494   5.966  17.904  0.00  0.00    +0.000 A 
ATOM     14  C   UNL     1       6.294   5.437  19.160  0.00  0.00    +0.000 A 
ATOM     15  C   UNL     1       5.344   4.452  19.028  0.00  0.00    +0.000 A 
ATOM     16  C   UNL     1       5.002   4.407  17.690  0.00  0.00    +0.000 A 
ATOM     17  C   UNL     1       3.950   3.502  17.121  0.00  0.00    +0.000 C 
ATOM     18  N   UNL     1       5.707   5.333  16.994  0.00  0.00    +0.000 N 
ENDBRANCH  11  18
ENDBRANCH   1  11
TORSDOF 3
ENDMDL
MODEL 9
REMARK VINA RESULT:      -6.1      3.942      5.577
REMARK  Name = 
REMARK  5 active torsions:
REMARK  status: ('A' for Active; 'I' for Inactive)
REMARK    1  A    between atoms: C_1  and  C_2
REMARK    2  A    between atoms: C_5  and  C_6
REMARK    3  A    between atoms: N_7  and  C_8
REMARK    4  A    between atoms: C_8  and  C_9
REMARK    5  A    between atoms: C_9  and  N_11
REMARK                            x       y       z     vdW  Elec       q    Type
REMARK                         _______ _______ _______ _____ _____    ______ ____
ROOT
ATOM      1  C   UNL     1       6.602   4.938  14.731  0.00  0.00    +0.000 C 
ATOM      2  O   UNL     1       7.750   5.352  14.676  0.00  0.00    +0.000 OA
ENDROOT
BRANCH   1   3
ATOM      3  N   UNL     1       6.152   3.844  13.924  0.00  0.00    +0.000 NA
ATOM      4  C   UNL     1       6.385   3.593  12.677  0.00  0.00    +0.000 C 
ATOM      5  N   UNL     1       7.297   4.350  11.891  0.00  0.00    +0.000 N 
ATOM      6  N   UNL     1       5.700   2.507  12.068  0.00  0.00    +0.000 N 
ATOM      7  H   UNL     1       7.903   5.076  12.289  0.00  0.00    +0.000 HD
ATOM      8  H   UNL     1       7.430   4.111  10.899  0.00  0.00    +0.000 HD
ATOM      9  H   UNL     1       5.018   1.950  12.606  0.00  0.00    +0.000 HD
ATOM     10  H   UNL     1       5.840   2.290  11.071  0.00  0.00    +0.000 HD
ENDBRANCH   1   3
BRANCH   1  11
ATOM     11  C   UNL     1       5.571   5.684  15.532  0.00  0.00    +0.000 C 
BRANCH  11  18
ATOM     12  C   UNL     1       4.030   3.445  17.114  0.00  0.00    +0.000 C 
ATOM     13  C   UNL     1       5.019   4.426  17.675  0.00  0.00    +0.000 A 
ATOM     14  C   UNL     1       5.408   4.446  18.996  0.00  0.00    +0.000 A 
ATOM     15  C   UNL     1       6.328   5.461  19.122  0.00  0.00    +0.000 A 
ATOM     16  C   UNL     1       6.463   6.032  17.871  0.00  0.00    +0.000 A 
ATOM     17  C   UNL     1       7.417   7.144  17.553  0.00  0.00    +0.000 C 
ATOM     18  N   UNL     1       5.658   5.403  16.979  0.00  0.00    +0.000 N 
ENDBRANCH  11  18
ENDBRANCH   1  11
TORSDOF 3
ENDMDL
