MODEL 1
REMARK VINA RESULT:      -7.5      0.000      0.000
REMARK  Name = 
REMARK  9 active torsions:
REMARK  status: ('A' for Active; 'I' for Inactive)
REMARK    1  A    between atoms: C_1  and  O_2
REMARK    2  A    between atoms: O_2  and  C_3
REMARK    3  A    between atoms: C_6  and  N_7
REMARK    4  A    between atoms: C_8  and  C_10
REMARK    5  A    between atoms: C_10  and  O_11
REMARK    6  A    between atoms: O_11  and  C_12
REMARK    7  A    between atoms: C_15  and  C_16
REMARK    8  A    between atoms: C_16  and  N_17
REMARK    9  A    between atoms: N_20  and  C_21
REMARK                            x       y       z     vdW  Elec       q    Type
REMARK                         _______ _______ _______ _____ _____    ______ ____
ROOT
ATOM      1  C   UNL     1       1.271   9.969  19.533  0.00  0.00    +0.000 A 
ATOM      2  C   UNL     1       1.469   9.618  18.254  0.00  0.00    +0.000 A 
ATOM      3  O   UNL     1       1.820   8.367  17.804  0.00  0.00    +0.000 OA
ATOM      4  C   UNL     1       2.110   7.387  18.746  0.00  0.00    +0.000 A 
ATOM      5  C   UNL     1       1.922   7.592  20.059  0.00  0.00    +0.000 A 
ATOM      6  C   UNL     1       1.411   8.878  20.546  0.00  0.00    +0.000 A 
ATOM      7  O   UNL     1       1.141   9.008  21.735  0.00  0.00    +0.000 OA
ENDROOT
BRANCH   1   8
ATOM      8  O   UNL     1       0.978  11.290  19.831  0.00  0.00    +0.000 OA
BRANCH   8   9
ATOM      9  C   UNL     1      -0.013  11.923  19.021  0.00  0.00    +0.000 C 
BRANCH   9  11
ATOM     10  N   UNL     1      -1.391  12.469  20.952  0.00  0.00    +0.000 N 
ATOM     11  C   UNL     1      -1.383  11.879  19.697  0.00  0.00    +0.000 C 
ATOM     12  O   UNL     1      -2.341  11.366  19.125  0.00  0.00    +0.000 OA
ATOM     13  H   UNL     1      -0.491  12.803  21.274  0.00  0.00    +0.000 HD
BRANCH  10  17
ATOM     14  C   UNL     1      -4.797  13.157  23.336  0.00  0.00    +0.000 A 
ATOM     15  C   UNL     1      -3.789  12.317  23.802  0.00  0.00    +0.000 A 
ATOM     16  C   UNL     1      -2.641  12.089  23.040  0.00  0.00    +0.000 A 
ATOM     17  C   UNL     1      -2.496  12.687  21.791  0.00  0.00    +0.000 A 
ATOM     18  C   UNL     1      -3.515  13.527  21.315  0.00  0.00    +0.000 A 
ATOM     19  C   UNL     1      -4.662  13.760  22.086  0.00  0.00    +0.000 A 
BRANCH  14  21
ATOM     20  C   UNL     1      -7.030  12.549  23.804  0.00  0.00    +0.000 C 
ATOM     21  O   UNL     1      -5.870  13.280  24.171  0.00  0.00    +0.000 OA
ENDBRANCH  14  21
ENDBRANCH  10  17
ENDBRANCH   9  11
ENDBRANCH   8   9
ENDBRANCH   1   8
BRANCH   4  22
ATOM     22  C   UNL     1       2.659   6.094  18.167  0.00  0.00    +0.000 C 
BRANCH  22  23
ATOM     23  N   UNL     1       4.107   5.949  18.354  0.00  0.00    +0.000 NA
ATOM     24  C   UNL     1       4.593   4.573  18.102  0.00  0.00    +0.000 C 
ATOM     25  C   UNL     1       4.685   4.158  16.616  0.00  0.00    +0.000 C 
ATOM     26  N   UNL     1       5.485   5.132  15.858  0.00  0.00    +0.000 N 
ATOM     27  C   UNL     1       5.120   6.549  16.058  0.00  0.00    +0.000 C 
ATOM     28  C   UNL     1       4.907   6.891  17.553  0.00  0.00    +0.000 C 
BRANCH  26  29
ATOM     29  C   UNL     1       5.973   4.783  14.597  0.00  0.00    +0.000 A 
ATOM     30  C   UNL     1       5.337   3.872  13.737  0.00  0.00    +0.000 A 
ATOM     31  C   UNL     1       5.905   3.507  12.507  0.00  0.00    +0.000 A 
ATOM     32  C   UNL     1       7.127   4.041  12.110  0.00  0.00    +0.000 A 
ATOM     33  C   UNL     1       7.776   4.946  12.939  0.00  0.00    +0.000 A 
ATOM     34  C   UNL     1       7.200   5.309  14.160  0.00  0.00    +0.000 A 
ENDBRANCH  26  29
ENDBRANCH  22  23
ENDBRANCH   4  22
TORSDOF 8
ENDMDL
MODEL 2
REMARK VINA RESULT:      -7.5      1.858      2.288
REMARK  Name = 
REMARK  9 active torsions:
REMARK  status: ('A' for Active; 'I' for Inactive)
REMARK    1  A    between atoms: C_1  and  O_2
REMARK    2  A    between atoms: O_2  and  C_3
REMARK    3  A    between atoms: C_6  and  N_7
REMARK    4  A    between atoms: C_8  and  C_10
REMARK    5  A    between atoms: C_10  and  O_11
REMARK    6  A    between atoms: O_11  and  C_12
REMARK    7  A    between atoms: C_15  and  C_16
REMARK    8  A    between atoms: C_16  and  N_17
REMARK    9  A    between atoms: N_20  and  C_21
REMARK                            x       y       z     vdW  Elec       q    Type
REMARK                         _______ _______ _______ _____ _____    ______ ____
ROOT
ATOM      1  C   UNL     1       1.466  10.378  19.095  0.00  0.00    +0.000 A 
ATOM      2  C   UNL     1       1.858  10.021  17.865  0.00  0.00    +0.000 A 
ATOM      3  O   UNL     1       2.124   8.740  17.440  0.00  0.00    +0.000 OA
ATOM      4  C   UNL     1       2.100   7.718  18.381  0.00  0.00    +0.000 A 
ATOM      5  C   UNL     1       1.692   7.929  19.642  0.00  0.00    +0.000 A 
ATOM      6  C   UNL     1       1.267   9.265  20.074  0.00  0.00    +0.000 A 
ATOM      7  O   UNL     1       0.795   9.414  21.195  0.00  0.00    +0.000 OA
ENDROOT
BRANCH   1   8
ATOM      8  O   UNL     1       1.295  11.722  19.384  0.00  0.00    +0.000 OA
BRANCH   8   9
ATOM      9  C   UNL     1       0.243  12.395  18.692  0.00  0.00    +0.000 C 
BRANCH   9  11
ATOM     10  N   UNL     1      -2.185  12.264  18.594  0.00  0.00    +0.000 N 
ATOM     11  C   UNL     1      -1.084  12.252  19.436  0.00  0.00    +0.000 C 
ATOM     12  O   UNL     1      -1.100  12.133  20.658  0.00  0.00    +0.000 OA
ATOM     13  H   UNL     1      -1.974  12.412  17.614  0.00  0.00    +0.000 HD
BRANCH  10  17
ATOM     14  C   UNL     1      -6.213  11.484  19.555  0.00  0.00    +0.000 A 
ATOM     15  C   UNL     1      -5.490  12.401  20.313  0.00  0.00    +0.000 A 
ATOM     16  C   UNL     1      -4.160  12.693  20.001  0.00  0.00    +0.000 A 
ATOM     17  C   UNL     1      -3.531  12.054  18.937  0.00  0.00    +0.000 A 
ATOM     18  C   UNL     1      -4.255  11.122  18.177  0.00  0.00    +0.000 A 
ATOM     19  C   UNL     1      -5.592  10.837  18.487  0.00  0.00    +0.000 A 
BRANCH  14  21
ATOM     20  C   UNL     1      -7.727  10.083  20.705  0.00  0.00    +0.000 C 
ATOM     21  O   UNL     1      -7.496  11.279  19.976  0.00  0.00    +0.000 OA
ENDBRANCH  14  21
ENDBRANCH  10  17
ENDBRANCH   9  11
ENDBRANCH   8   9
ENDBRANCH   1   8
BRANCH   4  22
ATOM     22  C   UNL     1       2.577   6.371  17.866  0.00  0.00    +0.000 C 
BRANCH  22  23
ATOM     23  N   UNL     1       3.984   6.098  18.184  0.00  0.00    +0.000 NA
ATOM     24  C   UNL     1       4.365   4.683  17.978  0.00  0.00    +0.000 C 
ATOM     25  C   UNL     1       4.553   4.248  16.507  0.00  0.00    +0.000 C 
ATOM     26  N   UNL     1       5.502   5.139  15.825  0.00  0.00    +0.000 N 
ATOM     27  C   UNL     1       5.250   6.585  15.989  0.00  0.00    +0.000 C 
ATOM     28  C   UNL     1       4.934   6.958  17.458  0.00  0.00    +0.000 C 
BRANCH  26  29
ATOM     29  C   UNL     1       6.070   4.737  14.613  0.00  0.00    +0.000 A 
ATOM     30  C   UNL     1       7.302   5.209  14.132  0.00  0.00    +0.000 A 
ATOM     31  C   UNL     1       7.795   4.823  12.877  0.00  0.00    +0.000 A 
ATOM     32  C   UNL     1       7.063   3.959  12.069  0.00  0.00    +0.000 A 
ATOM     33  C   UNL     1       5.843   3.475  12.520  0.00  0.00    +0.000 A 
ATOM     34  C   UNL     1       5.361   3.860  13.775  0.00  0.00    +0.000 A 
ENDBRANCH  26  29
ENDBRANCH  22  23
ENDBRANCH   4  22
TORSDOF 8
ENDMDL
MODEL 3
REMARK VINA RESULT:      -7.3      1.603      2.111
REMARK  Name = 
REMARK  9 active torsions:
REMARK  status: ('A' for Active; 'I' for Inactive)
REMARK    1  A    between atoms: C_1  and  O_2
REMARK    2  A    between atoms: O_2  and  C_3
REMARK    3  A    between atoms: C_6  and  N_7
REMARK    4  A    between atoms: C_8  and  C_10
REMARK    5  A    between atoms: C_10  and  O_11
REMARK    6  A    between atoms: O_11  and  C_12
REMARK    7  A    between atoms: C_15  and  C_16
REMARK    8  A    between atoms: C_16  and  N_17
REMARK    9  A    between atoms: N_20  and  C_21
REMARK                            x       y       z     vdW  Elec       q    Type
REMARK                         _______ _______ _______ _____ _____    ______ ____
ROOT
ATOM      1  C   UNL     1       1.512   9.510  19.034  0.00  0.00    +0.000 A 
ATOM      2  C   UNL     1       1.788   9.024  17.816  0.00  0.00    +0.000 A 
ATOM      3  O   UNL     1       2.193   7.741  17.529  0.00  0.00    +0.000 OA
ATOM      4  C   UNL     1       2.455   6.883  18.590  0.00  0.00    +0.000 A 
ATOM      5  C   UNL     1       2.191   7.228  19.860  0.00  0.00    +0.000 A 
ATOM      6  C   UNL     1       1.623   8.545  20.171  0.00  0.00    +0.000 A 
ATOM      7  O   UNL     1       1.287   8.799  21.322  0.00  0.00    +0.000 OA
ENDROOT
BRANCH   1   8
ATOM      8  O   UNL     1       1.172  10.846  19.164  0.00  0.00    +0.000 OA
BRANCH   8   9
ATOM      9  C   UNL     1      -0.162  11.204  18.806  0.00  0.00    +0.000 C 
BRANCH   9  11
ATOM     10  N   UNL     1      -0.867  12.002  20.995  0.00  0.00    +0.000 N 
ATOM     11  C   UNL     1      -0.672  12.358  19.669  0.00  0.00    +0.000 C 
ATOM     12  O   UNL     1      -0.861  13.466  19.175  0.00  0.00    +0.000 OA
ATOM     13  H   UNL     1      -0.695  11.026  21.206  0.00  0.00    +0.000 HD
BRANCH  10  17
ATOM     14  C   UNL     1      -1.883  14.637  24.122  0.00  0.00    +0.000 A 
ATOM     15  C   UNL     1      -2.626  13.474  23.933  0.00  0.00    +0.000 A 
ATOM     16  C   UNL     1      -2.296  12.574  22.918  0.00  0.00    +0.000 A 
ATOM     17  C   UNL     1      -1.228  12.838  22.065  0.00  0.00    +0.000 A 
ATOM     18  C   UNL     1      -0.483  14.013  22.246  0.00  0.00    +0.000 A 
ATOM     19  C   UNL     1      -0.811  14.911  23.272  0.00  0.00    +0.000 A 
BRANCH  14  21
ATOM     20  C   UNL     1      -1.402  15.653  26.199  0.00  0.00    +0.000 C 
ATOM     21  O   UNL     1      -2.321  15.436  25.139  0.00  0.00    +0.000 OA
ENDBRANCH  14  21
ENDBRANCH  10  17
ENDBRANCH   9  11
ENDBRANCH   8   9
ENDBRANCH   1   8
BRANCH   4  22
ATOM     22  C   UNL     1       3.064   5.550  18.191  0.00  0.00    +0.000 C 
BRANCH  22  23
ATOM     23  N   UNL     1       4.528   5.528  18.306  0.00  0.00    +0.000 NA
ATOM     24  C   UNL     1       5.117   4.204  18.007  0.00  0.00    +0.000 C 
ATOM     25  C   UNL     1       5.171   3.817  16.512  0.00  0.00    +0.000 C 
ATOM     26  N   UNL     1       5.845   4.866  15.733  0.00  0.00    +0.000 N 
ATOM     27  C   UNL     1       5.370   6.244  15.973  0.00  0.00    +0.000 C 
ATOM     28  C   UNL     1       5.202   6.547  17.482  0.00  0.00    +0.000 C 
BRANCH  26  29
ATOM     29  C   UNL     1       6.298   4.577  14.444  0.00  0.00    +0.000 A 
ATOM     30  C   UNL     1       7.402   5.205  13.844  0.00  0.00    +0.000 A 
ATOM     31  C   UNL     1       7.775   4.925  12.521  0.00  0.00    +0.000 A 
ATOM     32  C   UNL     1       7.048   4.013  11.763  0.00  0.00    +0.000 A 
ATOM     33  C   UNL     1       5.953   3.375  12.331  0.00  0.00    +0.000 A 
ATOM     34  C   UNL     1       5.592   3.655  13.652  0.00  0.00    +0.000 A 
ENDBRANCH  26  29
ENDBRANCH  22  23
ENDBRANCH   4  22
TORSDOF 8
ENDMDL
MODEL 4
REMARK VINA RESULT:      -7.2      1.315      1.919
REMARK  Name = 
REMARK  9 active torsions:
REMARK  status: ('A' for Active; 'I' for Inactive)
REMARK    1  A    between atoms: C_1  and  O_2
REMARK    2  A    between atoms: O_2  and  C_3
REMARK    3  A    between atoms: C_6  and  N_7
REMARK    4  A    between atoms: C_8  and  C_10
REMARK    5  A    between atoms: C_10  and  O_11
REMARK    6  A    between atoms: O_11  and  C_12
REMARK    7  A    between atoms: C_15  and  C_16
REMARK    8  A    between atoms: C_16  and  N_17
REMARK    9  A    between atoms: N_20  and  C_21
REMARK                            x       y       z     vdW  Elec       q    Type
REMARK                         _______ _______ _______ _____ _____    ______ ____
ROOT
ATOM      1  C   UNL     1       0.992   8.772  20.502  0.00  0.00    +0.000 A 
ATOM      2  C   UNL     1       1.483   7.605  20.942  0.00  0.00    +0.000 A 
ATOM      3  O   UNL     1       2.207   6.701  20.201  0.00  0.00    +0.000 OA
ATOM      4  C   UNL     1       2.363   6.942  18.841  0.00  0.00    +0.000 A 
ATOM      5  C   UNL     1       1.951   8.087  18.275  0.00  0.00    +0.000 A 
ATOM      6  C   UNL     1       1.302   9.126  19.083  0.00  0.00    +0.000 A 
ATOM      7  O   UNL     1       1.033  10.206  18.571  0.00  0.00    +0.000 OA
ENDROOT
BRANCH   1   8
ATOM      8  O   UNL     1       0.229   9.548  21.360  0.00  0.00    +0.000 OA
BRANCH   8   9
ATOM      9  C   UNL     1       0.815  10.769  21.809  0.00  0.00    +0.000 C 
BRANCH   9  11
ATOM     10  N   UNL     1      -1.492  11.481  22.113  0.00  0.00    +0.000 N 
ATOM     11  C   UNL     1      -0.209  11.904  21.804  0.00  0.00    +0.000 C 
ATOM     12  O   UNL     1       0.141  13.054  21.552  0.00  0.00    +0.000 OA
ATOM     13  H   UNL     1      -1.593  10.482  22.253  0.00  0.00    +0.000 HD
BRANCH  10  17
ATOM     14  C   UNL     1      -4.979  13.814  22.503  0.00  0.00    +0.000 A 
ATOM     15  C   UNL     1      -4.349  13.323  23.643  0.00  0.00    +0.000 A 
ATOM     16  C   UNL     1      -3.181  12.565  23.542  0.00  0.00    +0.000 A 
ATOM     17  C   UNL     1      -2.638  12.273  22.294  0.00  0.00    +0.000 A 
ATOM     18  C   UNL     1      -3.276  12.759  21.142  0.00  0.00    +0.000 A 
ATOM     19  C   UNL     1      -4.445  13.526  21.247  0.00  0.00    +0.000 A 
BRANCH  14  21
ATOM     20  C   UNL     1      -6.080  15.412  23.850  0.00  0.00    +0.000 C 
ATOM     21  O   UNL     1      -6.121  14.525  22.742  0.00  0.00    +0.000 OA
ENDBRANCH  14  21
ENDBRANCH  10  17
ENDBRANCH   9  11
ENDBRANCH   8   9
ENDBRANCH   1   8
BRANCH   4  22
ATOM     22  C   UNL     1       3.020   5.811  18.069  0.00  0.00    +0.000 C 
BRANCH  22  23
ATOM     23  N   UNL     1       4.483   5.806  18.187  0.00  0.00    +0.000 NA
ATOM     24  C   UNL     1       5.081   4.469  17.973  0.00  0.00    +0.000 C 
ATOM     25  C   UNL     1       5.141   3.989  16.506  0.00  0.00    +0.000 C 
ATOM     26  N   UNL     1       5.810   4.991  15.664  0.00  0.00    +0.000 N 
ATOM     27  C   UNL     1       5.327   6.378  15.817  0.00  0.00    +0.000 C 
ATOM     28  C   UNL     1       5.153   6.775  17.303  0.00  0.00    +0.000 C 
BRANCH  26  29
ATOM     29  C   UNL     1       6.269   4.624  14.396  0.00  0.00    +0.000 A 
ATOM     30  C   UNL     1       7.400   5.185  13.782  0.00  0.00    +0.000 A 
ATOM     31  C   UNL     1       7.779   4.829  12.479  0.00  0.00    +0.000 A 
ATOM     32  C   UNL     1       7.030   3.906  11.756  0.00  0.00    +0.000 A 
ATOM     33  C   UNL     1       5.908   3.334  12.340  0.00  0.00    +0.000 A 
ATOM     34  C   UNL     1       5.541   3.690  13.641  0.00  0.00    +0.000 A 
ENDBRANCH  26  29
ENDBRANCH  22  23
ENDBRANCH   4  22
TORSDOF 8
ENDMDL
MODEL 5
REMARK VINA RESULT:      -7.2      2.697      4.348
REMARK  Name = 
REMARK  9 active torsions:
REMARK  status: ('A' for Active; 'I' for Inactive)
REMARK    1  A    between atoms: C_1  and  O_2
REMARK    2  A    between atoms: O_2  and  C_3
REMARK    3  A    between atoms: C_6  and  N_7
REMARK    4  A    between atoms: C_8  and  C_10
REMARK    5  A    between atoms: C_10  and  O_11
REMARK    6  A    between atoms: O_11  and  C_12
REMARK    7  A    between atoms: C_15  and  C_16
REMARK    8  A    between atoms: C_16  and  N_17
REMARK    9  A    between atoms: N_20  and  C_21
REMARK                            x       y       z     vdW  Elec       q    Type
REMARK                         _______ _______ _______ _____ _____    ______ ____
ROOT
ATOM      1  C   UNL     1       1.125   9.113  20.167  0.00  0.00    +0.000 A 
ATOM      2  C   UNL     1       1.454   7.941  20.726  0.00  0.00    +0.000 A 
ATOM      3  O   UNL     1       2.139   6.917  20.114  0.00  0.00    +0.000 OA
ATOM      4  C   UNL     1       2.431   7.038  18.761  0.00  0.00    +0.000 A 
ATOM      5  C   UNL     1       2.187   8.172  18.085  0.00  0.00    +0.000 A 
ATOM      6  C   UNL     1       1.585   9.327  18.760  0.00  0.00    +0.000 A 
ATOM      7  O   UNL     1       1.473  10.387  18.156  0.00  0.00    +0.000 OA
ENDROOT
BRANCH   1   8
ATOM      8  O   UNL     1       0.378  10.022  20.899  0.00  0.00    +0.000 OA
BRANCH   8   9
ATOM      9  C   UNL     1      -0.634  10.736  20.190  0.00  0.00    +0.000 C 
BRANCH   9  11
ATOM     10  N   UNL     1       0.894  12.627  20.081  0.00  0.00    +0.000 N 
ATOM     11  C   UNL     1      -0.421  12.245  20.300  0.00  0.00    +0.000 C 
ATOM     12  O   UNL     1      -1.365  12.989  20.551  0.00  0.00    +0.000 OA
ATOM     13  H   UNL     1       1.542  11.863  19.926  0.00  0.00    +0.000 HD
BRANCH  10  17
ATOM     14  C   UNL     1       2.328  16.575  19.744  0.00  0.00    +0.000 A 
ATOM     15  C   UNL     1       2.490  15.884  20.942  0.00  0.00    +0.000 A 
ATOM     16  C   UNL     1       2.043  14.567  21.072  0.00  0.00    +0.000 A 
ATOM     17  C   UNL     1       1.409  13.932  20.008  0.00  0.00    +0.000 A 
ATOM     18  C   UNL     1       1.237  14.629  18.802  0.00  0.00    +0.000 A 
ATOM     19  C   UNL     1       1.694  15.947  18.671  0.00  0.00    +0.000 A 
BRANCH  14  21
ATOM     20  C   UNL     1       3.363  18.301  20.980  0.00  0.00    +0.000 C 
ATOM     21  O   UNL     1       2.795  17.858  19.756  0.00  0.00    +0.000 OA
ENDBRANCH  14  21
ENDBRANCH  10  17
ENDBRANCH   9  11
ENDBRANCH   8   9
ENDBRANCH   1   8
BRANCH   4  22
ATOM     22  C   UNL     1       3.028   5.794  18.128  0.00  0.00    +0.000 C 
BRANCH  22  23
ATOM     23  N   UNL     1       4.490   5.730  18.250  0.00  0.00    +0.000 NA
ATOM     24  C   UNL     1       5.038   4.378  17.999  0.00  0.00    +0.000 C 
ATOM     25  C   UNL     1       5.085   3.940  16.517  0.00  0.00    +0.000 C 
ATOM     26  N   UNL     1       5.795   4.940  15.707  0.00  0.00    +0.000 N 
ATOM     27  C   UNL     1       5.363   6.340  15.899  0.00  0.00    +0.000 C 
ATOM     28  C   UNL     1       5.199   6.699  17.396  0.00  0.00    +0.000 C 
BRANCH  26  29
ATOM     29  C   UNL     1       6.244   4.594  14.431  0.00  0.00    +0.000 A 
ATOM     30  C   UNL     1       7.376   5.158  13.821  0.00  0.00    +0.000 A 
ATOM     31  C   UNL     1       7.746   4.823  12.509  0.00  0.00    +0.000 A 
ATOM     32  C   UNL     1       6.986   3.919  11.774  0.00  0.00    +0.000 A 
ATOM     33  C   UNL     1       5.863   3.343  12.353  0.00  0.00    +0.000 A 
ATOM     34  C   UNL     1       5.506   3.678  13.662  0.00  0.00    +0.000 A 
ENDBRANCH  26  29
ENDBRANCH  22  23
ENDBRANCH   4  22
TORSDOF 8
ENDMDL
MODEL 6
REMARK VINA RESULT:      -7.2      1.676      2.099
REMARK  Name = 
REMARK  9 active torsions:
REMARK  status: ('A' for Active; 'I' for Inactive)
REMARK    1  A    between atoms: C_1  and  O_2
REMARK    2  A    between atoms: O_2  and  C_3
REMARK    3  A    between atoms: C_6  and  N_7
REMARK    4  A    between atoms: C_8  and  C_10
REMARK    5  A    between atoms: C_10  and  O_11
REMARK    6  A    between atoms: O_11  and  C_12
REMARK    7  A    between atoms: C_15  and  C_16
REMARK    8  A    between atoms: C_16  and  N_17
REMARK    9  A    between atoms: N_20  and  C_21
REMARK                            x       y       z     vdW  Elec       q    Type
REMARK                         _______ _______ _______ _____ _____    ______ ____
ROOT
ATOM      1  C   UNL     1       1.344   9.374  19.576  0.00  0.00    +0.000 A 
ATOM      2  C   UNL     1       1.503   8.334  20.407  0.00  0.00    +0.000 A 
ATOM      3  O   UNL     1       2.088   7.130  20.092  0.00  0.00    +0.000 OA
ATOM      4  C   UNL     1       2.457   6.904  18.771  0.00  0.00    +0.000 A 
ATOM      5  C   UNL     1       2.384   7.871  17.843  0.00  0.00    +0.000 A 
ATOM      6  C   UNL     1       1.894   9.208  18.196  0.00  0.00    +0.000 A 
ATOM      7  O   UNL     1       1.939  10.105  17.363  0.00  0.00    +0.000 OA
ENDROOT
BRANCH   1   8
ATOM      8  O   UNL     1       0.679  10.502  20.030  0.00  0.00    +0.000 OA
BRANCH   8   9
ATOM      9  C   UNL     1      -0.145  10.337  21.184  0.00  0.00    +0.000 C 
BRANCH   9  11
ATOM     10  N   UNL     1      -1.129  12.002  22.662  0.00  0.00    +0.000 N 
ATOM     11  C   UNL     1      -1.088  11.527  21.360  0.00  0.00    +0.000 C 
ATOM     12  O   UNL     1      -1.710  11.973  20.399  0.00  0.00    +0.000 OA
ATOM     13  H   UNL     1      -0.574  11.476  23.328  0.00  0.00    +0.000 HD
BRANCH  10  17
ATOM     14  C   UNL     1      -3.028  15.489  24.073  0.00  0.00    +0.000 A 
ATOM     15  C   UNL     1      -3.796  14.446  23.560  0.00  0.00    +0.000 A 
ATOM     16  C   UNL     1      -3.192  13.272  23.107  0.00  0.00    +0.000 A 
ATOM     17  C   UNL     1      -1.807  13.134  23.142  0.00  0.00    +0.000 A 
ATOM     18  C   UNL     1      -1.030  14.187  23.649  0.00  0.00    +0.000 A 
ATOM     19  C   UNL     1      -1.639  15.362  24.112  0.00  0.00    +0.000 A 
BRANCH  14  21
ATOM     20  C   UNL     1      -5.143  16.398  24.602  0.00  0.00    +0.000 C 
ATOM     21  O   UNL     1      -3.742  16.585  24.466  0.00  0.00    +0.000 OA
ENDBRANCH  14  21
ENDBRANCH  10  17
ENDBRANCH   9  11
ENDBRANCH   8   9
ENDBRANCH   1   8
BRANCH   4  22
ATOM     22  C   UNL     1       2.929   5.491  18.478  0.00  0.00    +0.000 C 
BRANCH  22  23
ATOM     23  N   UNL     1       4.385   5.335  18.589  0.00  0.00    +0.000 NA
ATOM     24  C   UNL     1       4.862   3.997  18.174  0.00  0.00    +0.000 C 
ATOM     25  C   UNL     1       4.893   3.741  16.650  0.00  0.00    +0.000 C 
ATOM     26  N   UNL     1       5.659   4.793  15.967  0.00  0.00    +0.000 N 
ATOM     27  C   UNL     1       5.301   6.180  16.329  0.00  0.00    +0.000 C 
ATOM     28  C   UNL     1       5.149   6.362  17.859  0.00  0.00    +0.000 C 
BRANCH  26  29
ATOM     29  C   UNL     1       6.095   4.582  14.657  0.00  0.00    +0.000 A 
ATOM     30  C   UNL     1       5.482   3.689  13.763  0.00  0.00    +0.000 A 
ATOM     31  C   UNL     1       6.000   3.466  12.479  0.00  0.00    +0.000 A 
ATOM     32  C   UNL     1       7.150   4.127  12.060  0.00  0.00    +0.000 A 
ATOM     33  C   UNL     1       7.776   5.018  12.922  0.00  0.00    +0.000 A 
ATOM     34  C   UNL     1       7.249   5.239  14.198  0.00  0.00    +0.000 A 
ENDBRANCH  26  29
ENDBRANCH  22  23
ENDBRANCH   4  22
TORSDOF 8
ENDMDL
MODEL 7
REMARK VINA RESULT:      -7.1      1.429      1.997
REMARK  Name = 
REMARK  9 active torsions:
REMARK  status: ('A' for Active; 'I' for Inactive)
REMARK    1  A    between atoms: C_1  and  O_2
REMARK    2  A    between atoms: O_2  and  C_3
REMARK    3  A    between atoms: C_6  and  N_7
REMARK    4  A    between atoms: C_8  and  C_10
REMARK    5  A    between atoms: C_10  and  O_11
REMARK    6  A    between atoms: O_11  and  C_12
REMARK    7  A    between atoms: C_15  and  C_16
REMARK    8  A    between atoms: C_16  and  N_17
REMARK    9  A    between atoms: N_20  and  C_21
REMARK                            x       y       z     vdW  Elec       q    Type
REMARK                         _______ _______ _______ _____ _____    ______ ____
ROOT
ATOM      1  C   UNL     1       1.208   9.144  19.662  0.00  0.00    +0.000 A 
ATOM      2  C   UNL     1       1.498   8.107  20.460  0.00  0.00    +0.000 A 
ATOM      3  O   UNL     1       2.184   6.972  20.095  0.00  0.00    +0.000 OA
ATOM      4  C   UNL     1       2.520   6.811  18.756  0.00  0.00    +0.000 A 
ATOM      5  C   UNL     1       2.318   7.784  17.855  0.00  0.00    +0.000 A 
ATOM      6  C   UNL     1       1.716   9.060  18.258  0.00  0.00    +0.000 A 
ATOM      7  O   UNL     1       1.641   9.975  17.446  0.00  0.00    +0.000 OA
ENDROOT
BRANCH   1   8
ATOM      8  O   UNL     1       0.455  10.192  20.167  0.00  0.00    +0.000 OA
BRANCH   8   9
ATOM      9  C   UNL     1      -0.537  10.742  19.301  0.00  0.00    +0.000 C 
BRANCH   9  11
ATOM     10  N   UNL     1      -1.531  11.744  21.284  0.00  0.00    +0.000 N 
ATOM     11  C   UNL     1      -1.224  11.945  19.947  0.00  0.00    +0.000 C 
ATOM     12  O   UNL     1      -1.444  12.960  19.291  0.00  0.00    +0.000 OA
ATOM     13  H   UNL     1      -1.307  10.822  21.641  0.00  0.00    +0.000 HD
BRANCH  10  17
ATOM     14  C   UNL     1      -3.174  14.404  24.108  0.00  0.00    +0.000 A 
ATOM     15  C   UNL     1      -2.219  14.864  23.205  0.00  0.00    +0.000 A 
ATOM     16  C   UNL     1      -1.675  14.007  22.245  0.00  0.00    +0.000 A 
ATOM     17  C   UNL     1      -2.067  12.673  22.191  0.00  0.00    +0.000 A 
ATOM     18  C   UNL     1      -3.022  12.205  23.107  0.00  0.00    +0.000 A 
ATOM     19  C   UNL     1      -3.573  13.069  24.064  0.00  0.00    +0.000 A 
BRANCH  14  21
ATOM     20  C   UNL     1      -2.834  16.525  25.092  0.00  0.00    +0.000 C 
ATOM     21  O   UNL     1      -3.611  15.340  25.003  0.00  0.00    +0.000 OA
ENDBRANCH  14  21
ENDBRANCH  10  17
ENDBRANCH   9  11
ENDBRANCH   8   9
ENDBRANCH   1   8
BRANCH   4  22
ATOM     22  C   UNL     1       3.114   5.456  18.411  0.00  0.00    +0.000 C 
BRANCH  22  23
ATOM     23  N   UNL     1       4.581   5.444  18.451  0.00  0.00    +0.000 NA
ATOM     24  C   UNL     1       5.164   4.135  18.080  0.00  0.00    +0.000 C 
ATOM     25  C   UNL     1       5.146   3.797  16.572  0.00  0.00    +0.000 C 
ATOM     26  N   UNL     1       5.772   4.876  15.795  0.00  0.00    +0.000 N 
ATOM     27  C   UNL     1       5.300   6.242  16.105  0.00  0.00    +0.000 C 
ATOM     28  C   UNL     1       5.206   6.494  17.629  0.00  0.00    +0.000 C 
BRANCH  26  29
ATOM     29  C   UNL     1       6.162   4.634  14.476  0.00  0.00    +0.000 A 
ATOM     30  C   UNL     1       5.519   3.718  13.627  0.00  0.00    +0.000 A 
ATOM     31  C   UNL     1       5.992   3.463  12.331  0.00  0.00    +0.000 A 
ATOM     32  C   UNL     1       7.125   4.116  11.855  0.00  0.00    +0.000 A 
ATOM     33  C   UNL     1       7.779   5.029  12.672  0.00  0.00    +0.000 A 
ATOM     34  C   UNL     1       7.297   5.281  13.960  0.00  0.00    +0.000 A 
ENDBRANCH  26  29
ENDBRANCH  22  23
ENDBRANCH   4  22
TORSDOF 8
ENDMDL
MODEL 8
REMARK VINA RESULT:      -7.1      5.745      9.793
REMARK  Name = 
REMARK  9 active torsions:
REMARK  status: ('A' for Active; 'I' for Inactive)
REMARK    1  A    between atoms: C_1  and  O_2
REMARK    2  A    between atoms: O_2  and  C_3
REMARK    3  A    between atoms: C_6  and  N_7
REMARK    4  A    between atoms: C_8  and  C_10
REMARK    5  A    between atoms: C_10  and  O_11
REMARK    6  A    between atoms: O_11  and  C_12
REMARK    7  A    between atoms: C_15  and  C_16
REMARK    8  A    between atoms: C_16  and  N_17
REMARK    9  A    between atoms: N_20  and  C_21
REMARK                            x       y       z     vdW  Elec       q    Type
REMARK                         _______ _______ _______ _____ _____    ______ ____
ROOT
ATOM      1  C   UNL     1       6.051   5.493  17.562  0.00  0.00    +0.000 A 
ATOM      2  C   UNL     1       6.086   5.041  18.824  0.00  0.00    +0.000 A 
ATOM      3  O   UNL     1       5.472   3.902  19.292  0.00  0.00    +0.000 OA
ATOM      4  C   UNL     1       4.643   3.200  18.426  0.00  0.00    +0.000 A 
ATOM      5  C   UNL     1       4.541   3.523  17.127  0.00  0.00    +0.000 A 
ATOM      6  C   UNL     1       5.303   4.651  16.579  0.00  0.00    +0.000 A 
ATOM      7  O   UNL     1       5.282   4.862  15.372  0.00  0.00    +0.000 OA
ENDROOT
BRANCH   1   8
ATOM      8  O   UNL     1       6.674   6.693  17.260  0.00  0.00    +0.000 OA
BRANCH   8   9
ATOM      9  C   UNL     1       7.794   7.052  18.069  0.00  0.00    +0.000 C 
BRANCH   9  11
ATOM     10  N   UNL     1       8.917   8.988  19.027  0.00  0.00    +0.000 N 
ATOM     11  C   UNL     1       8.008   8.566  18.069  0.00  0.00    +0.000 C 
ATOM     12  O   UNL     1       7.409   9.277  17.267  0.00  0.00    +0.000 OA
ATOM     13  H   UNL     1       9.280   8.255  19.626  0.00  0.00    +0.000 HD
BRANCH  10  17
ATOM     14  C   UNL     1      10.358  12.922  19.474  0.00  0.00    +0.000 A 
ATOM     15  C   UNL     1       9.977  12.197  20.600  0.00  0.00    +0.000 A 
ATOM     16  C   UNL     1       9.517  10.884  20.480  0.00  0.00    +0.000 A 
ATOM     17  C   UNL     1       9.414  10.287  19.227  0.00  0.00    +0.000 A 
ATOM     18  C   UNL     1       9.788  11.018  18.089  0.00  0.00    +0.000 A 
ATOM     19  C   UNL     1      10.258  12.333  18.213  0.00  0.00    +0.000 A 
BRANCH  14  21
ATOM     20  C   UNL     1      10.584  15.135  18.679  0.00  0.00    +0.000 C 
ATOM     21  O   UNL     1      10.774  14.198  19.729  0.00  0.00    +0.000 OA
ENDBRANCH  14  21
ENDBRANCH  10  17
ENDBRANCH   9  11
ENDBRANCH   8   9
ENDBRANCH   1   8
BRANCH   4  22
ATOM     22  C   UNL     1       3.870   2.063  19.072  0.00  0.00    +0.000 C 
BRANCH  22  23
ATOM     23  N   UNL     1       2.500   2.437  19.444  0.00  0.00    +0.000 NA
ATOM     24  C   UNL     1       2.436   3.299  20.646  0.00  0.00    +0.000 C 
ATOM     25  C   UNL     1       2.842   4.775  20.434  0.00  0.00    +0.000 C 
ATOM     26  N   UNL     1       2.068   5.369  19.335  0.00  0.00    +0.000 N 
ATOM     27  C   UNL     1       2.023   4.580  18.087  0.00  0.00    +0.000 C 
ATOM     28  C   UNL     1       1.744   3.081  18.355  0.00  0.00    +0.000 C 
BRANCH  26  29
ATOM     29  C   UNL     1       2.029   6.759  19.197  0.00  0.00    +0.000 A 
ATOM     30  C   UNL     1       1.513   7.626  20.173  0.00  0.00    +0.000 A 
ATOM     31  C   UNL     1       1.437   9.011  19.957  0.00  0.00    +0.000 A 
ATOM     32  C   UNL     1       1.870   9.560  18.755  0.00  0.00    +0.000 A 
ATOM     33  C   UNL     1       2.387   8.725  17.772  0.00  0.00    +0.000 A 
ATOM     34  C   UNL     1       2.465   7.348  17.999  0.00  0.00    +0.000 A 
ENDBRANCH  26  29
ENDBRANCH  22  23
ENDBRANCH   4  22
TORSDOF 8
ENDMDL
MODEL 9
REMARK VINA RESULT:      -7.1      3.126      4.272
REMARK  Name = 
REMARK  9 active torsions:
REMARK  status: ('A' for Active; 'I' for Inactive)
REMARK    1  A    between atoms: C_1  and  O_2
REMARK    2  A    between atoms: O_2  and  C_3
REMARK    3  A    between atoms: C_6  and  N_7
REMARK    4  A    between atoms: C_8  and  C_10
REMARK    5  A    between atoms: C_10  and  O_11
REMARK    6  A    between atoms: O_11  and  C_12
REMARK    7  A    between atoms: C_15  and  C_16
REMARK    8  A    between atoms: C_16  and  N_17
REMARK    9  A    between atoms: N_20  and  C_21
REMARK                            x       y       z     vdW  Elec       q    Type
REMARK                         _______ _______ _______ _____ _____    ______ ____
ROOT
ATOM      1  C   UNL     1       2.134   6.988  18.959  0.00  0.00    +0.000 A 
ATOM      2  C   UNL     1       2.204   6.151  17.915  0.00  0.00    +0.000 A 
ATOM      3  O   UNL     1       1.925   4.805  17.937  0.00  0.00    +0.000 OA
ATOM      4  C   UNL     1       1.652   4.211  19.163  0.00  0.00    +0.000 A 
ATOM      5  C   UNL     1       1.518   4.936  20.285  0.00  0.00    +0.000 A 
ATOM      6  C   UNL     1       1.673   6.395  20.251  0.00  0.00    +0.000 A 
ATOM      7  O   UNL     1       1.438   7.049  21.261  0.00  0.00    +0.000 OA
ENDROOT
BRANCH   1   8
ATOM      8  O   UNL     1       2.506   8.312  18.787  0.00  0.00    +0.000 OA
BRANCH   8   9
ATOM      9  C   UNL     1       1.765   9.064  17.827  0.00  0.00    +0.000 C 
BRANCH   9  11
ATOM     10  N   UNL     1      -0.459  10.030  17.608  0.00  0.00    +0.000 N 
ATOM     11  C   UNL     1       0.587   9.783  18.484  0.00  0.00    +0.000 C 
ATOM     12  O   UNL     1       0.625  10.075  19.677  0.00  0.00    +0.000 OA
ATOM     13  H   UNL     1      -0.290   9.749  16.649  0.00  0.00    +0.000 HD
BRANCH  10  17
ATOM     14  C   UNL     1      -4.306  11.520  18.465  0.00  0.00    +0.000 A 
ATOM     15  C   UNL     1      -3.192  12.104  19.064  0.00  0.00    +0.000 A 
ATOM     16  C   UNL     1      -1.906  11.642  18.780  0.00  0.00    +0.000 A 
ATOM     17  C   UNL     1      -1.719  10.575  17.905  0.00  0.00    +0.000 A 
ATOM     18  C   UNL     1      -2.840   9.978  17.308  0.00  0.00    +0.000 A 
ATOM     19  C   UNL     1      -4.130  10.449  17.589  0.00  0.00    +0.000 A 
BRANCH  14  21
ATOM     20  C   UNL     1      -6.600  11.800  17.976  0.00  0.00    +0.000 C 
ATOM     21  O   UNL     1      -5.504  12.055  18.842  0.00  0.00    +0.000 OA
ENDBRANCH  14  21
ENDBRANCH  10  17
ENDBRANCH   9  11
ENDBRANCH   8   9
ENDBRANCH   1   8
BRANCH   4  22
ATOM     22  C   UNL     1       1.531   2.698  19.122  0.00  0.00    +0.000 C 
BRANCH  22  23
ATOM     23  N   UNL     1       2.829   2.014  19.177  0.00  0.00    +0.000 NA
ATOM     24  C   UNL     1       3.534   1.997  17.876  0.00  0.00    +0.000 C 
ATOM     25  C   UNL     1       4.189   3.331  17.451  0.00  0.00    +0.000 C 
ATOM     26  N   UNL     1       5.079   3.827  18.510  0.00  0.00    +0.000 N 
ATOM     27  C   UNL     1       4.500   3.855  19.869  0.00  0.00    +0.000 C 
ATOM     28  C   UNL     1       3.738   2.550  20.205  0.00  0.00    +0.000 C 
BRANCH  26  29
ATOM     29  C   UNL     1       6.016   4.818  18.209  0.00  0.00    +0.000 A 
ATOM     30  C   UNL     1       6.945   5.323  19.134  0.00  0.00    +0.000 A 
ATOM     31  C   UNL     1       7.820   6.367  18.799  0.00  0.00    +0.000 A 
ATOM     32  C   UNL     1       7.783   6.936  17.530  0.00  0.00    +0.000 A 
ATOM     33  C   UNL     1       6.876   6.455  16.594  0.00  0.00    +0.000 A 
ATOM     34  C   UNL     1       6.012   5.410  16.935  0.00  0.00    +0.000 A 
ENDBRANCH  26  29
ENDBRANCH  22  23
ENDBRANCH   4  22
TORSDOF 8
ENDMDL
