MODEL 1
REMARK VINA RESULT:      -6.9      0.000      0.000
REMARK  Name = 
REMARK  2 active torsions:
REMARK  status: ('A' for Active; 'I' for Inactive)
REMARK    1  A    between atoms: C_1  and  C_2
REMARK    2  A    between atoms: C_16  and  C_17
REMARK                            x       y       z     vdW  Elec       q    Type
REMARK                         _______ _______ _______ _____ _____    ______ ____
ROOT
ATOM      1  C   UNL     1       6.484   3.272  11.925  0.00  0.00    +0.000 C 
ATOM      2  C   UNL     1       6.431   3.822  13.309  0.00  0.00    +0.000 A 
ATOM      3  N   UNL     1       5.521   3.359  14.248  0.00  0.00    +0.000 N 
ATOM      4  N   UNL     1       5.633   4.216  15.350  0.00  0.00    +0.000 N 
ATOM      5  C   UNL     1       4.795   4.226  16.434  0.00  0.00    +0.000 A 
ATOM      6  N   UNL     1       3.746   3.451  16.657  0.00  0.00    +0.000 NA
ATOM      7  C   UNL     1       3.261   3.903  17.865  0.00  0.00    +0.000 A 
ATOM      8  C   UNL     1       2.172   3.490  18.646  0.00  0.00    +0.000 A 
ATOM      9  C   UNL     1       1.925   4.172  19.851  0.00  0.00    +0.000 A 
ATOM     10  C   UNL     1       2.736   5.238  20.262  0.00  0.00    +0.000 A 
ATOM     11  C   UNL     1       3.825   5.659  19.493  0.00  0.00    +0.000 A 
ATOM     12  C   UNL     1       4.036   4.955  18.316  0.00  0.00    +0.000 A 
ATOM     13  O   UNL     1       5.021   5.166  17.405  0.00  0.00    +0.000 OA
ATOM     14  C   UNL     1       6.677   5.108  15.151  0.00  0.00    +0.000 A 
ATOM     15  O   UNL     1       7.114   6.000  15.858  0.00  0.00    +0.000 OA
ATOM     16  C   UNL     1       7.197   4.818  13.785  0.00  0.00    +0.000 A 
ATOM     17  C   UNL     1       8.283   5.595  13.153  0.00  0.00    +0.000 C 
ATOM     18  H   UNL     1       4.565   3.241  13.910  0.00  0.00    +0.000 HD
ENDROOT
TORSDOF 0
ENDMDL
MODEL 2
REMARK VINA RESULT:      -6.9      3.586      6.925
REMARK  Name = 
REMARK  2 active torsions:
REMARK  status: ('A' for Active; 'I' for Inactive)
REMARK    1  A    between atoms: C_1  and  C_2
REMARK    2  A    between atoms: C_16  and  C_17
REMARK                            x       y       z     vdW  Elec       q    Type
REMARK                         _______ _______ _______ _____ _____    ______ ____
ROOT
ATOM      1  C   UNL     1       0.833   8.843  22.036  0.00  0.00    +0.000 C 
ATOM      2  C   UNL     1       1.308   8.569  20.651  0.00  0.00    +0.000 A 
ATOM      3  N   UNL     1       2.083   7.458  20.347  0.00  0.00    +0.000 N 
ATOM      4  N   UNL     1       2.490   7.623  19.018  0.00  0.00    +0.000 N 
ATOM      5  C   UNL     1       3.411   6.845  18.369  0.00  0.00    +0.000 A 
ATOM      6  N   UNL     1       4.080   5.807  18.848  0.00  0.00    +0.000 NA
ATOM      7  C   UNL     1       4.879   5.423  17.794  0.00  0.00    +0.000 A 
ATOM      8  C   UNL     1       5.812   4.385  17.662  0.00  0.00    +0.000 A 
ATOM      9  C   UNL     1       6.489   4.255  16.436  0.00  0.00    +0.000 A 
ATOM     10  C   UNL     1       6.246   5.137  15.375  0.00  0.00    +0.000 A 
ATOM     11  C   UNL     1       5.318   6.176  15.493  0.00  0.00    +0.000 A 
ATOM     12  C   UNL     1       4.669   6.264  16.717  0.00  0.00    +0.000 A 
ATOM     13  O   UNL     1       3.730   7.175  17.078  0.00  0.00    +0.000 OA
ATOM     14  C   UNL     1       1.876   8.741  18.471  0.00  0.00    +0.000 A 
ATOM     15  O   UNL     1       1.945   9.228  17.354  0.00  0.00    +0.000 OA
ATOM     16  C   UNL     1       1.088   9.349  19.580  0.00  0.00    +0.000 A 
ATOM     17  C   UNL     1       0.326  10.607  19.434  0.00  0.00    +0.000 C 
ATOM     18  H   UNL     1       2.848   7.269  20.996  0.00  0.00    +0.000 HD
ENDROOT
TORSDOF 0
ENDMDL
MODEL 3
REMARK VINA RESULT:      -6.6      4.940      6.818
REMARK  Name = 
REMARK  2 active torsions:
REMARK  status: ('A' for Active; 'I' for Inactive)
REMARK    1  A    between atoms: C_1  and  C_2
REMARK    2  A    between atoms: C_16  and  C_17
REMARK                            x       y       z     vdW  Elec       q    Type
REMARK                         _______ _______ _______ _____ _____    ______ ____
ROOT
ATOM      1  C   UNL     1       4.700   6.527  16.756  0.00  0.00    +0.000 C 
ATOM      2  C   UNL     1       3.707   6.579  17.865  0.00  0.00    +0.000 A 
ATOM      3  N   UNL     1       2.927   7.702  18.100  0.00  0.00    +0.000 N 
ATOM      4  N   UNL     1       2.261   7.465  19.308  0.00  0.00    +0.000 N 
ATOM      5  C   UNL     1       1.521   8.387  20.000  0.00  0.00    +0.000 A 
ATOM      6  N   UNL     1       1.287   9.649  19.675  0.00  0.00    +0.000 NA
ATOM      7  C   UNL     1       0.521  10.115  20.721  0.00  0.00    +0.000 A 
ATOM      8  C   UNL     1      -0.054  11.369  20.969  0.00  0.00    +0.000 A 
ATOM      9  C   UNL     1      -0.788  11.539  22.157  0.00  0.00    +0.000 A 
ATOM     10  C   UNL     1      -0.940  10.489  23.072  0.00  0.00    +0.000 A 
ATOM     11  C   UNL     1      -0.372   9.233  22.837  0.00  0.00    +0.000 A 
ATOM     12  C   UNL     1       0.337   9.109  21.651  0.00  0.00    +0.000 A 
ATOM     13  O   UNL     1       0.974   8.001  21.195  0.00  0.00    +0.000 OA
ATOM     14  C   UNL     1       2.521   6.174  19.746  0.00  0.00    +0.000 A 
ATOM     15  O   UNL     1       2.135   5.569  20.732  0.00  0.00    +0.000 OA
ATOM     16  C   UNL     1       3.482   5.603  18.761  0.00  0.00    +0.000 A 
ATOM     17  C   UNL     1       4.069   4.253  18.894  0.00  0.00    +0.000 C 
ATOM     18  H   UNL     1       3.423   8.594  18.067  0.00  0.00    +0.000 HD
ENDROOT
TORSDOF 0
ENDMDL
MODEL 4
REMARK VINA RESULT:      -6.5      5.528      7.592
REMARK  Name = 
REMARK  2 active torsions:
REMARK  status: ('A' for Active; 'I' for Inactive)
REMARK    1  A    between atoms: C_1  and  C_2
REMARK    2  A    between atoms: C_16  and  C_17
REMARK                            x       y       z     vdW  Elec       q    Type
REMARK                         _______ _______ _______ _____ _____    ______ ____
ROOT
ATOM      1  C   UNL     1       2.754   4.031  20.104  0.00  0.00    +0.000 C 
ATOM      2  C   UNL     1       2.568   5.499  19.928  0.00  0.00    +0.000 A 
ATOM      3  N   UNL     1       1.972   6.286  20.903  0.00  0.00    +0.000 N 
ATOM      4  N   UNL     1       1.801   7.550  20.326  0.00  0.00    +0.000 N 
ATOM      5  C   UNL     1       1.093   8.584  20.880  0.00  0.00    +0.000 A 
ATOM      6  N   UNL     1       0.450   8.600  22.037  0.00  0.00    +0.000 NA
ATOM      7  C   UNL     1      -0.102   9.861  22.083  0.00  0.00    +0.000 A 
ATOM      8  C   UNL     1      -0.891  10.499  23.050  0.00  0.00    +0.000 A 
ATOM      9  C   UNL     1      -1.317  11.815  22.795  0.00  0.00    +0.000 A 
ATOM     10  C   UNL     1      -0.970  12.474  21.608  0.00  0.00    +0.000 A 
ATOM     11  C   UNL     1      -0.183  11.849  20.635  0.00  0.00    +0.000 A 
ATOM     12  C   UNL     1       0.220  10.554  20.931  0.00  0.00    +0.000 A 
ATOM     13  O   UNL     1       0.985   9.743  20.158  0.00  0.00    +0.000 OA
ATOM     14  C   UNL     1       2.395   7.583  19.073  0.00  0.00    +0.000 A 
ATOM     15  O   UNL     1       2.484   8.481  18.252  0.00  0.00    +0.000 OA
ATOM     16  C   UNL     1       2.905   6.204  18.835  0.00  0.00    +0.000 A 
ATOM     17  C   UNL     1       3.557   5.790  17.575  0.00  0.00    +0.000 C 
ATOM     18  H   UNL     1       1.123   5.900  21.317  0.00  0.00    +0.000 HD
ENDROOT
TORSDOF 0
ENDMDL
MODEL 5
REMARK VINA RESULT:      -6.5      4.640      6.710
REMARK  Name = 
REMARK  2 active torsions:
REMARK  status: ('A' for Active; 'I' for Inactive)
REMARK    1  A    between atoms: C_1  and  C_2
REMARK    2  A    between atoms: C_16  and  C_17
REMARK                            x       y       z     vdW  Elec       q    Type
REMARK                         _______ _______ _______ _____ _____    ______ ____
ROOT
ATOM      1  C   UNL     1       2.409   2.530  21.557  0.00  0.00    +0.000 C 
ATOM      2  C   UNL     1       2.588   3.745  20.715  0.00  0.00    +0.000 A 
ATOM      3  N   UNL     1       2.229   5.008  21.163  0.00  0.00    +0.000 N 
ATOM      4  N   UNL     1       2.362   5.861  20.060  0.00  0.00    +0.000 N 
ATOM      5  C   UNL     1       1.945   7.165  20.013  0.00  0.00    +0.000 A 
ATOM      6  N   UNL     1       1.353   7.865  20.969  0.00  0.00    +0.000 NA
ATOM      7  C   UNL     1       1.132   9.091  20.382  0.00  0.00    +0.000 A 
ATOM      8  C   UNL     1       0.548  10.267  20.873  0.00  0.00    +0.000 A 
ATOM      9  C   UNL     1       0.455  11.372  20.007  0.00  0.00    +0.000 A 
ATOM     10  C   UNL     1       0.926  11.304  18.690  0.00  0.00    +0.000 A 
ATOM     11  C   UNL     1       1.511  10.137  18.188  0.00  0.00    +0.000 A 
ATOM     12  C   UNL     1       1.588   9.074  19.077  0.00  0.00    +0.000 A 
ATOM     13  O   UNL     1       2.110   7.846  18.835  0.00  0.00    +0.000 OA
ATOM     14  C   UNL     1       2.915   5.170  18.992  0.00  0.00    +0.000 A 
ATOM     15  O   UNL     1       3.205   5.536  17.865  0.00  0.00    +0.000 OA
ATOM     16  C   UNL     1       3.063   3.763  19.458  0.00  0.00    +0.000 A 
ATOM     17  C   UNL     1       3.563   2.674  18.593  0.00  0.00    +0.000 C 
ATOM     18  H   UNL     1       1.321   5.066  21.625  0.00  0.00    +0.000 HD
ENDROOT
TORSDOF 0
ENDMDL
MODEL 6
REMARK VINA RESULT:      -6.4      4.205      6.246
REMARK  Name = 
REMARK  2 active torsions:
REMARK  status: ('A' for Active; 'I' for Inactive)
REMARK    1  A    between atoms: C_1  and  C_2
REMARK    2  A    between atoms: C_16  and  C_17
REMARK                            x       y       z     vdW  Elec       q    Type
REMARK                         _______ _______ _______ _____ _____    ______ ____
ROOT
ATOM      1  C   UNL     1       4.897   4.519  17.054  0.00  0.00    +0.000 C 
ATOM      2  C   UNL     1       3.940   4.919  18.123  0.00  0.00    +0.000 A 
ATOM      3  N   UNL     1       3.251   6.123  18.079  0.00  0.00    +0.000 N 
ATOM      4  N   UNL     1       2.601   6.240  19.314  0.00  0.00    +0.000 N 
ATOM      5  C   UNL     1       1.949   7.359  19.762  0.00  0.00    +0.000 A 
ATOM      6  N   UNL     1       1.801   8.518  19.139  0.00  0.00    +0.000 NA
ATOM      7  C   UNL     1       1.099   9.284  20.043  0.00  0.00    +0.000 A 
ATOM      8  C   UNL     1       0.625  10.601  19.979  0.00  0.00    +0.000 A 
ATOM      9  C   UNL     1      -0.063  11.113  21.094  0.00  0.00    +0.000 A 
ATOM     10  C   UNL     1      -0.269  10.334  22.240  0.00  0.00    +0.000 A 
ATOM     11  C   UNL     1       0.198   9.018  22.317  0.00  0.00    +0.000 A 
ATOM     12  C   UNL     1       0.866   8.553  21.193  0.00  0.00    +0.000 A 
ATOM     13  O   UNL     1       1.406   7.320  21.019  0.00  0.00    +0.000 OA
ATOM     14  C   UNL     1       2.776   5.079  20.053  0.00  0.00    +0.000 A 
ATOM     15  O   UNL     1       2.372   4.766  21.160  0.00  0.00    +0.000 OA
ATOM     16  C   UNL     1       3.666   4.211  19.232  0.00  0.00    +0.000 A 
ATOM     17  C   UNL     1       4.154   2.894  19.689  0.00  0.00    +0.000 C 
ATOM     18  H   UNL     1       3.811   6.937  17.825  0.00  0.00    +0.000 HD
ENDROOT
TORSDOF 0
ENDMDL
MODEL 7
REMARK VINA RESULT:      -6.3      4.246      6.131
REMARK  Name = 
REMARK  2 active torsions:
REMARK  status: ('A' for Active; 'I' for Inactive)
REMARK    1  A    between atoms: C_1  and  C_2
REMARK    2  A    between atoms: C_16  and  C_17
REMARK                            x       y       z     vdW  Elec       q    Type
REMARK                         _______ _______ _______ _____ _____    ______ ____
ROOT
ATOM      1  C   UNL     1       3.991   2.906  20.102  0.00  0.00    +0.000 C 
ATOM      2  C   UNL     1       3.752   4.297  19.624  0.00  0.00    +0.000 A 
ATOM      3  N   UNL     1       3.075   5.231  20.395  0.00  0.00    +0.000 N 
ATOM      4  N   UNL     1       2.880   6.344  19.568  0.00  0.00    +0.000 N 
ATOM      5  C   UNL     1       2.101   7.429  19.872  0.00  0.00    +0.000 A 
ATOM      6  N   UNL     1       1.401   7.644  20.975  0.00  0.00    +0.000 NA
ATOM      7  C   UNL     1       0.794   8.858  20.742  0.00  0.00    +0.000 A 
ATOM      8  C   UNL     1      -0.069   9.636  21.527  0.00  0.00    +0.000 A 
ATOM      9  C   UNL     1      -0.537  10.850  20.993  0.00  0.00    +0.000 A 
ATOM     10  C   UNL     1      -0.159  11.274  19.713  0.00  0.00    +0.000 A 
ATOM     11  C   UNL     1       0.701  10.509  18.919  0.00  0.00    +0.000 A 
ATOM     12  C   UNL     1       1.143   9.322  19.487  0.00  0.00    +0.000 A 
ATOM     13  O   UNL     1       1.980   8.413  18.926  0.00  0.00    +0.000 OA
ATOM     14  C   UNL     1       3.533   6.155  18.358  0.00  0.00    +0.000 A 
ATOM     15  O   UNL     1       3.625   6.873  17.377  0.00  0.00    +0.000 OA
ATOM     16  C   UNL     1       4.113   4.784  18.426  0.00  0.00    +0.000 A 
ATOM     17  C   UNL     1       4.844   4.161  17.303  0.00  0.00    +0.000 C 
ATOM     18  H   UNL     1       2.224   4.893  20.844  0.00  0.00    +0.000 HD
ENDROOT
TORSDOF 0
ENDMDL
MODEL 8
REMARK VINA RESULT:      -6.2      2.136      3.429
REMARK  Name = 
REMARK  2 active torsions:
REMARK  status: ('A' for Active; 'I' for Inactive)
REMARK    1  A    between atoms: C_1  and  C_2
REMARK    2  A    between atoms: C_16  and  C_17
REMARK                            x       y       z     vdW  Elec       q    Type
REMARK                         _______ _______ _______ _____ _____    ______ ____
ROOT
ATOM      1  C   UNL     1       7.874   7.639  17.200  0.00  0.00    +0.000 C 
ATOM      2  C   UNL     1       6.793   6.618  17.109  0.00  0.00    +0.000 A 
ATOM      3  N   UNL     1       5.808   6.503  18.080  0.00  0.00    +0.000 N 
ATOM      4  N   UNL     1       5.091   5.342  17.766  0.00  0.00    +0.000 N 
ATOM      5  C   UNL     1       4.140   4.760  18.562  0.00  0.00    +0.000 A 
ATOM      6  N   UNL     1       3.716   5.163  19.749  0.00  0.00    +0.000 NA
ATOM      7  C   UNL     1       2.789   4.208  20.104  0.00  0.00    +0.000 A 
ATOM      8  C   UNL     1       1.981   4.069  21.241  0.00  0.00    +0.000 A 
ATOM      9  C   UNL     1       1.127   2.954  21.314  0.00  0.00    +0.000 A 
ATOM     10  C   UNL     1       1.083   2.004  20.286  0.00  0.00    +0.000 A 
ATOM     11  C   UNL     1       1.883   2.130  19.146  0.00  0.00    +0.000 A 
ATOM     12  C   UNL     1       2.706   3.248  19.113  0.00  0.00    +0.000 A 
ATOM     13  O   UNL     1       3.567   3.595  18.123  0.00  0.00    +0.000 OA
ATOM     14  C   UNL     1       5.536   4.823  16.559  0.00  0.00    +0.000 A 
ATOM     15  O   UNL     1       5.178   3.842  15.928  0.00  0.00    +0.000 OA
ATOM     16  C   UNL     1       6.667   5.697  16.139  0.00  0.00    +0.000 A 
ATOM     17  C   UNL     1       7.470   5.451  14.923  0.00  0.00    +0.000 C 
ATOM     18  H   UNL     1       6.139   6.539  19.044  0.00  0.00    +0.000 HD
ENDROOT
TORSDOF 0
ENDMDL
MODEL 9
REMARK VINA RESULT:      -6.2      4.506      7.272
REMARK  Name = 
REMARK  2 active torsions:
REMARK  status: ('A' for Active; 'I' for Inactive)
REMARK    1  A    between atoms: C_1  and  C_2
REMARK    2  A    between atoms: C_16  and  C_17
REMARK                            x       y       z     vdW  Elec       q    Type
REMARK                         _______ _______ _______ _____ _____    ______ ____
ROOT
ATOM      1  C   UNL     1      -0.039  10.898  21.680  0.00  0.00    +0.000 C 
ATOM      2  C   UNL     1       0.564  10.175  20.525  0.00  0.00    +0.000 A 
ATOM      3  N   UNL     1       0.938   8.842  20.608  0.00  0.00    +0.000 N 
ATOM      4  N   UNL     1       1.624   8.559  19.420  0.00  0.00    +0.000 N 
ATOM      5  C   UNL     1       2.315   7.405  19.161  0.00  0.00    +0.000 A 
ATOM      6  N   UNL     1       2.468   6.354  19.951  0.00  0.00    +0.000 NA
ATOM      7  C   UNL     1       3.265   5.507  19.213  0.00  0.00    +0.000 A 
ATOM      8  C   UNL     1       3.776   4.231  19.488  0.00  0.00    +0.000 A 
ATOM      9  C   UNL     1       4.584   3.617  18.515  0.00  0.00    +0.000 A 
ATOM     10  C   UNL     1       4.879   4.259  17.305  0.00  0.00    +0.000 A 
ATOM     11  C   UNL     1       4.375   5.531  17.017  0.00  0.00    +0.000 A 
ATOM     12  C   UNL     1       3.577   6.097  18.002  0.00  0.00    +0.000 A 
ATOM     13  O   UNL     1       2.972   7.311  17.962  0.00  0.00    +0.000 OA
ATOM     14  C   UNL     1       1.564   9.652  18.568  0.00  0.00    +0.000 A 
ATOM     15  O   UNL     1       2.014   9.819  17.446  0.00  0.00    +0.000 OA
ATOM     16  C   UNL     1       0.845  10.714  19.326  0.00  0.00    +0.000 A 
ATOM     17  C   UNL     1       0.621  12.075  18.796  0.00  0.00    +0.000 C 
ATOM     18  H   UNL     1       1.446   8.582  21.453  0.00  0.00    +0.000 HD
ENDROOT
TORSDOF 0
ENDMDL
