MODEL 1
REMARK VINA RESULT:      -9.8      0.000      0.000
REMARK  Name = 
REMARK  6 active torsions:
REMARK  status: ('A' for Active; 'I' for Inactive)
REMARK    1  A    between atoms: C_1  and  C_2
REMARK    2  A    between atoms: C_5  and  C_6
REMARK    3  A    between atoms: N_9  and  C_10
REMARK    4  A    between atoms: C_13  and  O_14
REMARK    5  A    between atoms: O_14  and  C_15
REMARK    6  A    between atoms: C_23  and  N_24
REMARK                            x       y       z     vdW  Elec       q    Type
REMARK                         _______ _______ _______ _____ _____    ______ ____
ROOT
ATOM      1  C   UNL     1       0.806   9.689  19.009  0.00  0.00    +0.000 A 
ATOM      2  C   UNL     1       1.043   8.798  20.071  0.00  0.00    +0.000 A 
ATOM      3  C   UNL     1       1.970   7.770  19.938  0.00  0.00    +0.000 A 
ATOM      4  C   UNL     1       2.650   7.635  18.742  0.00  0.00    +0.000 A 
ATOM      5  C   UNL     1       2.379   8.484  17.663  0.00  0.00    +0.000 A 
ATOM      6  C   UNL     1       1.452   9.509  17.786  0.00  0.00    +0.000 A 
ENDROOT
BRANCH   1  12
ATOM      7  C   UNL     1       1.511  12.341  20.540  0.00  0.00    +0.000 C 
ATOM      8  C   UNL     1       0.205  11.967  19.924  0.00  0.00    +0.000 A 
ATOM      9  N   UNL     1      -0.850  12.741  19.847  0.00  0.00    +0.000 NA
ATOM     10  N   UNL     1      -1.810  12.109  19.111  0.00  0.00    +0.000 NA
ATOM     11  C   UNL     1      -1.347  10.935  18.771  0.00  0.00    +0.000 A 
ATOM     12  N   UNL     1      -0.042  10.800  19.214  0.00  0.00    +0.000 N 
BRANCH  11  13
ATOM     13  C   UNL     1      -2.207   9.886  18.067  0.00  0.00    +0.000 C 
ATOM     14  C   UNL     1      -3.470  10.299  17.340  0.00  0.00    +0.000 C 
ATOM     15  C   UNL     1      -2.256   9.947  16.548  0.00  0.00    +0.000 C 
ENDBRANCH  11  13
ENDBRANCH   1  12
BRANCH   4  16
ATOM     16  O   UNL     1       3.663   6.781  18.508  0.00  0.00    +0.000 OA
BRANCH  16  17
ATOM     17  C   UNL     1       3.459   5.435  18.031  0.00  0.00    +0.000 C 
ATOM     18  C   UNL     1       4.598   4.866  17.243  0.00  0.00    +0.000 A 
ATOM     19  C   UNL     1       4.651   4.191  16.044  0.00  0.00    +0.000 A 
ATOM     20  C   UNL     1       5.896   4.092  15.431  0.00  0.00    +0.000 A 
ATOM     21  C   UNL     1       7.012   4.680  16.045  0.00  0.00    +0.000 A 
ATOM     22  C   UNL     1       6.950   5.028  17.400  0.00  0.00    +0.000 A 
ATOM     23  C   UNL     1       5.730   4.897  18.027  0.00  0.00    +0.000 A 
ATOM     24  C   UNL     1       5.283   4.775  19.466  0.00  0.00    +0.000 C 
ATOM     25  C   UNL     1       3.668   4.665  19.351  0.00  0.00    +0.000 C 
BRANCH  25  26
ATOM     26  N   UNL     1       2.994   3.324  19.344  0.00  0.00    +0.000 NA
ATOM     27  C   UNL     1       1.549   3.409  19.003  0.00  0.00    +0.000 C 
ATOM     28  C   UNL     1       0.875   3.899  20.268  0.00  0.00    +0.000 C 
ATOM     29  C   UNL     1       1.589   3.072  21.318  0.00  0.00    +0.000 C 
ATOM     30  C   UNL     1       2.956   2.734  20.700  0.00  0.00    +0.000 C 
ENDBRANCH  25  26
ENDBRANCH  16  17
ENDBRANCH   4  16
TORSDOF 5
ENDMDL
MODEL 2
REMARK VINA RESULT:      -9.1      1.003      1.045
REMARK  Name = 
REMARK  6 active torsions:
REMARK  status: ('A' for Active; 'I' for Inactive)
REMARK    1  A    between atoms: C_1  and  C_2
REMARK    2  A    between atoms: C_5  and  C_6
REMARK    3  A    between atoms: N_9  and  C_10
REMARK    4  A    between atoms: C_13  and  O_14
REMARK    5  A    between atoms: O_14  and  C_15
REMARK    6  A    between atoms: C_23  and  N_24
REMARK                            x       y       z     vdW  Elec       q    Type
REMARK                         _______ _______ _______ _____ _____    ______ ____
ROOT
ATOM      1  C   UNL     1       0.683   9.926  19.057  0.00  0.00    +0.000 A 
ATOM      2  C   UNL     1       0.790   9.228  20.273  0.00  0.00    +0.000 A 
ATOM      3  C   UNL     1       1.612   8.111  20.378  0.00  0.00    +0.000 A 
ATOM      4  C   UNL     1       2.318   7.696  19.264  0.00  0.00    +0.000 A 
ATOM      5  C   UNL     1       2.174   8.353  18.038  0.00  0.00    +0.000 A 
ATOM      6  C   UNL     1       1.352   9.465  17.924  0.00  0.00    +0.000 A 
ENDROOT
BRANCH   1  12
ATOM      7  C   UNL     1       1.652  12.766  19.991  0.00  0.00    +0.000 C 
ATOM      8  C   UNL     1       0.310  12.394  19.458  0.00  0.00    +0.000 A 
ATOM      9  N   UNL     1      -0.668  13.229  19.209  0.00  0.00    +0.000 NA
ATOM     10  N   UNL     1      -1.692  12.548  18.617  0.00  0.00    +0.000 NA
ATOM     11  C   UNL     1      -1.346  11.291  18.541  0.00  0.00    +0.000 A 
ATOM     12  N   UNL     1      -0.054  11.130  19.013  0.00  0.00    +0.000 N 
BRANCH  11  13
ATOM     13  C   UNL     1      -2.309  10.201  18.071  0.00  0.00    +0.000 C 
ATOM     14  C   UNL     1      -3.481  10.553  17.176  0.00  0.00    +0.000 C 
ATOM     15  C   UNL     1      -2.295   9.867  16.587  0.00  0.00    +0.000 C 
ENDBRANCH  11  13
ENDBRANCH   1  12
BRANCH   4  16
ATOM     16  O   UNL     1       3.247   6.722  19.243  0.00  0.00    +0.000 OA
BRANCH  16  17
ATOM     17  C   UNL     1       3.370   5.781  18.157  0.00  0.00    +0.000 C 
ATOM     18  C   UNL     1       4.726   5.725  17.524  0.00  0.00    +0.000 A 
ATOM     19  C   UNL     1       5.138   5.734  16.210  0.00  0.00    +0.000 A 
ATOM     20  C   UNL     1       6.483   6.003  15.973  0.00  0.00    +0.000 A 
ATOM     21  C   UNL     1       7.334   6.254  17.060  0.00  0.00    +0.000 A 
ATOM     22  C   UNL     1       6.935   5.883  18.349  0.00  0.00    +0.000 A 
ATOM     23  C   UNL     1       5.649   5.409  18.497  0.00  0.00    +0.000 A 
ATOM     24  C   UNL     1       4.938   4.573  19.536  0.00  0.00    +0.000 C 
ATOM     25  C   UNL     1       3.423   4.468  18.964  0.00  0.00    +0.000 C 
BRANCH  25  26
ATOM     26  N   UNL     1       2.995   3.281  18.153  0.00  0.00    +0.000 NA
ATOM     27  C   UNL     1       1.542   3.294  17.836  0.00  0.00    +0.000 C 
ATOM     28  C   UNL     1       0.858   2.847  19.112  0.00  0.00    +0.000 C 
ATOM     29  C   UNL     1       1.759   1.707  19.543  0.00  0.00    +0.000 C 
ATOM     30  C   UNL     1       3.131   2.025  18.924  0.00  0.00    +0.000 C 
ENDBRANCH  25  26
ENDBRANCH  16  17
ENDBRANCH   4  16
TORSDOF 5
ENDMDL
MODEL 3
REMARK VINA RESULT:      -9.0      0.647      2.351
REMARK  Name = 
REMARK  6 active torsions:
REMARK  status: ('A' for Active; 'I' for Inactive)
REMARK    1  A    between atoms: C_1  and  C_2
REMARK    2  A    between atoms: C_5  and  C_6
REMARK    3  A    between atoms: N_9  and  C_10
REMARK    4  A    between atoms: C_13  and  O_14
REMARK    5  A    between atoms: O_14  and  C_15
REMARK    6  A    between atoms: C_23  and  N_24
REMARK                            x       y       z     vdW  Elec       q    Type
REMARK                         _______ _______ _______ _____ _____    ______ ____
ROOT
ATOM      1  C   UNL     1       0.814   9.726  18.661  0.00  0.00    +0.000 A 
ATOM      2  C   UNL     1       1.001   9.067  19.888  0.00  0.00    +0.000 A 
ATOM      3  C   UNL     1       1.888   8.000  19.990  0.00  0.00    +0.000 A 
ATOM      4  C   UNL     1       2.577   7.596  18.862  0.00  0.00    +0.000 A 
ATOM      5  C   UNL     1       2.355   8.212  17.626  0.00  0.00    +0.000 A 
ATOM      6  C   UNL     1       1.468   9.273  17.515  0.00  0.00    +0.000 A 
ENDROOT
BRANCH   1  12
ATOM      7  C   UNL     1      -2.247   9.870  17.963  0.00  0.00    +0.000 C 
ATOM      8  C   UNL     1      -1.329  11.006  18.262  0.00  0.00    +0.000 A 
ATOM      9  N   UNL     1      -1.684  12.263  18.369  0.00  0.00    +0.000 NA
ATOM     10  N   UNL     1      -0.604  12.995  18.772  0.00  0.00    +0.000 NA
ATOM     11  C   UNL     1       0.415  12.184  18.874  0.00  0.00    +0.000 A 
ATOM     12  N   UNL     1       0.009  10.885  18.614  0.00  0.00    +0.000 N 
BRANCH  11  13
ATOM     13  C   UNL     1       1.833  12.679  19.156  0.00  0.00    +0.000 C 
ATOM     14  C   UNL     1       2.071  14.119  19.562  0.00  0.00    +0.000 C 
ATOM     15  C   UNL     1       2.156  13.048  20.596  0.00  0.00    +0.000 C 
ENDBRANCH  11  13
ENDBRANCH   1  12
BRANCH   4  16
ATOM     16  O   UNL     1       3.559   6.675  18.831  0.00  0.00    +0.000 OA
BRANCH  16  17
ATOM     17  C   UNL     1       3.372   5.349  18.294  0.00  0.00    +0.000 C 
ATOM     18  C   UNL     1       4.488   4.860  17.424  0.00  0.00    +0.000 A 
ATOM     19  C   UNL     1       4.504   4.248  16.190  0.00  0.00    +0.000 A 
ATOM     20  C   UNL     1       5.720   4.222  15.516  0.00  0.00    +0.000 A 
ATOM     21  C   UNL     1       6.846   4.813  16.108  0.00  0.00    +0.000 A 
ATOM     22  C   UNL     1       6.840   5.089  17.480  0.00  0.00    +0.000 A 
ATOM     23  C   UNL     1       5.656   4.887  18.156  0.00  0.00    +0.000 A 
ATOM     24  C   UNL     1       5.282   4.677  19.605  0.00  0.00    +0.000 C 
ATOM     25  C   UNL     1       3.668   4.520  19.561  0.00  0.00    +0.000 C 
BRANCH  25  26
ATOM     26  N   UNL     1       3.035   3.160  19.514  0.00  0.00    +0.000 NA
ATOM     27  C   UNL     1       1.600   3.208  19.125  0.00  0.00    +0.000 C 
ATOM     28  C   UNL     1       0.870   3.661  20.372  0.00  0.00    +0.000 C 
ATOM     29  C   UNL     1       1.571   2.842  21.436  0.00  0.00    +0.000 C 
ATOM     30  C   UNL     1       2.969   2.551  20.860  0.00  0.00    +0.000 C 
ENDBRANCH  25  26
ENDBRANCH  16  17
ENDBRANCH   4  16
TORSDOF 5
ENDMDL
MODEL 4
REMARK VINA RESULT:      -8.9      1.242      1.686
REMARK  Name = 
REMARK  6 active torsions:
REMARK  status: ('A' for Active; 'I' for Inactive)
REMARK    1  A    between atoms: C_1  and  C_2
REMARK    2  A    between atoms: C_5  and  C_6
REMARK    3  A    between atoms: N_9  and  C_10
REMARK    4  A    between atoms: C_13  and  O_14
REMARK    5  A    between atoms: O_14  and  C_15
REMARK    6  A    between atoms: C_23  and  N_24
REMARK                            x       y       z     vdW  Elec       q    Type
REMARK                         _______ _______ _______ _____ _____    ______ ____
ROOT
ATOM      1  C   UNL     1       0.300  10.106  19.439  0.00  0.00    +0.000 A 
ATOM      2  C   UNL     1       1.041   9.936  18.256  0.00  0.00    +0.000 A 
ATOM      3  C   UNL     1       1.977   8.912  18.150  0.00  0.00    +0.000 A 
ATOM      4  C   UNL     1       2.170   8.070  19.228  0.00  0.00    +0.000 A 
ATOM      5  C   UNL     1       1.476   8.268  20.426  0.00  0.00    +0.000 A 
ATOM      6  C   UNL     1       0.544   9.289  20.542  0.00  0.00    +0.000 A 
ENDROOT
BRANCH   1  12
ATOM      7  C   UNL     1       0.261  12.772  21.102  0.00  0.00    +0.000 C 
ATOM      8  C   UNL     1      -0.820  12.230  20.229  0.00  0.00    +0.000 A 
ATOM      9  N   UNL     1      -1.945  12.838  19.945  0.00  0.00    +0.000 NA
ATOM     10  N   UNL     1      -2.628  12.098  19.024  0.00  0.00    +0.000 NA
ATOM     11  C   UNL     1      -1.929  11.021  18.777  0.00  0.00    +0.000 A 
ATOM     12  N   UNL     1      -0.734  11.067  19.475  0.00  0.00    +0.000 N 
BRANCH  11  13
ATOM     13  C   UNL     1      -2.457   9.882  17.905  0.00  0.00    +0.000 C 
ATOM     14  C   UNL     1      -3.654  10.105  17.003  0.00  0.00    +0.000 C 
ATOM     15  C   UNL     1      -2.291  10.038  16.401  0.00  0.00    +0.000 C 
ENDBRANCH  11  13
ENDBRANCH   1  12
BRANCH   4  16
ATOM     16  O   UNL     1       2.937   6.963  19.232  0.00  0.00    +0.000 OA
BRANCH  16  17
ATOM     17  C   UNL     1       3.084   6.109  18.079  0.00  0.00    +0.000 C 
ATOM     18  C   UNL     1       4.484   5.985  17.563  0.00  0.00    +0.000 A 
ATOM     19  C   UNL     1       5.017   6.067  16.295  0.00  0.00    +0.000 A 
ATOM     20  C   UNL     1       6.395   6.233  16.201  0.00  0.00    +0.000 A 
ATOM     21  C   UNL     1       7.158   6.315  17.375  0.00  0.00    +0.000 A 
ATOM     22  C   UNL     1       6.612   5.875  18.586  0.00  0.00    +0.000 A 
ATOM     23  C   UNL     1       5.283   5.508  18.579  0.00  0.00    +0.000 A 
ATOM     24  C   UNL     1       4.412   4.655  19.472  0.00  0.00    +0.000 C 
ATOM     25  C   UNL     1       2.954   4.734  18.765  0.00  0.00    +0.000 C 
BRANCH  25  26
ATOM     26  N   UNL     1       2.508   3.661  17.814  0.00  0.00    +0.000 NA
ATOM     27  C   UNL     1       1.313   2.922  18.301  0.00  0.00    +0.000 C 
ATOM     28  C   UNL     1       1.843   1.969  19.352  0.00  0.00    +0.000 C 
ATOM     29  C   UNL     1       3.103   1.463  18.680  0.00  0.00    +0.000 C 
ATOM     30  C   UNL     1       3.516   2.584  17.709  0.00  0.00    +0.000 C 
ENDBRANCH  25  26
ENDBRANCH  16  17
ENDBRANCH   4  16
TORSDOF 5
ENDMDL
MODEL 5
REMARK VINA RESULT:      -8.7      0.955      2.383
REMARK  Name = 
REMARK  6 active torsions:
REMARK  status: ('A' for Active; 'I' for Inactive)
REMARK    1  A    between atoms: C_1  and  C_2
REMARK    2  A    between atoms: C_5  and  C_6
REMARK    3  A    between atoms: N_9  and  C_10
REMARK    4  A    between atoms: C_13  and  O_14
REMARK    5  A    between atoms: O_14  and  C_15
REMARK    6  A    between atoms: C_23  and  N_24
REMARK                            x       y       z     vdW  Elec       q    Type
REMARK                         _______ _______ _______ _____ _____    ______ ____
ROOT
ATOM      1  C   UNL     1       0.577   9.504  19.009  0.00  0.00    +0.000 A 
ATOM      2  C   UNL     1       1.371   9.584  17.851  0.00  0.00    +0.000 A 
ATOM      3  C   UNL     1       2.453   8.729  17.676  0.00  0.00    +0.000 A 
ATOM      4  C   UNL     1       2.739   7.803  18.662  0.00  0.00    +0.000 A 
ATOM      5  C   UNL     1       1.987   7.756  19.840  0.00  0.00    +0.000 A 
ATOM      6  C   UNL     1       0.909   8.609  20.025  0.00  0.00    +0.000 A 
ENDROOT
BRANCH   1  12
ATOM      7  C   UNL     1      -1.714   9.744  16.871  0.00  0.00    +0.000 C 
ATOM      8  C   UNL     1      -1.602  10.471  18.168  0.00  0.00    +0.000 A 
ATOM      9  N   UNL     1      -2.506  11.276  18.670  0.00  0.00    +0.000 NA
ATOM     10  N   UNL     1      -2.115  11.657  19.921  0.00  0.00    +0.000 NA
ATOM     11  C   UNL     1      -0.954  11.108  20.162  0.00  0.00    +0.000 A 
ATOM     12  N   UNL     1      -0.591  10.293  19.103  0.00  0.00    +0.000 N 
BRANCH  11  13
ATOM     13  C   UNL     1      -0.135  11.434  21.411  0.00  0.00    +0.000 C 
ATOM     14  C   UNL     1      -0.793  12.107  22.599  0.00  0.00    +0.000 C 
ATOM     15  C   UNL     1      -0.470  10.653  22.673  0.00  0.00    +0.000 C 
ENDBRANCH  11  13
ENDBRANCH   1  12
BRANCH   4  16
ATOM     16  O   UNL     1       3.663   6.828  18.579  0.00  0.00    +0.000 OA
BRANCH  16  17
ATOM     17  C   UNL     1       3.377   5.522  18.037  0.00  0.00    +0.000 C 
ATOM     18  C   UNL     1       4.471   4.934  17.201  0.00  0.00    +0.000 A 
ATOM     19  C   UNL     1       4.469   4.320  15.968  0.00  0.00    +0.000 A 
ATOM     20  C   UNL     1       5.698   4.185  15.330  0.00  0.00    +0.000 A 
ATOM     21  C   UNL     1       6.854   4.678  15.955  0.00  0.00    +0.000 A 
ATOM     22  C   UNL     1       6.831   4.958  17.326  0.00  0.00    +0.000 A 
ATOM     23  C   UNL     1       5.615   4.861  17.966  0.00  0.00    +0.000 A 
ATOM     24  C   UNL     1       5.182   4.689  19.404  0.00  0.00    +0.000 C 
ATOM     25  C   UNL     1       3.562   4.674  19.312  0.00  0.00    +0.000 C 
BRANCH  25  26
ATOM     26  N   UNL     1       2.814   3.374  19.247  0.00  0.00    +0.000 NA
ATOM     27  C   UNL     1       1.357   3.561  19.014  0.00  0.00    +0.000 C 
ATOM     28  C   UNL     1       0.795   3.981  20.356  0.00  0.00    +0.000 C 
ATOM     29  C   UNL     1       1.527   3.037  21.288  0.00  0.00    +0.000 C 
ATOM     30  C   UNL     1       2.831   2.679  20.553  0.00  0.00    +0.000 C 
ENDBRANCH  25  26
ENDBRANCH  16  17
ENDBRANCH   4  16
TORSDOF 5
ENDMDL
MODEL 6
REMARK VINA RESULT:      -8.7      1.153      2.609
REMARK  Name = 
REMARK  6 active torsions:
REMARK  status: ('A' for Active; 'I' for Inactive)
REMARK    1  A    between atoms: C_1  and  C_2
REMARK    2  A    between atoms: C_5  and  C_6
REMARK    3  A    between atoms: N_9  and  C_10
REMARK    4  A    between atoms: C_13  and  O_14
REMARK    5  A    between atoms: O_14  and  C_15
REMARK    6  A    between atoms: C_23  and  N_24
REMARK                            x       y       z     vdW  Elec       q    Type
REMARK                         _______ _______ _______ _____ _____    ______ ____
ROOT
ATOM      1  C   UNL     1       0.751   9.820  18.801  0.00  0.00    +0.000 A 
ATOM      2  C   UNL     1       0.862   9.239  20.076  0.00  0.00    +0.000 A 
ATOM      3  C   UNL     1       1.674   8.128  20.279  0.00  0.00    +0.000 A 
ATOM      4  C   UNL     1       2.366   7.602  19.204  0.00  0.00    +0.000 A 
ATOM      5  C   UNL     1       2.218   8.141  17.922  0.00  0.00    +0.000 A 
ATOM      6  C   UNL     1       1.406   9.246  17.711  0.00  0.00    +0.000 A 
ENDROOT
BRANCH   1  12
ATOM      7  C   UNL     1      -2.270  10.107  17.985  0.00  0.00    +0.000 C 
ATOM      8  C   UNL     1      -1.290  11.202  18.242  0.00  0.00    +0.000 A 
ATOM      9  N   UNL     1      -1.565  12.483  18.252  0.00  0.00    +0.000 NA
ATOM     10  N   UNL     1      -0.454  13.172  18.644  0.00  0.00    +0.000 NA
ATOM     11  C   UNL     1       0.507  12.306  18.836  0.00  0.00    +0.000 A 
ATOM     12  N   UNL     1       0.025  11.022  18.648  0.00  0.00    +0.000 N 
BRANCH  11  13
ATOM     13  C   UNL     1       1.945  12.730  19.135  0.00  0.00    +0.000 C 
ATOM     14  C   UNL     1       2.260  14.172  19.477  0.00  0.00    +0.000 C 
ATOM     15  C   UNL     1       2.251  13.151  20.564  0.00  0.00    +0.000 C 
ENDBRANCH  11  13
ENDBRANCH   1  12
BRANCH   4  16
ATOM     16  O   UNL     1       3.285   6.621  19.268  0.00  0.00    +0.000 OA
BRANCH  16  17
ATOM     17  C   UNL     1       3.505   5.683  18.194  0.00  0.00    +0.000 C 
ATOM     18  C   UNL     1       4.869   5.739  17.579  0.00  0.00    +0.000 A 
ATOM     19  C   UNL     1       5.297   5.770  16.270  0.00  0.00    +0.000 A 
ATOM     20  C   UNL     1       6.615   6.153  16.047  0.00  0.00    +0.000 A 
ATOM     21  C   UNL     1       7.427   6.490  17.141  0.00  0.00    +0.000 A 
ATOM     22  C   UNL     1       7.044   6.099  18.430  0.00  0.00    +0.000 A 
ATOM     23  C   UNL     1       5.803   5.516  18.567  0.00  0.00    +0.000 A 
ATOM     24  C   UNL     1       5.154   4.632  19.607  0.00  0.00    +0.000 C 
ATOM     25  C   UNL     1       3.662   4.388  19.018  0.00  0.00    +0.000 C 
BRANCH  25  26
ATOM     26  N   UNL     1       3.350   3.159  18.215  0.00  0.00    +0.000 NA
ATOM     27  C   UNL     1       2.043   3.249  17.511  0.00  0.00    +0.000 C 
ATOM     28  C   UNL     1       1.003   2.987  18.580  0.00  0.00    +0.000 C 
ATOM     29  C   UNL     1       1.637   1.833  19.329  0.00  0.00    +0.000 C 
ATOM     30  C   UNL     1       3.150   1.983  19.089  0.00  0.00    +0.000 C 
ENDBRANCH  25  26
ENDBRANCH  16  17
ENDBRANCH   4  16
TORSDOF 5
ENDMDL
MODEL 7
REMARK VINA RESULT:      -8.7      1.154      3.735
REMARK  Name = 
REMARK  6 active torsions:
REMARK  status: ('A' for Active; 'I' for Inactive)
REMARK    1  A    between atoms: C_1  and  C_2
REMARK    2  A    between atoms: C_5  and  C_6
REMARK    3  A    between atoms: N_9  and  C_10
REMARK    4  A    between atoms: C_13  and  O_14
REMARK    5  A    between atoms: O_14  and  C_15
REMARK    6  A    between atoms: C_23  and  N_24
REMARK                            x       y       z     vdW  Elec       q    Type
REMARK                         _______ _______ _______ _____ _____    ______ ____
ROOT
ATOM      1  C   UNL     1       1.011  10.294  19.224  0.00  0.00    +0.000 A 
ATOM      2  C   UNL     1       1.686  10.237  17.992  0.00  0.00    +0.000 A 
ATOM      3  C   UNL     1       2.307   9.063  17.580  0.00  0.00    +0.000 A 
ATOM      4  C   UNL     1       2.255   7.955  18.406  0.00  0.00    +0.000 A 
ATOM      5  C   UNL     1       1.633   8.022  19.656  0.00  0.00    +0.000 A 
ATOM      6  C   UNL     1       1.014   9.191  20.077  0.00  0.00    +0.000 A 
ENDROOT
BRANCH   1  12
ATOM      7  C   UNL     1       2.105  12.867  20.659  0.00  0.00    +0.000 C 
ATOM      8  C   UNL     1       0.702  12.590  20.235  0.00  0.00    +0.000 A 
ATOM      9  N   UNL     1      -0.298  13.433  20.318  0.00  0.00    +0.000 NA
ATOM     10  N   UNL     1      -1.394  12.878  19.723  0.00  0.00    +0.000 NA
ATOM     11  C   UNL     1      -1.065  11.683  19.311  0.00  0.00    +0.000 A 
ATOM     12  N   UNL     1       0.278  11.454  19.558  0.00  0.00    +0.000 N 
BRANCH  11  13
ATOM     13  C   UNL     1      -2.087  10.705  18.730  0.00  0.00    +0.000 C 
ATOM     14  C   UNL     1      -3.127  11.188  17.740  0.00  0.00    +0.000 C 
ATOM     15  C   UNL     1      -1.967  10.391  17.247  0.00  0.00    +0.000 C 
ENDBRANCH  11  13
ENDBRANCH   1  12
BRANCH   4  16
ATOM     16  O   UNL     1       2.690   6.721  18.091  0.00  0.00    +0.000 OA
BRANCH  16  17
ATOM     17  C   UNL     1       3.478   5.915  18.991  0.00  0.00    +0.000 C 
ATOM     18  C   UNL     1       2.738   4.780  19.630  0.00  0.00    +0.000 A 
ATOM     19  C   UNL     1       2.662   4.338  20.932  0.00  0.00    +0.000 A 
ATOM     20  C   UNL     1       1.627   3.461  21.240  0.00  0.00    +0.000 A 
ATOM     21  C   UNL     1       0.725   3.083  20.234  0.00  0.00    +0.000 A 
ATOM     22  C   UNL     1       1.066   3.282  18.891  0.00  0.00    +0.000 A 
ATOM     23  C   UNL     1       2.230   3.974  18.635  0.00  0.00    +0.000 A 
ATOM     24  C   UNL     1       3.158   4.088  17.447  0.00  0.00    +0.000 C 
ATOM     25  C   UNL     1       4.303   5.118  17.961  0.00  0.00    +0.000 C 
BRANCH  25  26
ATOM     26  N   UNL     1       5.590   4.602  18.536  0.00  0.00    +0.000 NA
ATOM     27  C   UNL     1       6.397   5.668  19.187  0.00  0.00    +0.000 C 
ATOM     28  C   UNL     1       7.044   6.423  18.044  0.00  0.00    +0.000 C 
ATOM     29  C   UNL     1       7.471   5.282  17.144  0.00  0.00    +0.000 C 
ATOM     30  C   UNL     1       6.503   4.131  17.472  0.00  0.00    +0.000 C 
ENDBRANCH  25  26
ENDBRANCH  16  17
ENDBRANCH   4  16
TORSDOF 5
ENDMDL
MODEL 8
REMARK VINA RESULT:      -8.6      1.052      1.228
REMARK  Name = 
REMARK  6 active torsions:
REMARK  status: ('A' for Active; 'I' for Inactive)
REMARK    1  A    between atoms: C_1  and  C_2
REMARK    2  A    between atoms: C_5  and  C_6
REMARK    3  A    between atoms: N_9  and  C_10
REMARK    4  A    between atoms: C_13  and  O_14
REMARK    5  A    between atoms: O_14  and  C_15
REMARK    6  A    between atoms: C_23  and  N_24
REMARK                            x       y       z     vdW  Elec       q    Type
REMARK                         _______ _______ _______ _____ _____    ______ ____
ROOT
ATOM      1  C   UNL     1       0.803   9.196  19.850  0.00  0.00    +0.000 A 
ATOM      2  C   UNL     1       1.135   8.032  20.564  0.00  0.00    +0.000 A 
ATOM      3  C   UNL     1       2.068   7.133  20.057  0.00  0.00    +0.000 A 
ATOM      4  C   UNL     1       2.658   7.402  18.837  0.00  0.00    +0.000 A 
ATOM      5  C   UNL     1       2.292   8.530  18.096  0.00  0.00    +0.000 A 
ATOM      6  C   UNL     1       1.359   9.429  18.592  0.00  0.00    +0.000 A 
ENDROOT
BRANCH   1  12
ATOM      7  C   UNL     1       0.394   9.703  22.925  0.00  0.00    +0.000 C 
ATOM      8  C   UNL     1      -0.299  10.382  21.792  0.00  0.00    +0.000 A 
ATOM      9  N   UNL     1      -1.142  11.378  21.903  0.00  0.00    +0.000 NA
ATOM     10  N   UNL     1      -1.475  11.818  20.654  0.00  0.00    +0.000 NA
ATOM     11  C   UNL     1      -0.859  11.062  19.785  0.00  0.00    +0.000 A 
ATOM     12  N   UNL     1      -0.046  10.155  20.445  0.00  0.00    +0.000 N 
BRANCH  11  13
ATOM     13  C   UNL     1      -1.114  11.163  18.281  0.00  0.00    +0.000 C 
ATOM     14  C   UNL     1      -1.990  10.141  17.586  0.00  0.00    +0.000 C 
ATOM     15  C   UNL     1      -2.532  11.505  17.849  0.00  0.00    +0.000 C 
ENDBRANCH  11  13
ENDBRANCH   1  12
BRANCH   4  16
ATOM     16  O   UNL     1       3.666   6.703  18.282  0.00  0.00    +0.000 OA
BRANCH  16  17
ATOM     17  C   UNL     1       3.523   5.337  17.842  0.00  0.00    +0.000 C 
ATOM     18  C   UNL     1       4.696   4.792  17.088  0.00  0.00    +0.000 A 
ATOM     19  C   UNL     1       4.796   4.085  15.910  0.00  0.00    +0.000 A 
ATOM     20  C   UNL     1       6.054   4.020  15.320  0.00  0.00    +0.000 A 
ATOM     21  C   UNL     1       7.136   4.668  15.935  0.00  0.00    +0.000 A 
ATOM     22  C   UNL     1       7.038   5.051  17.277  0.00  0.00    +0.000 A 
ATOM     23  C   UNL     1       5.813   4.890  17.889  0.00  0.00    +0.000 A 
ATOM     24  C   UNL     1       5.347   4.791  19.323  0.00  0.00    +0.000 C 
ATOM     25  C   UNL     1       3.739   4.613  19.187  0.00  0.00    +0.000 C 
BRANCH  25  26
ATOM     26  N   UNL     1       3.119   3.247  19.207  0.00  0.00    +0.000 NA
ATOM     27  C   UNL     1       1.656   3.276  18.937  0.00  0.00    +0.000 C 
ATOM     28  C   UNL     1       1.027   3.737  20.236  0.00  0.00    +0.000 C 
ATOM     29  C   UNL     1       1.823   2.937  21.247  0.00  0.00    +0.000 C 
ATOM     30  C   UNL     1       3.171   2.653  20.561  0.00  0.00    +0.000 C 
ENDBRANCH  25  26
ENDBRANCH  16  17
ENDBRANCH   4  16
TORSDOF 5
ENDMDL
MODEL 9
REMARK VINA RESULT:      -8.6      1.154      3.563
REMARK  Name = 
REMARK  6 active torsions:
REMARK  status: ('A' for Active; 'I' for Inactive)
REMARK    1  A    between atoms: C_1  and  C_2
REMARK    2  A    between atoms: C_5  and  C_6
REMARK    3  A    between atoms: N_9  and  C_10
REMARK    4  A    between atoms: C_13  and  O_14
REMARK    5  A    between atoms: O_14  and  C_15
REMARK    6  A    between atoms: C_23  and  N_24
REMARK                            x       y       z     vdW  Elec       q    Type
REMARK                         _______ _______ _______ _____ _____    ______ ____
ROOT
ATOM      1  C   UNL     1       0.520  10.006  19.203  0.00  0.00    +0.000 A 
ATOM      2  C   UNL     1       0.901   9.113  20.219  0.00  0.00    +0.000 A 
ATOM      3  C   UNL     1       1.755   8.050  19.943  0.00  0.00    +0.000 A 
ATOM      4  C   UNL     1       2.217   7.884  18.651  0.00  0.00    +0.000 A 
ATOM      5  C   UNL     1       1.798   8.736  17.624  0.00  0.00    +0.000 A 
ATOM      6  C   UNL     1       0.943   9.796  17.890  0.00  0.00    +0.000 A 
ENDROOT
BRANCH   1  12
ATOM      7  C   UNL     1       1.501  12.521  20.811  0.00  0.00    +0.000 C 
ATOM      8  C   UNL     1       0.131  12.257  20.284  0.00  0.00    +0.000 A 
ATOM      9  N   UNL     1      -0.878  13.092  20.335  0.00  0.00    +0.000 NA
ATOM     10  N   UNL     1      -1.929  12.559  19.647  0.00  0.00    +0.000 NA
ATOM     11  C   UNL     1      -1.566  11.383  19.209  0.00  0.00    +0.000 A 
ATOM     12  N   UNL     1      -0.241  11.149  19.535  0.00  0.00    +0.000 N 
BRANCH  11  13
ATOM     13  C   UNL     1      -2.541  10.425  18.523  0.00  0.00    +0.000 C 
ATOM     14  C   UNL     1      -3.667  10.968  17.667  0.00  0.00    +0.000 C 
ATOM     15  C   UNL     1      -2.479  10.357  17.004  0.00  0.00    +0.000 C 
ENDBRANCH  11  13
ENDBRANCH   1  12
BRANCH   4  16
ATOM     16  O   UNL     1       3.145   6.991  18.259  0.00  0.00    +0.000 OA
BRANCH  16  17
ATOM     17  C   UNL     1       3.739   6.033  19.158  0.00  0.00    +0.000 C 
ATOM     18  C   UNL     1       2.837   4.910  19.567  0.00  0.00    +0.000 A 
ATOM     19  C   UNL     1       2.551   4.348  20.792  0.00  0.00    +0.000 A 
ATOM     20  C   UNL     1       1.421   3.540  20.865  0.00  0.00    +0.000 A 
ATOM     21  C   UNL     1       0.640   3.346  19.716  0.00  0.00    +0.000 A 
ATOM     22  C   UNL     1       1.176   3.646  18.458  0.00  0.00    +0.000 A 
ATOM     23  C   UNL     1       2.412   4.255  18.432  0.00  0.00    +0.000 A 
ATOM     24  C   UNL     1       3.501   4.405  17.394  0.00  0.00    +0.000 C 
ATOM     25  C   UNL     1       4.637   5.273  18.160  0.00  0.00    +0.000 C 
BRANCH  25  26
ATOM     26  N   UNL     1       5.791   4.591  18.835  0.00  0.00    +0.000 NA
ATOM     27  C   UNL     1       6.710   5.548  19.509  0.00  0.00    +0.000 C 
ATOM     28  C   UNL     1       7.536   6.152  18.393  0.00  0.00    +0.000 C 
ATOM     29  C   UNL     1       7.838   4.925  17.555  0.00  0.00    +0.000 C 
ATOM     30  C   UNL     1       6.686   3.947  17.849  0.00  0.00    +0.000 C 
ENDBRANCH  25  26
ENDBRANCH  16  17
ENDBRANCH   4  16
TORSDOF 5
ENDMDL
