MODEL 1
REMARK VINA RESULT:      -8.3      0.000      0.000
REMARK  Name = 
REMARK  6 active torsions:
REMARK  status: ('A' for Active; 'I' for Inactive)
REMARK    1  A    between atoms: C_1  and  N_2
REMARK    2  A    between atoms: N_2  and  C_3
REMARK    3  A    between atoms: C_9  and  C_10
REMARK    4  A    between atoms: C_10  and  C_12
REMARK    5  A    between atoms: C_13  and  C_14
REMARK    6  A    between atoms: C_17  and  C_18
REMARK                            x       y       z     vdW  Elec       q    Type
REMARK                         _______ _______ _______ _____ _____    ______ ____
ROOT
ATOM      1  C   UNL     1       2.564   7.850  18.068  0.00  0.00    +0.000 C 
ATOM      2  O   UNL     1       2.839   8.585  17.099  0.00  0.00    +0.000 OA
ENDROOT
BRANCH   1   9
ATOM      3  C   UNL     1       5.000   4.384  18.147  0.00  0.00    +0.000 A 
ATOM      4  C   UNL     1       4.218   3.299  17.972  0.00  0.00    +0.000 A 
ATOM      5  C   UNL     1       2.829   3.378  17.597  0.00  0.00    +0.000 A 
ATOM      6  C   UNL     1       2.084   4.151  18.397  0.00  0.00    +0.000 A 
ATOM      7 BR   UNL     1       1.958   3.873  20.263  0.00  0.00    +0.000 Br
ATOM      8  C   UNL     1       2.033   5.551  18.056  0.00  0.00    +0.000 A 
ATOM      9  C   UNL     1       3.092   6.402  18.036  0.00  0.00    +0.000 A 
ATOM     10  C   UNL     1       4.539   5.907  18.016  0.00  0.00    +0.000 A 
ATOM     11  O   UNL     1       5.450   6.725  17.842  0.00  0.00    +0.000 OA
BRANCH   3  13
ATOM     12  C   UNL     1       7.477   4.469  17.486  0.00  0.00    +0.000 C 
ATOM     13  N   UNL     1       6.369   4.208  18.379  0.00  0.00    +0.000 N 
ATOM     14  H   UNL     1       6.588   3.956  19.343  0.00  0.00    +0.000 HD
ENDBRANCH   3  13
ENDBRANCH   1   9
BRANCH   1  15
ATOM     15  C   UNL     1       1.651   8.569  19.038  0.00  0.00    +0.000 C 
ATOM     16  C   UNL     1       1.313   8.434  20.326  0.00  0.00    +0.000 C 
BRANCH  16  17
ATOM     17  C   UNL     1       0.471   9.359  21.167  0.00  0.00    +0.000 A 
ATOM     18  C   UNL     1       0.184   9.273  22.547  0.00  0.00    +0.000 A 
ATOM     19  C   UNL     1      -0.664  10.216  23.184  0.00  0.00    +0.000 A 
ATOM     20  C   UNL     1      -1.254  11.271  22.464  0.00  0.00    +0.000 A 
ATOM     21  C   UNL     1      -0.962  11.364  21.101  0.00  0.00    +0.000 A 
ATOM     22  C   UNL     1      -0.120  10.434  20.471  0.00  0.00    +0.000 A 
BRANCH  20  23
ATOM     23  C   UNL     1      -2.185  12.288  23.090  0.00  0.00    +0.000 C 
ATOM     24  F   UNL     1      -3.095  11.755  23.954  0.00  0.00    +0.000 F 
ATOM     25  F   UNL     1      -1.518  13.243  23.797  0.00  0.00    +0.000 F 
ATOM     26  F   UNL     1      -2.914  12.967  22.158  0.00  0.00    +0.000 F 
ENDBRANCH  20  23
ENDBRANCH  16  17
ENDBRANCH   1  15
TORSDOF 5
ENDMDL
MODEL 2
REMARK VINA RESULT:      -8.3      6.893      8.197
REMARK  Name = 
REMARK  6 active torsions:
REMARK  status: ('A' for Active; 'I' for Inactive)
REMARK    1  A    between atoms: C_1  and  N_2
REMARK    2  A    between atoms: N_2  and  C_3
REMARK    3  A    between atoms: C_9  and  C_10
REMARK    4  A    between atoms: C_10  and  C_12
REMARK    5  A    between atoms: C_13  and  C_14
REMARK    6  A    between atoms: C_17  and  C_18
REMARK                            x       y       z     vdW  Elec       q    Type
REMARK                         _______ _______ _______ _____ _____    ______ ____
ROOT
ATOM      1  C   UNL     1       7.747   6.059  18.888  0.00  0.00    +0.000 C 
ATOM      2  O   UNL     1       8.425   5.316  19.625  0.00  0.00    +0.000 OA
ENDROOT
BRANCH   1   9
ATOM      3  C   UNL     1       5.542   3.983  15.924  0.00  0.00    +0.000 A 
ATOM      4  C   UNL     1       4.237   3.998  16.264  0.00  0.00    +0.000 A 
ATOM      5  C   UNL     1       3.709   4.795  17.343  0.00  0.00    +0.000 A 
ATOM      6  C   UNL     1       4.317   4.603  18.520  0.00  0.00    +0.000 A 
ATOM      7 BR   UNL     1       4.453   2.904  19.337  0.00  0.00    +0.000 Br
ATOM      8  C   UNL     1       5.479   5.418  18.772  0.00  0.00    +0.000 A 
ATOM      9  C   UNL     1       6.631   5.404  18.051  0.00  0.00    +0.000 A 
ATOM     10  C   UNL     1       6.713   4.786  16.653  0.00  0.00    +0.000 A 
ATOM     11  O   UNL     1       7.744   4.942  15.989  0.00  0.00    +0.000 OA
BRANCH   3  13
ATOM     12  C   UNL     1       5.960   3.735  13.406  0.00  0.00    +0.000 C 
ATOM     13  N   UNL     1       5.941   3.282  14.780  0.00  0.00    +0.000 N 
ATOM     14  H   UNL     1       6.360   2.375  14.985  0.00  0.00    +0.000 HD
ENDBRANCH   3  13
ENDBRANCH   1   9
BRANCH   1  15
ATOM     15  C   UNL     1       8.281   7.475  18.925  0.00  0.00    +0.000 C 
ATOM     16  C   UNL     1       8.247   8.540  18.115  0.00  0.00    +0.000 C 
BRANCH  16  17
ATOM     17  C   UNL     1       8.731   9.938  18.400  0.00  0.00    +0.000 A 
ATOM     18  C   UNL     1       8.564  11.102  17.616  0.00  0.00    +0.000 A 
ATOM     19  C   UNL     1       9.119  12.346  18.016  0.00  0.00    +0.000 A 
ATOM     20  C   UNL     1       9.859  12.467  19.205  0.00  0.00    +0.000 A 
ATOM     21  C   UNL     1      10.015  11.320  19.987  0.00  0.00    +0.000 A 
ATOM     22  C   UNL     1       9.464  10.090  19.596  0.00  0.00    +0.000 A 
BRANCH  20  23
ATOM     23  C   UNL     1      10.493  13.764  19.664  0.00  0.00    +0.000 C 
ATOM     24  F   UNL     1      10.807  13.793  20.990  0.00  0.00    +0.000 F 
ATOM     25  F   UNL     1      11.651  14.042  19.002  0.00  0.00    +0.000 F 
ATOM     26  F   UNL     1       9.684  14.841  19.453  0.00  0.00    +0.000 F 
ENDBRANCH  20  23
ENDBRANCH  16  17
ENDBRANCH   1  15
TORSDOF 5
ENDMDL
MODEL 3
REMARK VINA RESULT:      -8.2      6.243      7.782
REMARK  Name = 
REMARK  6 active torsions:
REMARK  status: ('A' for Active; 'I' for Inactive)
REMARK    1  A    between atoms: C_1  and  N_2
REMARK    2  A    between atoms: N_2  and  C_3
REMARK    3  A    between atoms: C_9  and  C_10
REMARK    4  A    between atoms: C_10  and  C_12
REMARK    5  A    between atoms: C_13  and  C_14
REMARK    6  A    between atoms: C_17  and  C_18
REMARK                            x       y       z     vdW  Elec       q    Type
REMARK                         _______ _______ _______ _____ _____    ______ ____
ROOT
ATOM      1  C   UNL     1       7.086   6.963  17.119  0.00  0.00    +0.000 C 
ATOM      2  O   UNL     1       7.707   6.722  16.064  0.00  0.00    +0.000 OA
ENDROOT
BRANCH   1   9
ATOM      3  C   UNL     1       4.833   3.799  18.812  0.00  0.00    +0.000 A 
ATOM      4  C   UNL     1       3.556   3.901  18.390  0.00  0.00    +0.000 A 
ATOM      5  C   UNL     1       3.134   4.814  17.359  0.00  0.00    +0.000 A 
ATOM      6  C   UNL     1       3.474   6.090  17.578  0.00  0.00    +0.000 A 
ATOM      7 BR   UNL     1       2.974   7.028  19.142  0.00  0.00    +0.000 Br
ATOM      8  C   UNL     1       4.774   6.490  17.101  0.00  0.00    +0.000 A 
ATOM      9  C   UNL     1       5.964   5.986  17.523  0.00  0.00    +0.000 A 
ATOM     10  C   UNL     1       6.067   4.669  18.294  0.00  0.00    +0.000 A 
ATOM     11  O   UNL     1       7.185   4.189  18.513  0.00  0.00    +0.000 OA
BRANCH   3  13
ATOM     12  C   UNL     1       4.311   2.075  20.638  0.00  0.00    +0.000 C 
ATOM     13  N   UNL     1       5.173   2.792  19.723  0.00  0.00    +0.000 N 
ATOM     14  H   UNL     1       6.139   2.476  19.637  0.00  0.00    +0.000 HD
ENDBRANCH   3  13
ENDBRANCH   1   9
BRANCH   1  15
ATOM     15  C   UNL     1       7.546   8.274  17.718  0.00  0.00    +0.000 C 
ATOM     16  C   UNL     1       8.585   8.687  18.454  0.00  0.00    +0.000 C 
BRANCH  16  17
ATOM     17  C   UNL     1       8.945  10.098  18.843  0.00  0.00    +0.000 A 
ATOM     18  C   UNL     1       9.440  10.568  20.080  0.00  0.00    +0.000 A 
ATOM     19  C   UNL     1       9.697  11.947  20.294  0.00  0.00    +0.000 A 
ATOM     20  C   UNL     1       9.467  12.899  19.285  0.00  0.00    +0.000 A 
ATOM     21  C   UNL     1       8.988  12.434  18.057  0.00  0.00    +0.000 A 
ATOM     22  C   UNL     1       8.737  11.070  17.842  0.00  0.00    +0.000 A 
BRANCH  20  23
ATOM     23  C   UNL     1       9.700  14.384  19.470  0.00  0.00    +0.000 C 
ATOM     24  F   UNL     1       8.891  14.964  20.401  0.00  0.00    +0.000 F 
ATOM     25  F   UNL     1      10.975  14.669  19.858  0.00  0.00    +0.000 F 
ATOM     26  F   UNL     1       9.503  15.089  18.319  0.00  0.00    +0.000 F 
ENDBRANCH  20  23
ENDBRANCH  16  17
ENDBRANCH   1  15
TORSDOF 5
ENDMDL
MODEL 4
REMARK VINA RESULT:      -8.2      6.889      8.140
REMARK  Name = 
REMARK  6 active torsions:
REMARK  status: ('A' for Active; 'I' for Inactive)
REMARK    1  A    between atoms: C_1  and  N_2
REMARK    2  A    between atoms: N_2  and  C_3
REMARK    3  A    between atoms: C_9  and  C_10
REMARK    4  A    between atoms: C_10  and  C_12
REMARK    5  A    between atoms: C_13  and  C_14
REMARK    6  A    between atoms: C_17  and  C_18
REMARK                            x       y       z     vdW  Elec       q    Type
REMARK                         _______ _______ _______ _____ _____    ______ ____
ROOT
ATOM      1  C   UNL     1       7.733   6.052  18.902  0.00  0.00    +0.000 C 
ATOM      2  O   UNL     1       8.346   5.320  19.703  0.00  0.00    +0.000 OA
ENDROOT
BRANCH   1   9
ATOM      3  C   UNL     1       5.518   4.005  15.926  0.00  0.00    +0.000 A 
ATOM      4  C   UNL     1       4.213   4.022  16.267  0.00  0.00    +0.000 A 
ATOM      5  C   UNL     1       3.690   4.813  17.352  0.00  0.00    +0.000 A 
ATOM      6  C   UNL     1       4.298   4.611  18.527  0.00  0.00    +0.000 A 
ATOM      7 BR   UNL     1       4.429   2.905  19.331  0.00  0.00    +0.000 Br
ATOM      8  C   UNL     1       5.462   5.420  18.784  0.00  0.00    +0.000 A 
ATOM      9  C   UNL     1       6.614   5.407  18.061  0.00  0.00    +0.000 A 
ATOM     10  C   UNL     1       6.693   4.799  16.659  0.00  0.00    +0.000 A 
ATOM     11  O   UNL     1       7.724   4.957  15.995  0.00  0.00    +0.000 OA
BRANCH   3  13
ATOM     12  C   UNL     1       5.811   3.724  13.393  0.00  0.00    +0.000 C 
ATOM     13  N   UNL     1       5.914   3.312  14.776  0.00  0.00    +0.000 N 
ATOM     14  H   UNL     1       6.426   2.452  14.976  0.00  0.00    +0.000 HD
ENDBRANCH   3  13
ENDBRANCH   1   9
BRANCH   1  15
ATOM     15  C   UNL     1       8.336   7.440  18.881  0.00  0.00    +0.000 C 
ATOM     16  C   UNL     1       8.151   8.562  18.176  0.00  0.00    +0.000 C 
BRANCH  16  17
ATOM     17  C   UNL     1       8.772   9.916  18.406  0.00  0.00    +0.000 A 
ATOM     18  C   UNL     1       9.759  10.281  19.348  0.00  0.00    +0.000 A 
ATOM     19  C   UNL     1      10.213  11.621  19.458  0.00  0.00    +0.000 A 
ATOM     20  C   UNL     1       9.695  12.638  18.637  0.00  0.00    +0.000 A 
ATOM     21  C   UNL     1       8.727  12.277  17.697  0.00  0.00    +0.000 A 
ATOM     22  C   UNL     1       8.280  10.951  17.583  0.00  0.00    +0.000 A 
BRANCH  20  23
ATOM     23  C   UNL     1      10.126  14.087  18.731  0.00  0.00    +0.000 C 
ATOM     24  F   UNL     1       9.898  14.659  19.947  0.00  0.00    +0.000 F 
ATOM     25  F   UNL     1      11.456  14.255  18.487  0.00  0.00    +0.000 F 
ATOM     26  F   UNL     1       9.486  14.880  17.824  0.00  0.00    +0.000 F 
ENDBRANCH  20  23
ENDBRANCH  16  17
ENDBRANCH   1  15
TORSDOF 5
ENDMDL
MODEL 5
REMARK VINA RESULT:      -8.1      6.283      7.870
REMARK  Name = 
REMARK  6 active torsions:
REMARK  status: ('A' for Active; 'I' for Inactive)
REMARK    1  A    between atoms: C_1  and  N_2
REMARK    2  A    between atoms: N_2  and  C_3
REMARK    3  A    between atoms: C_9  and  C_10
REMARK    4  A    between atoms: C_10  and  C_12
REMARK    5  A    between atoms: C_13  and  C_14
REMARK    6  A    between atoms: C_17  and  C_18
REMARK                            x       y       z     vdW  Elec       q    Type
REMARK                         _______ _______ _______ _____ _____    ______ ____
ROOT
ATOM      1  C   UNL     1       7.134   7.056  17.178  0.00  0.00    +0.000 C 
ATOM      2  O   UNL     1       7.805   6.798  16.159  0.00  0.00    +0.000 OA
ENDROOT
BRANCH   1   9
ATOM      3  C   UNL     1       4.866   3.884  18.834  0.00  0.00    +0.000 A 
ATOM      4  C   UNL     1       3.599   3.973  18.379  0.00  0.00    +0.000 A 
ATOM      5  C   UNL     1       3.196   4.877  17.332  0.00  0.00    +0.000 A 
ATOM      6  C   UNL     1       3.519   6.157  17.552  0.00  0.00    +0.000 A 
ATOM      7 BR   UNL     1       2.973   7.100  19.097  0.00  0.00    +0.000 Br
ATOM      8  C   UNL     1       4.828   6.565  17.106  0.00  0.00    +0.000 A 
ATOM      9  C   UNL     1       6.011   6.073  17.560  0.00  0.00    +0.000 A 
ATOM     10  C   UNL     1       6.105   4.762  18.341  0.00  0.00    +0.000 A 
ATOM     11  O   UNL     1       7.221   4.292  18.591  0.00  0.00    +0.000 OA
BRANCH   3  13
ATOM     12  C   UNL     1       4.371   1.789  20.227  0.00  0.00    +0.000 C 
ATOM     13  N   UNL     1       5.190   2.885  19.758  0.00  0.00    +0.000 N 
ATOM     14  H   UNL     1       6.169   2.900  20.046  0.00  0.00    +0.000 HD
ENDBRANCH   3  13
ENDBRANCH   1   9
BRANCH   1  15
ATOM     15  C   UNL     1       7.548   8.391  17.761  0.00  0.00    +0.000 C 
ATOM     16  C   UNL     1       8.680   8.930  18.229  0.00  0.00    +0.000 C 
BRANCH  16  17
ATOM     17  C   UNL     1       8.925  10.357  18.647  0.00  0.00    +0.000 A 
ATOM     18  C   UNL     1       8.811  11.532  17.869  0.00  0.00    +0.000 A 
ATOM     19  C   UNL     1       9.116  12.807  18.412  0.00  0.00    +0.000 A 
ATOM     20  C   UNL     1       9.546  12.951  19.743  0.00  0.00    +0.000 A 
ATOM     21  C   UNL     1       9.648  11.793  20.516  0.00  0.00    +0.000 A 
ATOM     22  C   UNL     1       9.343  10.530  19.983  0.00  0.00    +0.000 A 
BRANCH  20  23
ATOM     23  C   UNL     1       9.908  14.285  20.362  0.00  0.00    +0.000 C 
ATOM     24  F   UNL     1      10.649  15.094  19.553  0.00  0.00    +0.000 F 
ATOM     25  F   UNL     1       8.811  15.015  20.711  0.00  0.00    +0.000 F 
ATOM     26  F   UNL     1      10.633  14.146  21.509  0.00  0.00    +0.000 F 
ENDBRANCH  20  23
ENDBRANCH  16  17
ENDBRANCH   1  15
TORSDOF 5
ENDMDL
MODEL 6
REMARK VINA RESULT:      -8.1      2.265      2.925
REMARK  Name = 
REMARK  6 active torsions:
REMARK  status: ('A' for Active; 'I' for Inactive)
REMARK    1  A    between atoms: C_1  and  N_2
REMARK    2  A    between atoms: N_2  and  C_3
REMARK    3  A    between atoms: C_9  and  C_10
REMARK    4  A    between atoms: C_10  and  C_12
REMARK    5  A    between atoms: C_13  and  C_14
REMARK    6  A    between atoms: C_17  and  C_18
REMARK                            x       y       z     vdW  Elec       q    Type
REMARK                         _______ _______ _______ _____ _____    ______ ____
ROOT
ATOM      1  C   UNL     1       3.602   6.560  17.983  0.00  0.00    +0.000 C 
ATOM      2  O   UNL     1       4.559   6.926  17.272  0.00  0.00    +0.000 OA
ENDROOT
BRANCH   1   9
ATOM      3  C   UNL     1       4.170   2.533  19.172  0.00  0.00    +0.000 A 
ATOM      4  C   UNL     1       3.094   1.812  18.792  0.00  0.00    +0.000 A 
ATOM      5  C   UNL     1       2.061   2.328  17.930  0.00  0.00    +0.000 A 
ATOM      6  C   UNL     1       1.513   3.475  18.350  0.00  0.00    +0.000 A 
ATOM      7 BR   UNL     1       0.715   3.665  20.053  0.00  0.00    +0.000 Br
ATOM      8  C   UNL     1       2.172   4.684  17.925  0.00  0.00    +0.000 A 
ATOM      9  C   UNL     1       3.443   5.048  18.240  0.00  0.00    +0.000 A 
ATOM     10  C   UNL     1       4.468   4.052  18.784  0.00  0.00    +0.000 A 
ATOM     11  O   UNL     1       5.646   4.409  18.904  0.00  0.00    +0.000 OA
BRANCH   3  13
ATOM     12  C   UNL     1       5.111   1.280  21.202  0.00  0.00    +0.000 C 
ATOM     13  N   UNL     1       5.187   1.907  19.900  0.00  0.00    +0.000 N 
ATOM     14  H   UNL     1       6.059   1.808  19.379  0.00  0.00    +0.000 HD
ENDBRANCH   3  13
ENDBRANCH   1   9
BRANCH   1  15
ATOM     15  C   UNL     1       2.735   7.743  18.356  0.00  0.00    +0.000 C 
ATOM     16  C   UNL     1       2.012   8.655  17.694  0.00  0.00    +0.000 C 
BRANCH  16  17
ATOM     17  C   UNL     1       1.082   9.694  18.266  0.00  0.00    +0.000 A 
ATOM     18  C   UNL     1       1.391  10.769  19.129  0.00  0.00    +0.000 A 
ATOM     19  C   UNL     1       0.381  11.644  19.607  0.00  0.00    +0.000 A 
ATOM     20  C   UNL     1      -0.966  11.474  19.242  0.00  0.00    +0.000 A 
ATOM     21  C   UNL     1      -1.272  10.419  18.379  0.00  0.00    +0.000 A 
ATOM     22  C   UNL     1      -0.274   9.555  17.902  0.00  0.00    +0.000 A 
BRANCH  20  23
ATOM     23  C   UNL     1      -2.085  12.363  19.743  0.00  0.00    +0.000 C 
ATOM     24  F   UNL     1      -1.783  13.693  19.745  0.00  0.00    +0.000 F 
ATOM     25  F   UNL     1      -3.222  12.242  19.002  0.00  0.00    +0.000 F 
ATOM     26  F   UNL     1      -2.451  12.066  21.023  0.00  0.00    +0.000 F 
ENDBRANCH  20  23
ENDBRANCH  16  17
ENDBRANCH   1  15
TORSDOF 5
ENDMDL
MODEL 7
REMARK VINA RESULT:      -8.0      1.954      2.773
REMARK  Name = 
REMARK  6 active torsions:
REMARK  status: ('A' for Active; 'I' for Inactive)
REMARK    1  A    between atoms: C_1  and  N_2
REMARK    2  A    between atoms: N_2  and  C_3
REMARK    3  A    between atoms: C_9  and  C_10
REMARK    4  A    between atoms: C_10  and  C_12
REMARK    5  A    between atoms: C_13  and  C_14
REMARK    6  A    between atoms: C_17  and  C_18
REMARK                            x       y       z     vdW  Elec       q    Type
REMARK                         _______ _______ _______ _____ _____    ______ ____
ROOT
ATOM      1  C   UNL     1       3.492   6.510  18.199  0.00  0.00    +0.000 C 
ATOM      2  O   UNL     1       4.503   6.985  17.645  0.00  0.00    +0.000 OA
ENDROOT
BRANCH   1   9
ATOM      3  C   UNL     1       4.216   2.442  19.136  0.00  0.00    +0.000 A 
ATOM      4  C   UNL     1       3.220   1.693  18.618  0.00  0.00    +0.000 A 
ATOM      5  C   UNL     1       2.227   2.215  17.714  0.00  0.00    +0.000 A 
ATOM      6  C   UNL     1       1.577   3.293  18.168  0.00  0.00    +0.000 A 
ATOM      7 BR   UNL     1       0.639   3.306  19.810  0.00  0.00    +0.000 Br
ATOM      8  C   UNL     1       2.191   4.567  17.887  0.00  0.00    +0.000 A 
ATOM      9  C   UNL     1       3.408   4.977  18.332  0.00  0.00    +0.000 A 
ATOM     10  C   UNL     1       4.448   4.001  18.885  0.00  0.00    +0.000 A 
ATOM     11  O   UNL     1       5.588   4.414  19.127  0.00  0.00    +0.000 OA
BRANCH   3  13
ATOM     12  C   UNL     1       5.128   1.317  21.253  0.00  0.00    +0.000 C 
ATOM     13  N   UNL     1       5.210   1.820  19.899  0.00  0.00    +0.000 N 
ATOM     14  H   UNL     1       6.061   1.621  19.372  0.00  0.00    +0.000 HD
ENDBRANCH   3  13
ENDBRANCH   1   9
BRANCH   1  15
ATOM     15  C   UNL     1       2.504   7.607  18.532  0.00  0.00    +0.000 C 
ATOM     16  C   UNL     1       1.863   8.566  17.853  0.00  0.00    +0.000 C 
BRANCH  16  17
ATOM     17  C   UNL     1       0.785   9.494  18.352  0.00  0.00    +0.000 A 
ATOM     18  C   UNL     1      -0.406   9.888  17.702  0.00  0.00    +0.000 A 
ATOM     19  C   UNL     1      -1.305  10.806  18.303  0.00  0.00    +0.000 A 
ATOM     20  C   UNL     1      -1.044  11.363  19.567  0.00  0.00    +0.000 A 
ATOM     21  C   UNL     1       0.127  10.967  20.217  0.00  0.00    +0.000 A 
ATOM     22  C   UNL     1       1.016  10.055  19.626  0.00  0.00    +0.000 A 
BRANCH  20  23
ATOM     23  C   UNL     1      -1.957  12.366  20.241  0.00  0.00    +0.000 C 
ATOM     24  F   UNL     1      -3.267  12.259  19.879  0.00  0.00    +0.000 F 
ATOM     25  F   UNL     1      -1.938  12.261  21.600  0.00  0.00    +0.000 F 
ATOM     26  F   UNL     1      -1.603  13.655  19.971  0.00  0.00    +0.000 F 
ENDBRANCH  20  23
ENDBRANCH  16  17
ENDBRANCH   1  15
TORSDOF 5
ENDMDL
MODEL 8
REMARK VINA RESULT:      -8.0      2.402      3.512
REMARK  Name = 
REMARK  6 active torsions:
REMARK  status: ('A' for Active; 'I' for Inactive)
REMARK    1  A    between atoms: C_1  and  N_2
REMARK    2  A    between atoms: N_2  and  C_3
REMARK    3  A    between atoms: C_9  and  C_10
REMARK    4  A    between atoms: C_10  and  C_12
REMARK    5  A    between atoms: C_13  and  C_14
REMARK    6  A    between atoms: C_17  and  C_18
REMARK                            x       y       z     vdW  Elec       q    Type
REMARK                         _______ _______ _______ _____ _____    ______ ____
ROOT
ATOM      1  C   UNL     1       3.609   5.125  19.473  0.00  0.00    +0.000 C 
ATOM      2  O   UNL     1       3.224   4.146  20.143  0.00  0.00    +0.000 OA
ENDROOT
BRANCH   1   9
ATOM      3  C   UNL     1       5.936   4.267  16.038  0.00  0.00    +0.000 A 
ATOM      4  C   UNL     1       7.240   4.416  16.349  0.00  0.00    +0.000 A 
ATOM      5  C   UNL     1       7.715   4.611  17.695  0.00  0.00    +0.000 A 
ATOM      6  C   UNL     1       7.141   5.634  18.341  0.00  0.00    +0.000 A 
ATOM      7 BR   UNL     1       7.155   7.403  17.673  0.00  0.00    +0.000 Br
ATOM      8  C   UNL     1       5.920   5.332  19.045  0.00  0.00    +0.000 A 
ATOM      9  C   UNL     1       4.764   4.897  18.478  0.00  0.00    +0.000 A 
ATOM     10  C   UNL     1       4.713   4.318  17.063  0.00  0.00    +0.000 A 
ATOM     11  O   UNL     1       3.664   3.799  16.665  0.00  0.00    +0.000 OA
BRANCH   3  13
ATOM     12  C   UNL     1       6.400   3.988  13.531  0.00  0.00    +0.000 C 
ATOM     13  N   UNL     1       5.580   3.949  14.723  0.00  0.00    +0.000 N 
ATOM     14  H   UNL     1       4.646   3.546  14.641  0.00  0.00    +0.000 HD
ENDBRANCH   3  13
ENDBRANCH   1   9
BRANCH   1  15
ATOM     15  C   UNL     1       2.875   6.379  19.897  0.00  0.00    +0.000 C 
ATOM     16  C   UNL     1       2.221   7.369  19.279  0.00  0.00    +0.000 C 
BRANCH  16  17
ATOM     17  C   UNL     1       1.419   8.483  19.901  0.00  0.00    +0.000 A 
ATOM     18  C   UNL     1       1.141   9.765  19.376  0.00  0.00    +0.000 A 
ATOM     19  C   UNL     1       0.392  10.717  20.114  0.00  0.00    +0.000 A 
ATOM     20  C   UNL     1      -0.100  10.424  21.399  0.00  0.00    +0.000 A 
ATOM     21  C   UNL     1       0.164   9.153  21.915  0.00  0.00    +0.000 A 
ATOM     22  C   UNL     1       0.901   8.208  21.184  0.00  0.00    +0.000 A 
BRANCH  20  23
ATOM     23  C   UNL     1      -0.882  11.412  22.238  0.00  0.00    +0.000 C 
ATOM     24  F   UNL     1      -0.213  12.570  22.505  0.00  0.00    +0.000 F 
ATOM     25  F   UNL     1      -2.053  11.788  21.650  0.00  0.00    +0.000 F 
ATOM     26  F   UNL     1      -1.233  10.900  23.453  0.00  0.00    +0.000 F 
ENDBRANCH  20  23
ENDBRANCH  16  17
ENDBRANCH   1  15
TORSDOF 5
ENDMDL
MODEL 9
REMARK VINA RESULT:      -8.0      1.546      2.009
REMARK  Name = 
REMARK  6 active torsions:
REMARK  status: ('A' for Active; 'I' for Inactive)
REMARK    1  A    between atoms: C_1  and  N_2
REMARK    2  A    between atoms: N_2  and  C_3
REMARK    3  A    between atoms: C_9  and  C_10
REMARK    4  A    between atoms: C_10  and  C_12
REMARK    5  A    between atoms: C_13  and  C_14
REMARK    6  A    between atoms: C_17  and  C_18
REMARK                            x       y       z     vdW  Elec       q    Type
REMARK                         _______ _______ _______ _____ _____    ______ ____
ROOT
ATOM      1  C   UNL     1       3.233   6.572  18.509  0.00  0.00    +0.000 C 
ATOM      2  O   UNL     1       3.982   7.163  17.707  0.00  0.00    +0.000 OA
ENDROOT
BRANCH   1   9
ATOM      3  C   UNL     1       4.244   2.508  19.151  0.00  0.00    +0.000 A 
ATOM      4  C   UNL     1       3.335   1.731  18.526  0.00  0.00    +0.000 A 
ATOM      5  C   UNL     1       2.341   2.248  17.620  0.00  0.00    +0.000 A 
ATOM      6  C   UNL     1       1.587   3.231  18.128  0.00  0.00    +0.000 A 
ATOM      7 BR   UNL     1       0.584   3.033  19.718  0.00  0.00    +0.000 Br
ATOM      8  C   UNL     1       2.107   4.567  17.980  0.00  0.00    +0.000 A 
ATOM      9  C   UNL     1       3.267   5.031  18.514  0.00  0.00    +0.000 A 
ATOM     10  C   UNL     1       4.359   4.096  19.037  0.00  0.00    +0.000 A 
ATOM     11  O   UNL     1       5.451   4.574  19.366  0.00  0.00    +0.000 OA
BRANCH   3  13
ATOM     12  C   UNL     1       5.131   1.154  21.140  0.00  0.00    +0.000 C 
ATOM     13  N   UNL     1       5.253   1.903  19.908  0.00  0.00    +0.000 N 
ATOM     14  H   UNL     1       6.168   1.926  19.457  0.00  0.00    +0.000 HD
ENDBRANCH   3  13
ENDBRANCH   1   9
BRANCH   1  15
ATOM     15  C   UNL     1       2.359   7.564  19.248  0.00  0.00    +0.000 C 
ATOM     16  C   UNL     1       1.548   7.529  20.312  0.00  0.00    +0.000 C 
BRANCH  16  17
ATOM     17  C   UNL     1       0.858   8.684  20.992  0.00  0.00    +0.000 A 
ATOM     18  C   UNL     1       0.589   8.860  22.367  0.00  0.00    +0.000 A 
ATOM     19  C   UNL     1      -0.108  10.001  22.842  0.00  0.00    +0.000 A 
ATOM     20  C   UNL     1      -0.560  10.999  21.962  0.00  0.00    +0.000 A 
ATOM     21  C   UNL     1      -0.286  10.833  20.602  0.00  0.00    +0.000 A 
ATOM     22  C   UNL     1       0.408   9.707  20.131  0.00  0.00    +0.000 A 
BRANCH  20  23
ATOM     23  C   UNL     1      -1.331  12.223  22.413  0.00  0.00    +0.000 C 
ATOM     24  F   UNL     1      -0.544  13.270  22.792  0.00  0.00    +0.000 F 
ATOM     25  F   UNL     1      -2.154  12.711  21.443  0.00  0.00    +0.000 F 
ATOM     26  F   UNL     1      -2.139  11.963  23.481  0.00  0.00    +0.000 F 
ENDBRANCH  20  23
ENDBRANCH  16  17
ENDBRANCH   1  15
TORSDOF 5
ENDMDL
