MODEL 1
REMARK VINA RESULT:      -7.3      0.000      0.000
REMARK  Name = 
REMARK  6 active torsions:
REMARK  status: ('A' for Active; 'I' for Inactive)
REMARK    1  A    between atoms: C_1  and  C_2
REMARK    2  A    between atoms: C_2  and  C_3
REMARK    3  A    between atoms: C_2  and  N_11
REMARK    4  A    between atoms: C_3  and  C_4
REMARK    5  A    between atoms: N_11  and  C_12
REMARK    6  A    between atoms: C_12  and  C_13
REMARK                            x       y       z     vdW  Elec       q    Type
REMARK                         _______ _______ _______ _____ _____    ______ ____
ROOT
ATOM      1  C   UNL     1       5.168   5.130  19.318  0.00  0.00    +0.000 C 
ATOM      2  C   UNL     1       4.674   5.611  17.949  0.00  0.00    +0.000 C 
ENDROOT
BRANCH   2   3
ATOM      3  N   UNL     1       5.472   6.771  17.492  0.00  0.00    +0.000 NA
ATOM      4  H   UNL     1       5.286   7.567  18.097  0.00  0.00    +0.000 HD
BRANCH   3   5
ATOM      5  C   UNL     1       6.945   6.523  17.387  0.00  0.00    +0.000 C 
ATOM      6  C   UNL     1       7.835   7.754  17.432  0.00  0.00    +0.000 C 
ATOM      7  C   UNL     1       7.858   6.784  18.568  0.00  0.00    +0.000 C 
BRANCH   5   8
ATOM      8  C   UNL     1       7.321   5.453  16.387  0.00  0.00    +0.000 C 
ATOM      9  N   UNL     1       7.811   4.309  16.944  0.00  0.00    +0.000 N 
ATOM     10  O   UNL     1       7.205   5.614  15.176  0.00  0.00    +0.000 OA
ATOM     11  H   UNL     1       8.099   4.332  17.914  0.00  0.00    +0.000 HD
ATOM     12  H   UNL     1       8.221   3.626  16.323  0.00  0.00    +0.000 HD
ENDBRANCH   5   8
ENDBRANCH   3   5
ENDBRANCH   2   3
BRANCH   2  13
ATOM     13  C   UNL     1       3.166   5.970  18.066  0.00  0.00    +0.000 C 
BRANCH  13  14
ATOM     14  C   UNL     1       2.308   4.867  18.638  0.00  0.00    +0.000 A 
ATOM     15  C   UNL     1       2.042   3.710  17.894  0.00  0.00    +0.000 A 
ATOM     16  C   UNL     1       1.307   2.661  18.450  0.00  0.00    +0.000 A 
ATOM     17  C   UNL     1       0.812   2.763  19.749  0.00  0.00    +0.000 A 
ATOM     18  C   UNL     1       1.043   3.923  20.489  0.00  0.00    +0.000 A 
ATOM     19  C   UNL     1       1.787   4.961  19.932  0.00  0.00    +0.000 A 
ATOM     20  F   UNL     1       2.000   6.065  20.660  0.00  0.00    +0.000 F 
ENDBRANCH  13  14
ENDBRANCH   2  13
TORSDOF 5
ENDMDL
MODEL 2
REMARK VINA RESULT:      -7.2      1.384      1.704
REMARK  Name = 
REMARK  6 active torsions:
REMARK  status: ('A' for Active; 'I' for Inactive)
REMARK    1  A    between atoms: C_1  and  C_2
REMARK    2  A    between atoms: C_2  and  C_3
REMARK    3  A    between atoms: C_2  and  N_11
REMARK    4  A    between atoms: C_3  and  C_4
REMARK    5  A    between atoms: N_11  and  C_12
REMARK    6  A    between atoms: C_12  and  C_13
REMARK                            x       y       z     vdW  Elec       q    Type
REMARK                         _______ _______ _______ _____ _____    ______ ____
ROOT
ATOM      1  C   UNL     1       3.028   7.027  18.386  0.00  0.00    +0.000 C 
ATOM      2  C   UNL     1       4.247   6.134  18.125  0.00  0.00    +0.000 C 
ENDROOT
BRANCH   2   3
ATOM      3  N   UNL     1       5.131   6.753  17.112  0.00  0.00    +0.000 NA
ATOM      4  H   UNL     1       5.048   7.766  17.166  0.00  0.00    +0.000 HD
BRANCH   3   5
ATOM      5  C   UNL     1       6.568   6.339  17.190  0.00  0.00    +0.000 C 
ATOM      6  C   UNL     1       7.567   7.444  17.492  0.00  0.00    +0.000 C 
ATOM      7  C   UNL     1       7.313   6.380  18.509  0.00  0.00    +0.000 C 
BRANCH   5   8
ATOM      8  C   UNL     1       6.976   5.326  16.144  0.00  0.00    +0.000 C 
ATOM      9  N   UNL     1       7.632   4.239  16.640  0.00  0.00    +0.000 N 
ATOM     10  O   UNL     1       6.744   5.484  14.949  0.00  0.00    +0.000 OA
ATOM     11  H   UNL     1       7.994   4.285  17.584  0.00  0.00    +0.000 HD
ATOM     12  H   UNL     1       8.062   3.610  15.976  0.00  0.00    +0.000 HD
ENDBRANCH   5   8
ENDBRANCH   3   5
ENDBRANCH   2   3
BRANCH   2  13
ATOM     13  C   UNL     1       3.746   4.736  17.664  0.00  0.00    +0.000 C 
BRANCH  13  14
ATOM     14  C   UNL     1       2.950   3.987  18.704  0.00  0.00    +0.000 A 
ATOM     15  C   UNL     1       3.574   3.477  19.851  0.00  0.00    +0.000 A 
ATOM     16  C   UNL     1       2.825   2.846  20.846  0.00  0.00    +0.000 A 
ATOM     17  C   UNL     1       1.446   2.700  20.699  0.00  0.00    +0.000 A 
ATOM     18  C   UNL     1       0.818   3.175  19.548  0.00  0.00    +0.000 A 
ATOM     19  C   UNL     1       1.570   3.813  18.565  0.00  0.00    +0.000 A 
ATOM     20  F   UNL     1       0.946   4.266  17.469  0.00  0.00    +0.000 F 
ENDBRANCH  13  14
ENDBRANCH   2  13
TORSDOF 5
ENDMDL
MODEL 3
REMARK VINA RESULT:      -7.2      1.403      1.826
REMARK  Name = 
REMARK  6 active torsions:
REMARK  status: ('A' for Active; 'I' for Inactive)
REMARK    1  A    between atoms: C_1  and  C_2
REMARK    2  A    between atoms: C_2  and  C_3
REMARK    3  A    between atoms: C_2  and  N_11
REMARK    4  A    between atoms: C_3  and  C_4
REMARK    5  A    between atoms: N_11  and  C_12
REMARK    6  A    between atoms: C_12  and  C_13
REMARK                            x       y       z     vdW  Elec       q    Type
REMARK                         _______ _______ _______ _____ _____    ______ ____
ROOT
ATOM      1  C   UNL     1       5.126   4.948  19.208  0.00  0.00    +0.000 C 
ATOM      2  C   UNL     1       4.610   5.522  17.884  0.00  0.00    +0.000 C 
ENDROOT
BRANCH   2   3
ATOM      3  N   UNL     1       5.382   6.728  17.509  0.00  0.00    +0.000 NA
ATOM      4  H   UNL     1       5.222   7.458  18.199  0.00  0.00    +0.000 HD
BRANCH   3   5
ATOM      5  C   UNL     1       6.850   6.503  17.314  0.00  0.00    +0.000 C 
ATOM      6  C   UNL     1       7.724   7.745  17.326  0.00  0.00    +0.000 C 
ATOM      7  C   UNL     1       7.827   6.760  18.443  0.00  0.00    +0.000 C 
BRANCH   5   8
ATOM      8  C   UNL     1       7.181   5.453  16.278  0.00  0.00    +0.000 C 
ATOM      9  N   UNL     1       6.634   5.682  15.050  0.00  0.00    +0.000 N 
ATOM     10  O   UNL     1       7.874   4.473  16.531  0.00  0.00    +0.000 OA
ATOM     11  H   UNL     1       5.892   6.368  14.974  0.00  0.00    +0.000 HD
ATOM     12  H   UNL     1       6.691   4.940  14.367  0.00  0.00    +0.000 HD
ENDBRANCH   5   8
ENDBRANCH   3   5
ENDBRANCH   2   3
BRANCH   2  13
ATOM     13  C   UNL     1       3.096   5.842  18.040  0.00  0.00    +0.000 C 
BRANCH  13  14
ATOM     14  C   UNL     1       2.291   4.740  18.684  0.00  0.00    +0.000 A 
ATOM     15  C   UNL     1       1.789   4.888  19.984  0.00  0.00    +0.000 A 
ATOM     16  C   UNL     1       0.985   3.897  20.552  0.00  0.00    +0.000 A 
ATOM     17  C   UNL     1       0.689   2.739  19.835  0.00  0.00    +0.000 A 
ATOM     18  C   UNL     1       1.209   2.566  18.553  0.00  0.00    +0.000 A 
ATOM     19  C   UNL     1       2.000   3.563  17.988  0.00  0.00    +0.000 A 
ATOM     20  F   UNL     1       2.486   3.379  16.753  0.00  0.00    +0.000 F 
ENDBRANCH  13  14
ENDBRANCH   2  13
TORSDOF 5
ENDMDL
MODEL 4
REMARK VINA RESULT:      -7.2      1.677      2.120
REMARK  Name = 
REMARK  6 active torsions:
REMARK  status: ('A' for Active; 'I' for Inactive)
REMARK    1  A    between atoms: C_1  and  C_2
REMARK    2  A    between atoms: C_2  and  C_3
REMARK    3  A    between atoms: C_2  and  N_11
REMARK    4  A    between atoms: C_3  and  C_4
REMARK    5  A    between atoms: N_11  and  C_12
REMARK    6  A    between atoms: C_12  and  C_13
REMARK                            x       y       z     vdW  Elec       q    Type
REMARK                         _______ _______ _______ _____ _____    ______ ____
ROOT
ATOM      1  C   UNL     1       3.491   7.741  17.755  0.00  0.00    +0.000 C 
ATOM      2  C   UNL     1       3.604   6.238  18.031  0.00  0.00    +0.000 C 
ENDROOT
BRANCH   2   3
ATOM      3  N   UNL     1       4.545   5.608  17.079  0.00  0.00    +0.000 NA
ATOM      4  H   UNL     1       4.517   6.110  16.195  0.00  0.00    +0.000 HD
BRANCH   3   5
ATOM      5  C   UNL     1       5.955   5.487  17.570  0.00  0.00    +0.000 C 
ATOM      6  C   UNL     1       6.998   5.125  16.526  0.00  0.00    +0.000 C 
ATOM      7  C   UNL     1       7.010   6.486  17.140  0.00  0.00    +0.000 C 
BRANCH   5   8
ATOM      8  C   UNL     1       6.084   4.813  18.917  0.00  0.00    +0.000 C 
ATOM      9  N   UNL     1       5.494   3.585  18.990  0.00  0.00    +0.000 N 
ATOM     10  O   UNL     1       6.660   5.338  19.864  0.00  0.00    +0.000 OA
ATOM     11  H   UNL     1       4.843   3.320  18.261  0.00  0.00    +0.000 HD
ATOM     12  H   UNL     1       5.414   3.159  19.903  0.00  0.00    +0.000 HD
ENDBRANCH   5   8
ENDBRANCH   3   5
ENDBRANCH   2   3
BRANCH   2  13
ATOM     13  C   UNL     1       2.185   5.609  17.928  0.00  0.00    +0.000 C 
BRANCH  13  14
ATOM     14  C   UNL     1       1.928   4.492  18.910  0.00  0.00    +0.000 A 
ATOM     15  C   UNL     1       1.902   3.157  18.482  0.00  0.00    +0.000 A 
ATOM     16  C   UNL     1       1.734   2.120  19.403  0.00  0.00    +0.000 A 
ATOM     17  C   UNL     1       1.571   2.405  20.758  0.00  0.00    +0.000 A 
ATOM     18  C   UNL     1       1.564   3.730  21.191  0.00  0.00    +0.000 A 
ATOM     19  C   UNL     1       1.744   4.759  20.270  0.00  0.00    +0.000 A 
ATOM     20  F   UNL     1       1.737   6.025  20.707  0.00  0.00    +0.000 F 
ENDBRANCH  13  14
ENDBRANCH   2  13
TORSDOF 5
ENDMDL
MODEL 5
REMARK VINA RESULT:      -7.1      2.848      5.771
REMARK  Name = 
REMARK  6 active torsions:
REMARK  status: ('A' for Active; 'I' for Inactive)
REMARK    1  A    between atoms: C_1  and  C_2
REMARK    2  A    between atoms: C_2  and  C_3
REMARK    3  A    between atoms: C_2  and  N_11
REMARK    4  A    between atoms: C_3  and  C_4
REMARK    5  A    between atoms: N_11  and  C_12
REMARK    6  A    between atoms: C_12  and  C_13
REMARK                            x       y       z     vdW  Elec       q    Type
REMARK                         _______ _______ _______ _____ _____    ______ ____
ROOT
ATOM      1  C   UNL     1       2.780   6.596  18.352  0.00  0.00    +0.000 C 
ATOM      2  C   UNL     1       3.056   5.089  18.357  0.00  0.00    +0.000 C 
ENDROOT
BRANCH   2   3
ATOM      3  N   UNL     1       3.321   4.618  19.735  0.00  0.00    +0.000 NA
ATOM      4  H   UNL     1       2.939   5.287  20.399  0.00  0.00    +0.000 HD
BRANCH   3   5
ATOM      5  C   UNL     1       2.828   3.237  20.038  0.00  0.00    +0.000 C 
ATOM      6  C   UNL     1       2.267   3.018  21.433  0.00  0.00    +0.000 C 
ATOM      7  C   UNL     1       1.351   2.975  20.254  0.00  0.00    +0.000 C 
BRANCH   5   8
ATOM      8  C   UNL     1       3.697   2.134  19.477  0.00  0.00    +0.000 C 
ATOM      9  N   UNL     1       4.945   2.069  20.023  0.00  0.00    +0.000 N 
ATOM     10  O   UNL     1       3.310   1.374  18.595  0.00  0.00    +0.000 OA
ATOM     11  H   UNL     1       5.275   2.860  20.563  0.00  0.00    +0.000 HD
ATOM     12  H   UNL     1       5.617   1.458  19.581  0.00  0.00    +0.000 HD
ENDBRANCH   5   8
ENDBRANCH   3   5
ENDBRANCH   2   3
BRANCH   2  13
ATOM     13  C   UNL     1       4.262   4.803  17.417  0.00  0.00    +0.000 C 
BRANCH  13  14
ATOM     14  C   UNL     1       5.521   5.554  17.777  0.00  0.00    +0.000 A 
ATOM     15  C   UNL     1       6.299   5.159  18.874  0.00  0.00    +0.000 A 
ATOM     16  C   UNL     1       7.500   5.811  19.164  0.00  0.00    +0.000 A 
ATOM     17  C   UNL     1       7.928   6.876  18.373  0.00  0.00    +0.000 A 
ATOM     18  C   UNL     1       7.147   7.298  17.297  0.00  0.00    +0.000 A 
ATOM     19  C   UNL     1       5.957   6.636  17.007  0.00  0.00    +0.000 A 
ATOM     20  F   UNL     1       5.223   7.055  15.967  0.00  0.00    +0.000 F 
ENDBRANCH  13  14
ENDBRANCH   2  13
TORSDOF 5
ENDMDL
MODEL 6
REMARK VINA RESULT:      -7.1      2.385      3.162
REMARK  Name = 
REMARK  6 active torsions:
REMARK  status: ('A' for Active; 'I' for Inactive)
REMARK    1  A    between atoms: C_1  and  C_2
REMARK    2  A    between atoms: C_2  and  C_3
REMARK    3  A    between atoms: C_2  and  N_11
REMARK    4  A    between atoms: C_3  and  C_4
REMARK    5  A    between atoms: N_11  and  C_12
REMARK    6  A    between atoms: C_12  and  C_13
REMARK                            x       y       z     vdW  Elec       q    Type
REMARK                         _______ _______ _______ _____ _____    ______ ____
ROOT
ATOM      1  C   UNL     1       6.247   4.486  14.466  0.00  0.00    +0.000 C 
ATOM      2  C   UNL     1       5.962   4.741  15.951  0.00  0.00    +0.000 C 
ENDROOT
BRANCH   2   3
ATOM      3  N   UNL     1       7.203   5.137  16.653  0.00  0.00    +0.000 NA
ATOM      4  H   UNL     1       7.893   5.445  15.971  0.00  0.00    +0.000 HD
BRANCH   3   5
ATOM      5  C   UNL     1       7.023   6.171  17.721  0.00  0.00    +0.000 C 
ATOM      6  C   UNL     1       7.744   7.490  17.504  0.00  0.00    +0.000 C 
ATOM      7  C   UNL     1       6.253   7.445  17.440  0.00  0.00    +0.000 C 
BRANCH   5   8
ATOM      8  C   UNL     1       7.039   5.615  19.127  0.00  0.00    +0.000 C 
ATOM      9  N   UNL     1       8.287   5.436  19.647  0.00  0.00    +0.000 N 
ATOM     10  O   UNL     1       6.012   5.338  19.738  0.00  0.00    +0.000 OA
ATOM     11  H   UNL     1       9.078   5.458  19.015  0.00  0.00    +0.000 HD
ATOM     12  H   UNL     1       8.363   4.925  20.515  0.00  0.00    +0.000 HD
ENDBRANCH   5   8
ENDBRANCH   3   5
ENDBRANCH   2   3
BRANCH   2  13
ATOM     13  C   UNL     1       5.348   3.451  16.565  0.00  0.00    +0.000 C 
BRANCH  13  14
ATOM     14  C   UNL     1       4.025   3.663  17.260  0.00  0.00    +0.000 A 
ATOM     15  C   UNL     1       3.489   4.950  17.399  0.00  0.00    +0.000 A 
ATOM     16  C   UNL     1       2.232   5.138  17.979  0.00  0.00    +0.000 A 
ATOM     17  C   UNL     1       1.505   4.043  18.445  0.00  0.00    +0.000 A 
ATOM     18  C   UNL     1       2.042   2.760  18.341  0.00  0.00    +0.000 A 
ATOM     19  C   UNL     1       3.290   2.580  17.751  0.00  0.00    +0.000 A 
ATOM     20  F   UNL     1       3.786   1.338  17.658  0.00  0.00    +0.000 F 
ENDBRANCH  13  14
ENDBRANCH   2  13
TORSDOF 5
ENDMDL
MODEL 7
REMARK VINA RESULT:      -7.0      2.242      3.009
REMARK  Name = 
REMARK  6 active torsions:
REMARK  status: ('A' for Active; 'I' for Inactive)
REMARK    1  A    between atoms: C_1  and  C_2
REMARK    2  A    between atoms: C_2  and  C_3
REMARK    3  A    between atoms: C_2  and  N_11
REMARK    4  A    between atoms: C_3  and  C_4
REMARK    5  A    between atoms: N_11  and  C_12
REMARK    6  A    between atoms: C_12  and  C_13
REMARK                            x       y       z     vdW  Elec       q    Type
REMARK                         _______ _______ _______ _____ _____    ______ ____
ROOT
ATOM      1  C   UNL     1       3.474   2.133  17.397  0.00  0.00    +0.000 C 
ATOM      2  C   UNL     1       4.242   3.453  17.265  0.00  0.00    +0.000 C 
ENDROOT
BRANCH   2   3
ATOM      3  N   UNL     1       5.517   3.236  16.543  0.00  0.00    +0.000 NA
ATOM      4  H   UNL     1       5.383   2.522  15.831  0.00  0.00    +0.000 HD
BRANCH   3   5
ATOM      5  C   UNL     1       6.121   4.469  15.944  0.00  0.00    +0.000 C 
ATOM      6  C   UNL     1       6.189   4.511  14.427  0.00  0.00    +0.000 C 
ATOM      7  C   UNL     1       5.269   5.438  15.150  0.00  0.00    +0.000 C 
BRANCH   5   8
ATOM      8  C   UNL     1       7.329   4.989  16.689  0.00  0.00    +0.000 C 
ATOM      9  N   UNL     1       7.435   6.348  16.710  0.00  0.00    +0.000 N 
ATOM     10  O   UNL     1       8.148   4.244  17.218  0.00  0.00    +0.000 OA
ATOM     11  H   UNL     1       6.869   6.885  16.065  0.00  0.00    +0.000 HD
ATOM     12  H   UNL     1       8.298   6.744  17.057  0.00  0.00    +0.000 HD
ENDBRANCH   5   8
ENDBRANCH   3   5
ENDBRANCH   2   3
BRANCH   2  13
ATOM     13  C   UNL     1       4.487   4.027  18.689  0.00  0.00    +0.000 C 
BRANCH  13  14
ATOM     14  C   UNL     1       3.369   3.760  19.667  0.00  0.00    +0.000 A 
ATOM     15  C   UNL     1       2.173   4.487  19.601  0.00  0.00    +0.000 A 
ATOM     16  C   UNL     1       1.113   4.191  20.461  0.00  0.00    +0.000 A 
ATOM     17  C   UNL     1       1.242   3.178  21.410  0.00  0.00    +0.000 A 
ATOM     18  C   UNL     1       2.439   2.468  21.506  0.00  0.00    +0.000 A 
ATOM     19  C   UNL     1       3.487   2.761  20.638  0.00  0.00    +0.000 A 
ATOM     20  F   UNL     1       4.627   2.064  20.745  0.00  0.00    +0.000 F 
ENDBRANCH  13  14
ENDBRANCH   2  13
TORSDOF 5
ENDMDL
MODEL 8
REMARK VINA RESULT:      -7.0      3.178      6.137
REMARK  Name = 
REMARK  6 active torsions:
REMARK  status: ('A' for Active; 'I' for Inactive)
REMARK    1  A    between atoms: C_1  and  C_2
REMARK    2  A    between atoms: C_2  and  C_3
REMARK    3  A    between atoms: C_2  and  N_11
REMARK    4  A    between atoms: C_3  and  C_4
REMARK    5  A    between atoms: N_11  and  C_12
REMARK    6  A    between atoms: C_12  and  C_13
REMARK                            x       y       z     vdW  Elec       q    Type
REMARK                         _______ _______ _______ _____ _____    ______ ____
ROOT
ATOM      1  C   UNL     1       3.170   6.351  18.816  0.00  0.00    +0.000 C 
ATOM      2  C   UNL     1       3.173   4.913  18.287  0.00  0.00    +0.000 C 
ENDROOT
BRANCH   2   3
ATOM      3  N   UNL     1       3.251   3.951  19.409  0.00  0.00    +0.000 NA
ATOM      4  H   UNL     1       3.664   4.409  20.218  0.00  0.00    +0.000 HD
BRANCH   3   5
ATOM      5  C   UNL     1       1.951   3.304  19.779  0.00  0.00    +0.000 C 
ATOM      6  C   UNL     1       1.775   2.947  21.245  0.00  0.00    +0.000 C 
ATOM      7  C   UNL     1       0.945   4.034  20.645  0.00  0.00    +0.000 C 
BRANCH   5   8
ATOM      8  C   UNL     1       1.458   2.290  18.772  0.00  0.00    +0.000 C 
ATOM      9  N   UNL     1       2.438   1.506  18.237  0.00  0.00    +0.000 N 
ATOM     10  O   UNL     1       0.276   2.195  18.457  0.00  0.00    +0.000 OA
ATOM     11  H   UNL     1       3.402   1.791  18.359  0.00  0.00    +0.000 HD
ATOM     12  H   UNL     1       2.192   0.922  17.451  0.00  0.00    +0.000 HD
ENDBRANCH   5   8
ENDBRANCH   3   5
ENDBRANCH   2   3
BRANCH   2  13
ATOM     13  C   UNL     1       4.374   4.747  17.313  0.00  0.00    +0.000 C 
BRANCH  13  14
ATOM     14  C   UNL     1       5.605   5.526  17.707  0.00  0.00    +0.000 A 
ATOM     15  C   UNL     1       6.359   5.151  18.827  0.00  0.00    +0.000 A 
ATOM     16  C   UNL     1       7.537   5.830  19.149  0.00  0.00    +0.000 A 
ATOM     17  C   UNL     1       7.965   6.901  18.367  0.00  0.00    +0.000 A 
ATOM     18  C   UNL     1       7.207   7.303  17.268  0.00  0.00    +0.000 A 
ATOM     19  C   UNL     1       6.040   6.615  16.946  0.00  0.00    +0.000 A 
ATOM     20  F   UNL     1       5.327   7.015  15.883  0.00  0.00    +0.000 F 
ENDBRANCH  13  14
ENDBRANCH   2  13
TORSDOF 5
ENDMDL
MODEL 9
REMARK VINA RESULT:      -7.0      2.104      2.856
REMARK  Name = 
REMARK  6 active torsions:
REMARK  status: ('A' for Active; 'I' for Inactive)
REMARK    1  A    between atoms: C_1  and  C_2
REMARK    2  A    between atoms: C_2  and  C_3
REMARK    3  A    between atoms: C_2  and  N_11
REMARK    4  A    between atoms: C_3  and  C_4
REMARK    5  A    between atoms: N_11  and  C_12
REMARK    6  A    between atoms: C_12  and  C_13
REMARK                            x       y       z     vdW  Elec       q    Type
REMARK                         _______ _______ _______ _____ _____    ______ ____
ROOT
ATOM      1  C   UNL     1       3.841   4.943  17.242  0.00  0.00    +0.000 C 
ATOM      2  C   UNL     1       4.652   3.683  17.565  0.00  0.00    +0.000 C 
ENDROOT
BRANCH   2   3
ATOM      3  N   UNL     1       5.552   3.347  16.438  0.00  0.00    +0.000 NA
ATOM      4  H   UNL     1       5.025   2.852  15.722  0.00  0.00    +0.000 HD
BRANCH   3   5
ATOM      5  C   UNL     1       6.282   4.512  15.843  0.00  0.00    +0.000 C 
ATOM      6  C   UNL     1       6.712   4.361  14.394  0.00  0.00    +0.000 C 
ATOM      7  C   UNL     1       5.645   5.343  14.749  0.00  0.00    +0.000 C 
BRANCH   5   8
ATOM      8  C   UNL     1       7.274   5.162  16.780  0.00  0.00    +0.000 C 
ATOM      9  N   UNL     1       7.885   4.298  17.640  0.00  0.00    +0.000 N 
ATOM     10  O   UNL     1       7.497   6.368  16.770  0.00  0.00    +0.000 OA
ATOM     11  H   UNL     1       7.488   3.374  17.756  0.00  0.00    +0.000 HD
ATOM     12  H   UNL     1       8.437   4.695  18.388  0.00  0.00    +0.000 HD
ENDBRANCH   5   8
ENDBRANCH   3   5
ENDBRANCH   2   3
BRANCH   2  13
ATOM     13  C   UNL     1       3.663   2.522  17.867  0.00  0.00    +0.000 C 
BRANCH  13  14
ATOM     14  C   UNL     1       2.835   2.719  19.113  0.00  0.00    +0.000 A 
ATOM     15  C   UNL     1       1.474   3.044  19.023  0.00  0.00    +0.000 A 
ATOM     16  C   UNL     1       0.693   3.157  20.176  0.00  0.00    +0.000 A 
ATOM     17  C   UNL     1       1.266   2.967  21.432  0.00  0.00    +0.000 A 
ATOM     18  C   UNL     1       2.626   2.675  21.536  0.00  0.00    +0.000 A 
ATOM     19  C   UNL     1       3.396   2.552  20.382  0.00  0.00    +0.000 A 
ATOM     20  F   UNL     1       4.700   2.267  20.504  0.00  0.00    +0.000 F 
ENDBRANCH  13  14
ENDBRANCH   2  13
TORSDOF 5
ENDMDL
