MODEL 1
REMARK VINA RESULT:      -6.0      0.000      0.000
REMARK  Name = 
REMARK  18 active torsions:
REMARK  status: ('A' for Active; 'I' for Inactive)
REMARK    1  A    between atoms: C_1  and  C_2
REMARK    2  A    between atoms: C_2  and  C_3
REMARK    3  A    between atoms: C_3  and  C_4
REMARK    4  A    between atoms: C_4  and  C_5
REMARK    5  A    between atoms: C_5  and  C_6
REMARK    6  A    between atoms: C_6  and  C_7
REMARK    7  A    between atoms: C_7  and  C_8
REMARK    8  A    between atoms: C_8  and  C_9
REMARK    9  A    between atoms: C_9  and  C_10
REMARK   10  A    between atoms: C_10  and  C_11
REMARK   11  A    between atoms: C_11  and  C_12
REMARK   12  A    between atoms: C_12  and  P_13
REMARK   13  A    between atoms: P_13  and  O_15
REMARK   14  A    between atoms: P_13  and  O_18
REMARK   15  A    between atoms: O_15  and  C_16
REMARK   16  A    between atoms: C_16  and  C_17
REMARK   17  A    between atoms: O_18  and  C_19
REMARK   18  A    between atoms: C_22  and  C_23
REMARK                            x       y       z     vdW  Elec       q    Type
REMARK                         _______ _______ _______ _____ _____    ______ ____
ROOT
ATOM      1  P   UNL     1       6.631   6.045  17.057  0.00  0.00    +0.000 P 
ATOM      2  O   UNL     1       5.572   6.958  16.422  0.00  0.00    +0.000 OA
ENDROOT
BRANCH   1   3
ATOM      3  O   UNL     1       7.488   5.985  15.556  0.00  0.00    +0.000 OA
BRANCH   3   4
ATOM      4  C   UNL     1       7.093   5.190  14.463  0.00  0.00    +0.000 A 
ATOM      5  C   UNL     1       7.734   5.170  13.223  0.00  0.00    +0.000 A 
ATOM      6  C   UNL     1       7.339   4.214  12.224  0.00  0.00    +0.000 A 
ATOM      7  C   UNL     1       6.309   3.283  12.408  0.00  0.00    +0.000 A 
ATOM      8  C   UNL     1       5.671   3.312  13.618  0.00  0.00    +0.000 A 
ATOM      9  C   UNL     1       6.120   4.205  14.567  0.00  0.00    +0.000 A 
BRANCH   7  10
ATOM     10  C   UNL     1       5.916   2.248  11.518  0.00  0.00    +0.000 C 
ATOM     11  N   UNL     1       5.666   1.304  10.886  0.00  0.00    +0.000 NA
ENDBRANCH   7  10
ENDBRANCH   3   4
ENDBRANCH   1   3
BRANCH   1  12
ATOM     12  O   UNL     1       7.679   7.064  17.837  0.00  0.00    +0.000 OA
BRANCH  12  13
ATOM     13  C   UNL     1       7.895   8.483  17.641  0.00  0.00    +0.000 C 
ATOM     14  C   UNL     1       8.730   9.268  18.670  0.00  0.00    +0.000 C 
ENDBRANCH  12  13
ENDBRANCH   1  12
BRANCH   1  15
ATOM     15  C   UNL     1       5.725   6.107  18.646  0.00  0.00    +0.000 C 
BRANCH  15  16
ATOM     16  C   UNL     1       4.211   5.945  18.548  0.00  0.00    +0.000 C 
BRANCH  16  17
ATOM     17  C   UNL     1       3.805   4.688  17.774  0.00  0.00    +0.000 C 
BRANCH  17  18
ATOM     18  C   UNL     1       4.713   3.540  18.205  0.00  0.00    +0.000 C 
BRANCH  18  19
ATOM     19  C   UNL     1       3.954   2.375  18.823  0.00  0.00    +0.000 C 
BRANCH  19  20
ATOM     20  C   UNL     1       2.842   1.930  17.872  0.00  0.00    +0.000 C 
BRANCH  20  21
ATOM     21  C   UNL     1       1.535   1.739  18.626  0.00  0.00    +0.000 C 
BRANCH  21  22
ATOM     22  C   UNL     1       0.704   3.017  18.644  0.00  0.00    +0.000 C 
BRANCH  22  23
ATOM     23  C   UNL     1       0.433   3.431  20.087  0.00  0.00    +0.000 C 
BRANCH  23  24
ATOM     24  C   UNL     1       1.242   4.661  20.480  0.00  0.00    +0.000 C 
BRANCH  24  26
ATOM     25  C   UNL     1       2.155   2.901  22.022  0.00  0.00    +0.000 C 
ATOM     26  C   UNL     1       2.384   4.274  21.415  0.00  0.00    +0.000 C 
ENDBRANCH  24  26
ENDBRANCH  23  24
ENDBRANCH  22  23
ENDBRANCH  21  22
ENDBRANCH  20  21
ENDBRANCH  19  20
ENDBRANCH  18  19
ENDBRANCH  17  18
ENDBRANCH  16  17
ENDBRANCH  15  16
ENDBRANCH   1  15
TORSDOF 16
ENDMDL
MODEL 2
REMARK VINA RESULT:      -5.8      0.958      1.367
REMARK  Name = 
REMARK  18 active torsions:
REMARK  status: ('A' for Active; 'I' for Inactive)
REMARK    1  A    between atoms: C_1  and  C_2
REMARK    2  A    between atoms: C_2  and  C_3
REMARK    3  A    between atoms: C_3  and  C_4
REMARK    4  A    between atoms: C_4  and  C_5
REMARK    5  A    between atoms: C_5  and  C_6
REMARK    6  A    between atoms: C_6  and  C_7
REMARK    7  A    between atoms: C_7  and  C_8
REMARK    8  A    between atoms: C_8  and  C_9
REMARK    9  A    between atoms: C_9  and  C_10
REMARK   10  A    between atoms: C_10  and  C_11
REMARK   11  A    between atoms: C_11  and  C_12
REMARK   12  A    between atoms: C_12  and  P_13
REMARK   13  A    between atoms: P_13  and  O_15
REMARK   14  A    between atoms: P_13  and  O_18
REMARK   15  A    between atoms: O_15  and  C_16
REMARK   16  A    between atoms: C_16  and  C_17
REMARK   17  A    between atoms: O_18  and  C_19
REMARK   18  A    between atoms: C_22  and  C_23
REMARK                            x       y       z     vdW  Elec       q    Type
REMARK                         _______ _______ _______ _____ _____    ______ ____
ROOT
ATOM      1  P   UNL     1       5.875   6.570  16.407  0.00  0.00    +0.000 P 
ATOM      2  O   UNL     1       5.167   7.140  15.168  0.00  0.00    +0.000 OA
ENDROOT
BRANCH   1   3
ATOM      3  O   UNL     1       7.095   5.875  15.398  0.00  0.00    +0.000 OA
BRANCH   3   4
ATOM      4  C   UNL     1       6.817   5.019  14.315  0.00  0.00    +0.000 A 
ATOM      5  C   UNL     1       7.449   5.081  13.071  0.00  0.00    +0.000 A 
ATOM      6  C   UNL     1       7.195   4.066  12.083  0.00  0.00    +0.000 A 
ATOM      7  C   UNL     1       6.315   2.995  12.282  0.00  0.00    +0.000 A 
ATOM      8  C   UNL     1       5.684   2.943  13.496  0.00  0.00    +0.000 A 
ATOM      9  C   UNL     1       6.001   3.902  14.434  0.00  0.00    +0.000 A 
BRANCH   7  10
ATOM     10  C   UNL     1       6.075   1.905  11.404  0.00  0.00    +0.000 C 
ATOM     11  N   UNL     1       5.872   0.924  10.813  0.00  0.00    +0.000 NA
ENDBRANCH   7  10
ENDBRANCH   3   4
ENDBRANCH   1   3
BRANCH   1  12
ATOM     12  O   UNL     1       6.798   7.814  16.996  0.00  0.00    +0.000 OA
BRANCH  12  13
ATOM     13  C   UNL     1       7.881   7.777  17.957  0.00  0.00    +0.000 C 
ATOM     14  C   UNL     1       8.056   6.533  18.848  0.00  0.00    +0.000 C 
ENDBRANCH  12  13
ENDBRANCH   1  12
BRANCH   1  15
ATOM     15  C   UNL     1       4.584   7.306  17.476  0.00  0.00    +0.000 C 
BRANCH  15  16
ATOM     16  C   UNL     1       3.945   6.358  18.485  0.00  0.00    +0.000 C 
BRANCH  16  17
ATOM     17  C   UNL     1       4.028   4.893  18.047  0.00  0.00    +0.000 C 
BRANCH  17  18
ATOM     18  C   UNL     1       2.733   4.529  17.329  0.00  0.00    +0.000 C 
BRANCH  18  19
ATOM     19  C   UNL     1       2.609   3.041  17.032  0.00  0.00    +0.000 C 
BRANCH  19  20
ATOM     20  C   UNL     1       3.589   2.264  17.912  0.00  0.00    +0.000 C 
BRANCH  20  21
ATOM     21  C   UNL     1       2.848   1.515  19.009  0.00  0.00    +0.000 C 
BRANCH  21  22
ATOM     22  C   UNL     1       1.374   1.901  19.057  0.00  0.00    +0.000 C 
BRANCH  22  23
ATOM     23  C   UNL     1       1.078   2.631  20.362  0.00  0.00    +0.000 C 
BRANCH  23  24
ATOM     24  C   UNL     1       2.357   2.981  21.114  0.00  0.00    +0.000 C 
BRANCH  24  26
ATOM     25  C   UNL     1       1.332   5.227  20.648  0.00  0.00    +0.000 C 
ATOM     26  C   UNL     1       2.410   4.478  21.411  0.00  0.00    +0.000 C 
ENDBRANCH  24  26
ENDBRANCH  23  24
ENDBRANCH  22  23
ENDBRANCH  21  22
ENDBRANCH  20  21
ENDBRANCH  19  20
ENDBRANCH  18  19
ENDBRANCH  17  18
ENDBRANCH  16  17
ENDBRANCH  15  16
ENDBRANCH   1  15
TORSDOF 16
ENDMDL
MODEL 3
REMARK VINA RESULT:      -5.8      3.735      6.696
REMARK  Name = 
REMARK  18 active torsions:
REMARK  status: ('A' for Active; 'I' for Inactive)
REMARK    1  A    between atoms: C_1  and  C_2
REMARK    2  A    between atoms: C_2  and  C_3
REMARK    3  A    between atoms: C_3  and  C_4
REMARK    4  A    between atoms: C_4  and  C_5
REMARK    5  A    between atoms: C_5  and  C_6
REMARK    6  A    between atoms: C_6  and  C_7
REMARK    7  A    between atoms: C_7  and  C_8
REMARK    8  A    between atoms: C_8  and  C_9
REMARK    9  A    between atoms: C_9  and  C_10
REMARK   10  A    between atoms: C_10  and  C_11
REMARK   11  A    between atoms: C_11  and  C_12
REMARK   12  A    between atoms: C_12  and  P_13
REMARK   13  A    between atoms: P_13  and  O_15
REMARK   14  A    between atoms: P_13  and  O_18
REMARK   15  A    between atoms: O_15  and  C_16
REMARK   16  A    between atoms: C_16  and  C_17
REMARK   17  A    between atoms: O_18  and  C_19
REMARK   18  A    between atoms: C_22  and  C_23
REMARK                            x       y       z     vdW  Elec       q    Type
REMARK                         _______ _______ _______ _____ _____    ______ ____
ROOT
ATOM      1  P   UNL     1       7.174   7.407  17.564  0.00  0.00    +0.000 P 
ATOM      2  O   UNL     1       8.070   6.761  18.631  0.00  0.00    +0.000 OA
ENDROOT
BRANCH   1   3
ATOM      3  O   UNL     1       8.386   8.604  17.264  0.00  0.00    +0.000 OA
BRANCH   3   4
ATOM      4  C   UNL     1       8.631   9.697  18.116  0.00  0.00    +0.000 A 
ATOM      5  C   UNL     1       9.093   9.591  19.430  0.00  0.00    +0.000 A 
ATOM      6  C   UNL     1       9.451  10.775  20.164  0.00  0.00    +0.000 A 
ATOM      7  C   UNL     1       9.347  12.071  19.643  0.00  0.00    +0.000 A 
ATOM      8  C   UNL     1       8.880  12.175  18.361  0.00  0.00    +0.000 A 
ATOM      9  C   UNL     1       8.604  11.013  17.673  0.00  0.00    +0.000 A 
BRANCH   7  10
ATOM     10  C   UNL     1       9.761  13.281  20.259  0.00  0.00    +0.000 C 
ATOM     11  N   UNL     1      10.106  14.192  20.896  0.00  0.00    +0.000 NA
ENDBRANCH   7  10
ENDBRANCH   3   4
ENDBRANCH   1   3
BRANCH   1  12
ATOM     12  O   UNL     1       7.429   6.525  16.185  0.00  0.00    +0.000 OA
BRANCH  12  13
ATOM     13  C   UNL     1       7.054   5.157  15.889  0.00  0.00    +0.000 C 
ATOM     14  C   UNL     1       6.650   4.781  14.451  0.00  0.00    +0.000 C 
ENDBRANCH  12  13
ENDBRANCH   1  12
BRANCH   1  15
ATOM     15  C   UNL     1       5.891   6.141  17.882  0.00  0.00    +0.000 C 
BRANCH  15  16
ATOM     16  C   UNL     1       6.113   5.273  19.116  0.00  0.00    +0.000 C 
BRANCH  16  17
ATOM     17  C   UNL     1       5.073   4.157  19.243  0.00  0.00    +0.000 C 
BRANCH  17  18
ATOM     18  C   UNL     1       4.724   3.659  17.843  0.00  0.00    +0.000 C 
BRANCH  18  19
ATOM     19  C   UNL     1       3.634   2.597  17.838  0.00  0.00    +0.000 C 
BRANCH  19  20
ATOM     20  C   UNL     1       3.226   2.280  19.277  0.00  0.00    +0.000 C 
BRANCH  20  21
ATOM     21  C   UNL     1       1.713   2.307  19.426  0.00  0.00    +0.000 C 
BRANCH  21  22
ATOM     22  C   UNL     1       1.163   3.724  19.312  0.00  0.00    +0.000 C 
BRANCH  22  23
ATOM     23  C   UNL     1       1.459   4.493  20.595  0.00  0.00    +0.000 C 
BRANCH  23  24
ATOM     24  C   UNL     1       1.994   5.890  20.303  0.00  0.00    +0.000 C 
BRANCH  24  26
ATOM     25  C   UNL     1       2.494   7.540  18.476  0.00  0.00    +0.000 C 
ATOM     26  C   UNL     1       2.170   6.093  18.800  0.00  0.00    +0.000 C 
ENDBRANCH  24  26
ENDBRANCH  23  24
ENDBRANCH  22  23
ENDBRANCH  21  22
ENDBRANCH  20  21
ENDBRANCH  19  20
ENDBRANCH  18  19
ENDBRANCH  17  18
ENDBRANCH  16  17
ENDBRANCH  15  16
ENDBRANCH   1  15
TORSDOF 16
ENDMDL
MODEL 4
REMARK VINA RESULT:      -5.7      0.866      1.423
REMARK  Name = 
REMARK  18 active torsions:
REMARK  status: ('A' for Active; 'I' for Inactive)
REMARK    1  A    between atoms: C_1  and  C_2
REMARK    2  A    between atoms: C_2  and  C_3
REMARK    3  A    between atoms: C_3  and  C_4
REMARK    4  A    between atoms: C_4  and  C_5
REMARK    5  A    between atoms: C_5  and  C_6
REMARK    6  A    between atoms: C_6  and  C_7
REMARK    7  A    between atoms: C_7  and  C_8
REMARK    8  A    between atoms: C_8  and  C_9
REMARK    9  A    between atoms: C_9  and  C_10
REMARK   10  A    between atoms: C_10  and  C_11
REMARK   11  A    between atoms: C_11  and  C_12
REMARK   12  A    between atoms: C_12  and  P_13
REMARK   13  A    between atoms: P_13  and  O_15
REMARK   14  A    between atoms: P_13  and  O_18
REMARK   15  A    between atoms: O_15  and  C_16
REMARK   16  A    between atoms: C_16  and  C_17
REMARK   17  A    between atoms: O_18  and  C_19
REMARK   18  A    between atoms: C_22  and  C_23
REMARK                            x       y       z     vdW  Elec       q    Type
REMARK                         _______ _______ _______ _____ _____    ______ ____
ROOT
ATOM      1  P   UNL     1       6.798   6.006  16.903  0.00  0.00    +0.000 P 
ATOM      2  O   UNL     1       6.054   7.273  16.454  0.00  0.00    +0.000 OA
ENDROOT
BRANCH   1   3
ATOM      3  O   UNL     1       7.585   5.917  15.366  0.00  0.00    +0.000 OA
BRANCH   3   4
ATOM      4  C   UNL     1       7.132   5.115  14.302  0.00  0.00    +0.000 A 
ATOM      5  C   UNL     1       7.752   5.024  13.054  0.00  0.00    +0.000 A 
ATOM      6  C   UNL     1       7.291   4.063  12.089  0.00  0.00    +0.000 A 
ATOM      7  C   UNL     1       6.215   3.196  12.313  0.00  0.00    +0.000 A 
ATOM      8  C   UNL     1       5.597   3.294  13.530  0.00  0.00    +0.000 A 
ATOM      9  C   UNL     1       6.108   4.188  14.447  0.00  0.00    +0.000 A 
BRANCH   7  10
ATOM     10  C   UNL     1       5.753   2.160  11.458  0.00  0.00    +0.000 C 
ATOM     11  N   UNL     1       5.506   1.238  10.794  0.00  0.00    +0.000 NA
ENDBRANCH   7  10
ENDBRANCH   3   4
ENDBRANCH   1   3
BRANCH   1  12
ATOM     12  O   UNL     1       8.108   6.546  17.760  0.00  0.00    +0.000 OA
BRANCH  12  13
ATOM     13  C   UNL     1       8.227   7.704  18.623  0.00  0.00    +0.000 C 
ATOM     14  C   UNL     1       8.237   9.111  17.998  0.00  0.00    +0.000 C 
ENDBRANCH  12  13
ENDBRANCH   1  12
BRANCH   1  15
ATOM     15  C   UNL     1       5.964   6.099  18.530  0.00  0.00    +0.000 C 
BRANCH  15  16
ATOM     16  C   UNL     1       5.207   4.845  18.955  0.00  0.00    +0.000 C 
BRANCH  16  17
ATOM     17  C   UNL     1       5.027   3.851  17.804  0.00  0.00    +0.000 C 
BRANCH  17  18
ATOM     18  C   UNL     1       3.776   4.239  17.021  0.00  0.00    +0.000 C 
BRANCH  18  19
ATOM     19  C   UNL     1       2.832   5.137  17.806  0.00  0.00    +0.000 C 
BRANCH  19  20
ATOM     20  C   UNL     1       1.424   4.541  17.781  0.00  0.00    +0.000 C 
BRANCH  20  21
ATOM     21  C   UNL     1       1.484   3.023  17.723  0.00  0.00    +0.000 C 
BRANCH  21  22
ATOM     22  C   UNL     1       1.182   2.396  19.080  0.00  0.00    +0.000 C 
BRANCH  22  23
ATOM     23  C   UNL     1       2.468   1.845  19.688  0.00  0.00    +0.000 C 
BRANCH  23  24
ATOM     24  C   UNL     1       2.935   2.684  20.871  0.00  0.00    +0.000 C 
BRANCH  24  26
ATOM     25  C   UNL     1       2.059   5.007  21.252  0.00  0.00    +0.000 C 
ATOM     26  C   UNL     1       1.784   3.523  21.420  0.00  0.00    +0.000 C 
ENDBRANCH  24  26
ENDBRANCH  23  24
ENDBRANCH  22  23
ENDBRANCH  21  22
ENDBRANCH  20  21
ENDBRANCH  19  20
ENDBRANCH  18  19
ENDBRANCH  17  18
ENDBRANCH  16  17
ENDBRANCH  15  16
ENDBRANCH   1  15
TORSDOF 16
ENDMDL
MODEL 5
REMARK VINA RESULT:      -5.7      4.420      8.599
REMARK  Name = 
REMARK  18 active torsions:
REMARK  status: ('A' for Active; 'I' for Inactive)
REMARK    1  A    between atoms: C_1  and  C_2
REMARK    2  A    between atoms: C_2  and  C_3
REMARK    3  A    between atoms: C_3  and  C_4
REMARK    4  A    between atoms: C_4  and  C_5
REMARK    5  A    between atoms: C_5  and  C_6
REMARK    6  A    between atoms: C_6  and  C_7
REMARK    7  A    between atoms: C_7  and  C_8
REMARK    8  A    between atoms: C_8  and  C_9
REMARK    9  A    between atoms: C_9  and  C_10
REMARK   10  A    between atoms: C_10  and  C_11
REMARK   11  A    between atoms: C_11  and  C_12
REMARK   12  A    between atoms: C_12  and  P_13
REMARK   13  A    between atoms: P_13  and  O_15
REMARK   14  A    between atoms: P_13  and  O_18
REMARK   15  A    between atoms: O_15  and  C_16
REMARK   16  A    between atoms: C_16  and  C_17
REMARK   17  A    between atoms: O_18  and  C_19
REMARK   18  A    between atoms: C_22  and  C_23
REMARK                            x       y       z     vdW  Elec       q    Type
REMARK                         _______ _______ _______ _____ _____    ______ ____
ROOT
ATOM      1  P   UNL     1       3.788   5.507  18.687  0.00  0.00    +0.000 P 
ATOM      2  O   UNL     1       3.729   5.151  17.194  0.00  0.00    +0.000 OA
ENDROOT
BRANCH   1   3
ATOM      3  O   UNL     1       2.237   6.265  18.573  0.00  0.00    +0.000 OA
BRANCH   3   4
ATOM      4  C   UNL     1       1.904   7.462  19.234  0.00  0.00    +0.000 A 
ATOM      5  C   UNL     1       1.640   8.675  18.594  0.00  0.00    +0.000 A 
ATOM      6  C   UNL     1       1.166   9.801  19.353  0.00  0.00    +0.000 A 
ATOM      7  C   UNL     1       0.961   9.770  20.738  0.00  0.00    +0.000 A 
ATOM      8  C   UNL     1       1.233   8.585  21.367  0.00  0.00    +0.000 A 
ATOM      9  C   UNL     1       1.630   7.516  20.594  0.00  0.00    +0.000 A 
BRANCH   7  10
ATOM     10  C   UNL     1       0.411  10.798  21.549  0.00  0.00    +0.000 C 
ATOM     11  N   UNL     1      -0.174  11.565  22.199  0.00  0.00    +0.000 NA
ENDBRANCH   7  10
ENDBRANCH   3   4
ENDBRANCH   1   3
BRANCH   1  12
ATOM     12  O   UNL     1       3.279   4.146  19.483  0.00  0.00    +0.000 OA
BRANCH  12  13
ATOM     13  C   UNL     1       3.853   2.816  19.486  0.00  0.00    +0.000 C 
ATOM     14  C   UNL     1       3.229   1.723  18.598  0.00  0.00    +0.000 C 
ENDBRANCH  12  13
ENDBRANCH   1  12
BRANCH   1  15
ATOM     15  C   UNL     1       5.429   4.705  18.809  0.00  0.00    +0.000 C 
BRANCH  15  16
ATOM     16  C   UNL     1       6.541   5.568  19.394  0.00  0.00    +0.000 C 
BRANCH  16  17
ATOM     17  C   UNL     1       7.645   5.872  18.377  0.00  0.00    +0.000 C 
BRANCH  17  18
ATOM     18  C   UNL     1       7.039   5.821  16.978  0.00  0.00    +0.000 C 
BRANCH  18  19
ATOM     19  C   UNL     1       7.652   4.741  16.098  0.00  0.00    +0.000 C 
BRANCH  19  20
ATOM     20  C   UNL     1       6.545   4.032  15.317  0.00  0.00    +0.000 C 
BRANCH  20  21
ATOM     21  C   UNL     1       6.302   4.720  13.983  0.00  0.00    +0.000 C 
BRANCH  21  22
ATOM     22  C   UNL     1       6.206   3.714  12.841  0.00  0.00    +0.000 C 
BRANCH  22  23
ATOM     23  C   UNL     1       4.746   3.537  12.437  0.00  0.00    +0.000 C 
BRANCH  23  24
ATOM     24  C   UNL     1       4.613   2.754  11.136  0.00  0.00    +0.000 C 
BRANCH  24  26
ATOM     25  C   UNL     1       3.121   4.293   9.827  0.00  0.00    +0.000 C 
ATOM     26  C   UNL     1       3.225   2.953  10.532  0.00  0.00    +0.000 C 
ENDBRANCH  24  26
ENDBRANCH  23  24
ENDBRANCH  22  23
ENDBRANCH  21  22
ENDBRANCH  20  21
ENDBRANCH  19  20
ENDBRANCH  18  19
ENDBRANCH  17  18
ENDBRANCH  16  17
ENDBRANCH  15  16
ENDBRANCH   1  15
TORSDOF 16
ENDMDL
MODEL 6
REMARK VINA RESULT:      -5.6      4.262      6.522
REMARK  Name = 
REMARK  18 active torsions:
REMARK  status: ('A' for Active; 'I' for Inactive)
REMARK    1  A    between atoms: C_1  and  C_2
REMARK    2  A    between atoms: C_2  and  C_3
REMARK    3  A    between atoms: C_3  and  C_4
REMARK    4  A    between atoms: C_4  and  C_5
REMARK    5  A    between atoms: C_5  and  C_6
REMARK    6  A    between atoms: C_6  and  C_7
REMARK    7  A    between atoms: C_7  and  C_8
REMARK    8  A    between atoms: C_8  and  C_9
REMARK    9  A    between atoms: C_9  and  C_10
REMARK   10  A    between atoms: C_10  and  C_11
REMARK   11  A    between atoms: C_11  and  C_12
REMARK   12  A    between atoms: C_12  and  P_13
REMARK   13  A    between atoms: P_13  and  O_15
REMARK   14  A    between atoms: P_13  and  O_18
REMARK   15  A    between atoms: O_15  and  C_16
REMARK   16  A    between atoms: C_16  and  C_17
REMARK   17  A    between atoms: O_18  and  C_19
REMARK   18  A    between atoms: C_22  and  C_23
REMARK                            x       y       z     vdW  Elec       q    Type
REMARK                         _______ _______ _______ _____ _____    ______ ____
ROOT
ATOM      1  P   UNL     1       3.924   2.996  19.617  0.00  0.00    +0.000 P 
ATOM      2  O   UNL     1       5.036   2.032  20.056  0.00  0.00    +0.000 OA
ENDROOT
BRANCH   1   3
ATOM      3  O   UNL     1       4.764   3.301  18.137  0.00  0.00    +0.000 OA
BRANCH   3   4
ATOM      4  C   UNL     1       5.480   4.484  17.874  0.00  0.00    +0.000 A 
ATOM      5  C   UNL     1       5.062   5.488  16.998  0.00  0.00    +0.000 A 
ATOM      6  C   UNL     1       5.796   6.722  16.914  0.00  0.00    +0.000 A 
ATOM      7  C   UNL     1       6.949   6.989  17.662  0.00  0.00    +0.000 A 
ATOM      8  C   UNL     1       7.367   6.000  18.511  0.00  0.00    +0.000 A 
ATOM      9  C   UNL     1       6.602   4.857  18.602  0.00  0.00    +0.000 A 
BRANCH   7  10
ATOM     10  C   UNL     1       7.679   8.206  17.711  0.00  0.00    +0.000 C 
ATOM     11  N   UNL     1       8.285   9.180  17.905  0.00  0.00    +0.000 NA
ENDBRANCH   7  10
ENDBRANCH   3   4
ENDBRANCH   1   3
BRANCH   1  12
ATOM     12  O   UNL     1       2.739   2.035  18.972  0.00  0.00    +0.000 OA
BRANCH  12  13
ATOM     13  C   UNL     1       1.621   2.400  18.126  0.00  0.00    +0.000 C 
ATOM     14  C   UNL     1       1.613   3.780  17.441  0.00  0.00    +0.000 C 
ENDBRANCH  12  13
ENDBRANCH   1  12
BRANCH   1  15
ATOM     15  C   UNL     1       3.034   2.676  21.184  0.00  0.00    +0.000 C 
BRANCH  15  16
ATOM     16  C   UNL     1       2.266   3.861  21.760  0.00  0.00    +0.000 C 
BRANCH  16  17
ATOM     17  C   UNL     1       1.586   4.701  20.677  0.00  0.00    +0.000 C 
BRANCH  17  18
ATOM     18  C   UNL     1       2.124   6.126  20.760  0.00  0.00    +0.000 C 
BRANCH  18  19
ATOM     19  C   UNL     1       2.585   6.673  19.417  0.00  0.00    +0.000 C 
BRANCH  19  20
ATOM     20  C   UNL     1       1.788   7.934  19.080  0.00  0.00    +0.000 C 
BRANCH  20  21
ATOM     21  C   UNL     1       2.530   8.782  18.059  0.00  0.00    +0.000 C 
BRANCH  21  22
ATOM     22  C   UNL     1       1.759  10.052  17.716  0.00  0.00    +0.000 C 
BRANCH  22  23
ATOM     23  C   UNL     1       0.567  10.197  18.656  0.00  0.00    +0.000 C 
BRANCH  23  24
ATOM     24  C   UNL     1       0.379  11.640  19.109  0.00  0.00    +0.000 C 
BRANCH  24  26
ATOM     25  C   UNL     1       0.656  10.477  21.318  0.00  0.00    +0.000 C 
ATOM     26  C   UNL     1       0.100  11.699  20.609  0.00  0.00    +0.000 C 
ENDBRANCH  24  26
ENDBRANCH  23  24
ENDBRANCH  22  23
ENDBRANCH  21  22
ENDBRANCH  20  21
ENDBRANCH  19  20
ENDBRANCH  18  19
ENDBRANCH  17  18
ENDBRANCH  16  17
ENDBRANCH  15  16
ENDBRANCH   1  15
TORSDOF 16
ENDMDL
MODEL 7
REMARK VINA RESULT:      -5.6      3.679      6.162
REMARK  Name = 
REMARK  18 active torsions:
REMARK  status: ('A' for Active; 'I' for Inactive)
REMARK    1  A    between atoms: C_1  and  C_2
REMARK    2  A    between atoms: C_2  and  C_3
REMARK    3  A    between atoms: C_3  and  C_4
REMARK    4  A    between atoms: C_4  and  C_5
REMARK    5  A    between atoms: C_5  and  C_6
REMARK    6  A    between atoms: C_6  and  C_7
REMARK    7  A    between atoms: C_7  and  C_8
REMARK    8  A    between atoms: C_8  and  C_9
REMARK    9  A    between atoms: C_9  and  C_10
REMARK   10  A    between atoms: C_10  and  C_11
REMARK   11  A    between atoms: C_11  and  C_12
REMARK   12  A    between atoms: C_12  and  P_13
REMARK   13  A    between atoms: P_13  and  O_15
REMARK   14  A    between atoms: P_13  and  O_18
REMARK   15  A    between atoms: O_15  and  C_16
REMARK   16  A    between atoms: C_16  and  C_17
REMARK   17  A    between atoms: O_18  and  C_19
REMARK   18  A    between atoms: C_22  and  C_23
REMARK                            x       y       z     vdW  Elec       q    Type
REMARK                         _______ _______ _______ _____ _____    ______ ____
ROOT
ATOM      1  P   UNL     1       5.175   6.426  16.978  0.00  0.00    +0.000 P 
ATOM      2  O   UNL     1       6.135   7.622  16.897  0.00  0.00    +0.000 OA
ENDROOT
BRANCH   1   3
ATOM      3  O   UNL     1       3.827   7.484  16.750  0.00  0.00    +0.000 OA
BRANCH   3   4
ATOM      4  C   UNL     1       2.921   7.825  17.772  0.00  0.00    +0.000 A 
ATOM      5  C   UNL     1       2.813   7.158  18.994  0.00  0.00    +0.000 A 
ATOM      6  C   UNL     1       1.957   7.678  20.026  0.00  0.00    +0.000 A 
ATOM      7  C   UNL     1       1.184   8.836  19.880  0.00  0.00    +0.000 A 
ATOM      8  C   UNL     1       1.278   9.483  18.677  0.00  0.00    +0.000 A 
ATOM      9  C   UNL     1       2.154   8.982  17.738  0.00  0.00    +0.000 A 
BRANCH   7  10
ATOM     10  C   UNL     1       0.388   9.469  20.871  0.00  0.00    +0.000 C 
ATOM     11  N   UNL     1      -0.387   9.947  21.595  0.00  0.00    +0.000 NA
ENDBRANCH   7  10
ENDBRANCH   3   4
ENDBRANCH   1   3
BRANCH   1  12
ATOM     12  O   UNL     1       5.163   5.769  15.457  0.00  0.00    +0.000 OA
BRANCH  12  13
ATOM     13  C   UNL     1       5.754   4.532  14.987  0.00  0.00    +0.000 C 
ATOM     14  C   UNL     1       6.714   4.566  13.784  0.00  0.00    +0.000 C 
ENDBRANCH  12  13
ENDBRANCH   1  12
BRANCH   1  15
ATOM     15  C   UNL     1       6.601   5.304  17.219  0.00  0.00    +0.000 C 
BRANCH  15  16
ATOM     16  C   UNL     1       6.618   4.534  18.535  0.00  0.00    +0.000 C 
BRANCH  16  17
ATOM     17  C   UNL     1       5.231   4.439  19.177  0.00  0.00    +0.000 C 
BRANCH  17  18
ATOM     18  C   UNL     1       4.991   2.993  19.597  0.00  0.00    +0.000 C 
BRANCH  18  19
ATOM     19  C   UNL     1       3.809   2.350  18.886  0.00  0.00    +0.000 C 
BRANCH  19  20
ATOM     20  C   UNL     1       3.850   2.713  17.401  0.00  0.00    +0.000 C 
BRANCH  20  21
ATOM     21  C   UNL     1       2.543   3.362  16.971  0.00  0.00    +0.000 C 
BRANCH  21  22
ATOM     22  C   UNL     1       1.768   3.911  18.163  0.00  0.00    +0.000 C 
BRANCH  22  23
ATOM     23  C   UNL     1       0.721   2.894  18.605  0.00  0.00    +0.000 C 
BRANCH  23  24
ATOM     24  C   UNL     1       0.519   2.913  20.115  0.00  0.00    +0.000 C 
BRANCH  24  26
ATOM     25  C   UNL     1       2.204   3.624  21.837  0.00  0.00    +0.000 C 
ATOM     26  C   UNL     1       1.264   4.090  20.739  0.00  0.00    +0.000 C 
ENDBRANCH  24  26
ENDBRANCH  23  24
ENDBRANCH  22  23
ENDBRANCH  21  22
ENDBRANCH  20  21
ENDBRANCH  19  20
ENDBRANCH  18  19
ENDBRANCH  17  18
ENDBRANCH  16  17
ENDBRANCH  15  16
ENDBRANCH   1  15
TORSDOF 16
ENDMDL
MODEL 8
REMARK VINA RESULT:      -5.6      4.493      9.135
REMARK  Name = 
REMARK  18 active torsions:
REMARK  status: ('A' for Active; 'I' for Inactive)
REMARK    1  A    between atoms: C_1  and  C_2
REMARK    2  A    between atoms: C_2  and  C_3
REMARK    3  A    between atoms: C_3  and  C_4
REMARK    4  A    between atoms: C_4  and  C_5
REMARK    5  A    between atoms: C_5  and  C_6
REMARK    6  A    between atoms: C_6  and  C_7
REMARK    7  A    between atoms: C_7  and  C_8
REMARK    8  A    between atoms: C_8  and  C_9
REMARK    9  A    between atoms: C_9  and  C_10
REMARK   10  A    between atoms: C_10  and  C_11
REMARK   11  A    between atoms: C_11  and  C_12
REMARK   12  A    between atoms: C_12  and  P_13
REMARK   13  A    between atoms: P_13  and  O_15
REMARK   14  A    between atoms: P_13  and  O_18
REMARK   15  A    between atoms: O_15  and  C_16
REMARK   16  A    between atoms: C_16  and  C_17
REMARK   17  A    between atoms: O_18  and  C_19
REMARK   18  A    between atoms: C_22  and  C_23
REMARK                            x       y       z     vdW  Elec       q    Type
REMARK                         _______ _______ _______ _____ _____    ______ ____
ROOT
ATOM      1  P   UNL     1       3.557   5.306  18.624  0.00  0.00    +0.000 P 
ATOM      2  O   UNL     1       2.474   4.708  17.714  0.00  0.00    +0.000 OA
ENDROOT
BRANCH   1   3
ATOM      3  O   UNL     1       2.350   6.192  19.489  0.00  0.00    +0.000 OA
BRANCH   3   4
ATOM      4  C   UNL     1       2.078   7.556  19.272  0.00  0.00    +0.000 A 
ATOM      5  C   UNL     1       2.280   8.224  18.063  0.00  0.00    +0.000 A 
ATOM      6  C   UNL     1       1.832   9.582  17.907  0.00  0.00    +0.000 A 
ATOM      7  C   UNL     1       1.203  10.311  18.924  0.00  0.00    +0.000 A 
ATOM      8  C   UNL     1       1.019   9.661  20.114  0.00  0.00    +0.000 A 
ATOM      9  C   UNL     1       1.411   8.343  20.202  0.00  0.00    +0.000 A 
BRANCH   7  10
ATOM     10  C   UNL     1       0.649  11.616  18.830  0.00  0.00    +0.000 C 
ATOM     11  N   UNL     1       0.170  12.673  18.907  0.00  0.00    +0.000 NA
ENDBRANCH   7  10
ENDBRANCH   3   4
ENDBRANCH   1   3
BRANCH   1  12
ATOM     12  O   UNL     1       3.831   4.163  19.791  0.00  0.00    +0.000 OA
BRANCH  12  13
ATOM     13  C   UNL     1       3.202   2.870  19.975  0.00  0.00    +0.000 C 
ATOM     14  C   UNL     1       1.830   2.793  20.670  0.00  0.00    +0.000 C 
ENDBRANCH  12  13
ENDBRANCH   1  12
BRANCH   1  15
ATOM     15  C   UNL     1       4.836   4.369  17.708  0.00  0.00    +0.000 C 
BRANCH  15  16
ATOM     16  C   UNL     1       6.263   4.530  18.219  0.00  0.00    +0.000 C 
BRANCH  16  17
ATOM     17  C   UNL     1       6.507   5.902  18.854  0.00  0.00    +0.000 C 
BRANCH  17  18
ATOM     18  C   UNL     1       7.813   6.465  18.303  0.00  0.00    +0.000 C 
BRANCH  18  19
ATOM     19  C   UNL     1       7.604   7.532  17.238  0.00  0.00    +0.000 C 
BRANCH  19  20
ATOM     20  C   UNL     1       7.768   8.917  17.866  0.00  0.00    +0.000 C 
BRANCH  20  21
ATOM     21  C   UNL     1       8.816   8.887  18.968  0.00  0.00    +0.000 C 
BRANCH  21  22
ATOM     22  C   UNL     1       9.348  10.282  19.276  0.00  0.00    +0.000 C 
BRANCH  22  23
ATOM     23  C   UNL     1       9.335  11.127  18.007  0.00  0.00    +0.000 C 
BRANCH  23  24
ATOM     24  C   UNL     1      10.711  11.707  17.703  0.00  0.00    +0.000 C 
BRANCH  24  26
ATOM     25  C   UNL     1       9.400  13.834  17.962  0.00  0.00    +0.000 C 
ATOM     26  C   UNL     1      10.766  13.184  18.087  0.00  0.00    +0.000 C 
ENDBRANCH  24  26
ENDBRANCH  23  24
ENDBRANCH  22  23
ENDBRANCH  21  22
ENDBRANCH  20  21
ENDBRANCH  19  20
ENDBRANCH  18  19
ENDBRANCH  17  18
ENDBRANCH  16  17
ENDBRANCH  15  16
ENDBRANCH   1  15
TORSDOF 16
ENDMDL
MODEL 9
REMARK VINA RESULT:      -5.5      3.536      6.538
REMARK  Name = 
REMARK  18 active torsions:
REMARK  status: ('A' for Active; 'I' for Inactive)
REMARK    1  A    between atoms: C_1  and  C_2
REMARK    2  A    between atoms: C_2  and  C_3
REMARK    3  A    between atoms: C_3  and  C_4
REMARK    4  A    between atoms: C_4  and  C_5
REMARK    5  A    between atoms: C_5  and  C_6
REMARK    6  A    between atoms: C_6  and  C_7
REMARK    7  A    between atoms: C_7  and  C_8
REMARK    8  A    between atoms: C_8  and  C_9
REMARK    9  A    between atoms: C_9  and  C_10
REMARK   10  A    between atoms: C_10  and  C_11
REMARK   11  A    between atoms: C_11  and  C_12
REMARK   12  A    between atoms: C_12  and  P_13
REMARK   13  A    between atoms: P_13  and  O_15
REMARK   14  A    between atoms: P_13  and  O_18
REMARK   15  A    between atoms: O_15  and  C_16
REMARK   16  A    between atoms: C_16  and  C_17
REMARK   17  A    between atoms: O_18  and  C_19
REMARK   18  A    between atoms: C_22  and  C_23
REMARK                            x       y       z     vdW  Elec       q    Type
REMARK                         _______ _______ _______ _____ _____    ______ ____
ROOT
ATOM      1  P   UNL     1       6.366   7.035  17.519  0.00  0.00    +0.000 P 
ATOM      2  O   UNL     1       6.289   5.981  18.634  0.00  0.00    +0.000 OA
ENDROOT
BRANCH   1   3
ATOM      3  O   UNL     1       7.948   7.489  18.049  0.00  0.00    +0.000 OA
BRANCH   3   4
ATOM      4  C   UNL     1       8.371   8.824  18.189  0.00  0.00    +0.000 A 
ATOM      5  C   UNL     1       7.946   9.881  17.382  0.00  0.00    +0.000 A 
ATOM      6  C   UNL     1       8.326  11.231  17.704  0.00  0.00    +0.000 A 
ATOM      7  C   UNL     1       9.135  11.568  18.796  0.00  0.00    +0.000 A 
ATOM      8  C   UNL     1       9.564  10.530  19.579  0.00  0.00    +0.000 A 
ATOM      9  C   UNL     1       9.129   9.260  19.268  0.00  0.00    +0.000 A 
BRANCH   7  10
ATOM     10  C   UNL     1       9.482  12.872  19.239  0.00  0.00    +0.000 C 
ATOM     11  N   UNL     1       9.913  13.888  19.606  0.00  0.00    +0.000 NA
ENDBRANCH   7  10
ENDBRANCH   3   4
ENDBRANCH   1   3
BRANCH   1  12
ATOM     12  O   UNL     1       6.845   6.208  16.166  0.00  0.00    +0.000 OA
BRANCH  12  13
ATOM     13  C   UNL     1       6.928   4.779  15.945  0.00  0.00    +0.000 C 
ATOM     14  C   UNL     1       6.153   4.152  14.771  0.00  0.00    +0.000 C 
ENDBRANCH  12  13
ENDBRANCH   1  12
BRANCH   1  15
ATOM     15  C   UNL     1       4.691   6.555  16.958  0.00  0.00    +0.000 C 
BRANCH  15  16
ATOM     16  C   UNL     1       3.542   7.369  17.544  0.00  0.00    +0.000 C 
BRANCH  16  17
ATOM     17  C   UNL     1       2.514   6.495  18.267  0.00  0.00    +0.000 C 
BRANCH  17  18
ATOM     18  C   UNL     1       2.672   6.705  19.769  0.00  0.00    +0.000 C 
BRANCH  18  19
ATOM     19  C   UNL     1       1.463   6.244  20.570  0.00  0.00    +0.000 C 
BRANCH  19  20
ATOM     20  C   UNL     1       1.328   4.725  20.459  0.00  0.00    +0.000 C 
BRANCH  20  21
ATOM     21  C   UNL     1       2.299   4.029  21.400  0.00  0.00    +0.000 C 
BRANCH  21  22
ATOM     22  C   UNL     1       2.523   2.574  21.001  0.00  0.00    +0.000 C 
BRANCH  22  23
ATOM     23  C   UNL     1       3.881   2.433  20.322  0.00  0.00    +0.000 C 
BRANCH  23  24
ATOM     24  C   UNL     1       3.751   1.859  18.916  0.00  0.00    +0.000 C 
BRANCH  24  26
ATOM     25  C   UNL     1       2.515   3.211  17.197  0.00  0.00    +0.000 C 
ATOM     26  C   UNL     1       3.853   2.970  17.874  0.00  0.00    +0.000 C 
ENDBRANCH  24  26
ENDBRANCH  23  24
ENDBRANCH  22  23
ENDBRANCH  21  22
ENDBRANCH  20  21
ENDBRANCH  19  20
ENDBRANCH  18  19
ENDBRANCH  17  18
ENDBRANCH  16  17
ENDBRANCH  15  16
ENDBRANCH   1  15
TORSDOF 16
ENDMDL
