MODEL 1
REMARK VINA RESULT:      -6.9      0.000      0.000
REMARK  Name = 
REMARK  4 active torsions:
REMARK  status: ('A' for Active; 'I' for Inactive)
REMARK    1  A    between atoms: O_1  and  C_2
REMARK    2  A    between atoms: C_8  and  C_9
REMARK    3  A    between atoms: N_10  and  N_11
REMARK    4  A    between atoms: N_11  and  C_12
REMARK                            x       y       z     vdW  Elec       q    Type
REMARK                         _______ _______ _______ _____ _____    ______ ____
ROOT
ATOM      1  C   UNL     1       5.856   5.005  17.578  0.00  0.00    +0.000 C 
ATOM      2  N   UNL     1       5.943   5.666  16.468  0.00  0.00    +0.000 NA
ENDROOT
BRANCH   1   9
ATOM      3  C   UNL     1       4.272   4.097  19.292  0.00  0.00    +0.000 A 
ATOM      4  C   UNL     1       3.099   4.227  20.047  0.00  0.00    +0.000 A 
ATOM      5 BR   UNL     1       2.567   2.866  21.257  0.00  0.00    +0.000 Br
ATOM      6  C   UNL     1       2.294   5.361  19.923  0.00  0.00    +0.000 A 
ATOM      7  C   UNL     1       2.659   6.377  19.041  0.00  0.00    +0.000 A 
ATOM      8  C   UNL     1       3.825   6.254  18.286  0.00  0.00    +0.000 A 
ATOM      9  C   UNL     1       4.635   5.113  18.407  0.00  0.00    +0.000 A 
BRANCH   3  10
ATOM     10  O   UNL     1       5.063   2.983  19.409  0.00  0.00    +0.000 OA
ATOM     11  H   UNL     1       5.428   2.977  20.314  0.00  0.00    +0.000 HD
ENDBRANCH   3  10
ENDBRANCH   1   9
BRANCH   2  12
ATOM     12  N   UNL     1       7.068   5.497  15.737  0.00  0.00    +0.000 N 
ATOM     13  H   UNL     1       7.897   6.061  15.906  0.00  0.00    +0.000 HD
BRANCH  12  14
ATOM     14  C   UNL     1       6.930   4.983  14.431  0.00  0.00    +0.000 A 
ATOM     15  C   UNL     1       6.022   3.957  14.129  0.00  0.00    +0.000 A 
ATOM     16  C   UNL     1       5.951   3.398  12.851  0.00  0.00    +0.000 A 
ATOM     17  C   UNL     1       6.810   3.845  11.853  0.00  0.00    +0.000 A 
ATOM     18  C   UNL     1       7.735   4.849  12.134  0.00  0.00    +0.000 A 
ATOM     19  C   UNL     1       7.799   5.409  13.416  0.00  0.00    +0.000 A 
ENDBRANCH  12  14
ENDBRANCH   2  12
TORSDOF 4
ENDMDL
MODEL 2
REMARK VINA RESULT:      -6.8      0.451      1.250
REMARK  Name = 
REMARK  4 active torsions:
REMARK  status: ('A' for Active; 'I' for Inactive)
REMARK    1  A    between atoms: O_1  and  C_2
REMARK    2  A    between atoms: C_8  and  C_9
REMARK    3  A    between atoms: N_10  and  N_11
REMARK    4  A    between atoms: N_11  and  C_12
REMARK                            x       y       z     vdW  Elec       q    Type
REMARK                         _______ _______ _______ _____ _____    ______ ____
ROOT
ATOM      1  C   UNL     1       5.708   4.577  17.379  0.00  0.00    +0.000 C 
ATOM      2  N   UNL     1       5.968   5.451  16.460  0.00  0.00    +0.000 NA
ENDROOT
BRANCH   1   9
ATOM      3  C   UNL     1       4.180   3.800  19.205  0.00  0.00    +0.000 A 
ATOM      4  C   UNL     1       2.958   3.894  19.884  0.00  0.00    +0.000 A 
ATOM      5 BR   UNL     1       2.566   2.742  21.340  0.00  0.00    +0.000 Br
ATOM      6  C   UNL     1       2.000   4.835  19.501  0.00  0.00    +0.000 A 
ATOM      7  C   UNL     1       2.261   5.693  18.434  0.00  0.00    +0.000 A 
ATOM      8  C   UNL     1       3.474   5.605  17.753  0.00  0.00    +0.000 A 
ATOM      9  C   UNL     1       4.438   4.657  18.134  0.00  0.00    +0.000 A 
BRANCH   3  10
ATOM     10  O   UNL     1       5.121   2.875  19.576  0.00  0.00    +0.000 OA
ATOM     11  H   UNL     1       5.215   2.241  18.840  0.00  0.00    +0.000 HD
ENDBRANCH   3  10
ENDBRANCH   1   9
BRANCH   2  12
ATOM     12  N   UNL     1       7.128   5.302  15.780  0.00  0.00    +0.000 N 
ATOM     13  H   UNL     1       7.944   5.867  15.999  0.00  0.00    +0.000 HD
BRANCH  12  14
ATOM     14  C   UNL     1       7.056   4.814  14.459  0.00  0.00    +0.000 A 
ATOM     15  C   UNL     1       7.799   5.387  13.415  0.00  0.00    +0.000 A 
ATOM     16  C   UNL     1       7.660   4.951  12.096  0.00  0.00    +0.000 A 
ATOM     17  C   UNL     1       6.751   3.942  11.793  0.00  0.00    +0.000 A 
ATOM     18  C   UNL     1       5.987   3.372  12.810  0.00  0.00    +0.000 A 
ATOM     19  C   UNL     1       6.134   3.810  14.132  0.00  0.00    +0.000 A 
ENDBRANCH  12  14
ENDBRANCH   2  12
TORSDOF 4
ENDMDL
MODEL 3
REMARK VINA RESULT:      -6.7      3.187      6.766
REMARK  Name = 
REMARK  4 active torsions:
REMARK  status: ('A' for Active; 'I' for Inactive)
REMARK    1  A    between atoms: O_1  and  C_2
REMARK    2  A    between atoms: C_8  and  C_9
REMARK    3  A    between atoms: N_10  and  N_11
REMARK    4  A    between atoms: N_11  and  C_12
REMARK                            x       y       z     vdW  Elec       q    Type
REMARK                         _______ _______ _______ _____ _____    ______ ____
ROOT
ATOM      1  C   UNL     1       3.879   3.607  17.060  0.00  0.00    +0.000 C 
ATOM      2  N   UNL     1       3.961   2.365  17.418  0.00  0.00    +0.000 NA
ENDROOT
BRANCH   1   9
ATOM      3  C   UNL     1       5.663   5.356  17.227  0.00  0.00    +0.000 A 
ATOM      4  C   UNL     1       6.782   6.002  16.684  0.00  0.00    +0.000 A 
ATOM      5 BR   UNL     1       7.610   7.444  17.598  0.00  0.00    +0.000 Br
ATOM      6  C   UNL     1       7.309   5.601  15.455  0.00  0.00    +0.000 A 
ATOM      7  C   UNL     1       6.719   4.545  14.760  0.00  0.00    +0.000 A 
ATOM      8  C   UNL     1       5.606   3.899  15.295  0.00  0.00    +0.000 A 
ATOM      9  C   UNL     1       5.072   4.302  16.530  0.00  0.00    +0.000 A 
BRANCH   3  10
ATOM     10  O   UNL     1       5.141   5.750  18.433  0.00  0.00    +0.000 OA
ATOM     11  H   UNL     1       5.880   5.808  19.067  0.00  0.00    +0.000 HD
ENDBRANCH   3  10
ENDBRANCH   1   9
BRANCH   2  12
ATOM     12  N   UNL     1       2.827   1.776  17.860  0.00  0.00    +0.000 N 
ATOM     13  H   UNL     1       2.154   1.374  17.213  0.00  0.00    +0.000 HD
BRANCH  12  14
ATOM     14  C   UNL     1       2.306   2.202  19.100  0.00  0.00    +0.000 A 
ATOM     15  C   UNL     1       1.021   2.754  19.214  0.00  0.00    +0.000 A 
ATOM     16  C   UNL     1       0.546   3.248  20.430  0.00  0.00    +0.000 A 
ATOM     17  C   UNL     1       1.363   3.218  21.556  0.00  0.00    +0.000 A 
ATOM     18  C   UNL     1       2.651   2.694  21.462  0.00  0.00    +0.000 A 
ATOM     19  C   UNL     1       3.121   2.195  20.241  0.00  0.00    +0.000 A 
ENDBRANCH  12  14
ENDBRANCH   2  12
TORSDOF 4
ENDMDL
MODEL 4
REMARK VINA RESULT:      -6.7      6.030      7.895
REMARK  Name = 
REMARK  4 active torsions:
REMARK  status: ('A' for Active; 'I' for Inactive)
REMARK    1  A    between atoms: O_1  and  C_2
REMARK    2  A    between atoms: C_8  and  C_9
REMARK    3  A    between atoms: N_10  and  N_11
REMARK    4  A    between atoms: N_11  and  C_12
REMARK                            x       y       z     vdW  Elec       q    Type
REMARK                         _______ _______ _______ _____ _____    ______ ____
ROOT
ATOM      1  C   UNL     1       1.192   8.407  21.375  0.00  0.00    +0.000 C 
ATOM      2  N   UNL     1       1.538   7.606  20.419  0.00  0.00    +0.000 NA
ENDROOT
BRANCH   1   9
ATOM      3  C   UNL     1      -0.072  10.449  22.086  0.00  0.00    +0.000 A 
ATOM      4  C   UNL     1      -0.804  11.596  21.755  0.00  0.00    +0.000 A 
ATOM      5 BR   UNL     1      -1.509  12.723  23.110  0.00  0.00    +0.000 Br
ATOM      6  C   UNL     1      -1.036  11.934  20.420  0.00  0.00    +0.000 A 
ATOM      7  C   UNL     1      -0.533  11.124  19.404  0.00  0.00    +0.000 A 
ATOM      8  C   UNL     1       0.197   9.980  19.726  0.00  0.00    +0.000 A 
ATOM      9  C   UNL     1       0.430   9.637  21.067  0.00  0.00    +0.000 A 
BRANCH   3  10
ATOM     10  O   UNL     1       0.155  10.113  23.396  0.00  0.00    +0.000 OA
ATOM     11  H   UNL     1      -0.670  10.283  23.889  0.00  0.00    +0.000 HD
ENDBRANCH   3  10
ENDBRANCH   1   9
BRANCH   2  12
ATOM     12  N   UNL     1       2.200   6.480  20.768  0.00  0.00    +0.000 N 
ATOM     13  H   UNL     1       3.102   6.522  21.235  0.00  0.00    +0.000 HD
BRANCH  12  14
ATOM     14  C   UNL     1       1.954   5.313  20.016  0.00  0.00    +0.000 A 
ATOM     15  C   UNL     1       2.270   5.230  18.651  0.00  0.00    +0.000 A 
ATOM     16  C   UNL     1       1.948   4.101  17.895  0.00  0.00    +0.000 A 
ATOM     17  C   UNL     1       1.278   3.038  18.492  0.00  0.00    +0.000 A 
ATOM     18  C   UNL     1       0.935   3.106  19.841  0.00  0.00    +0.000 A 
ATOM     19  C   UNL     1       1.264   4.239  20.595  0.00  0.00    +0.000 A 
ENDBRANCH  12  14
ENDBRANCH   2  12
TORSDOF 4
ENDMDL
MODEL 5
REMARK VINA RESULT:      -6.6      5.912      7.856
REMARK  Name = 
REMARK  4 active torsions:
REMARK  status: ('A' for Active; 'I' for Inactive)
REMARK    1  A    between atoms: O_1  and  C_2
REMARK    2  A    between atoms: C_8  and  C_9
REMARK    3  A    between atoms: N_10  and  N_11
REMARK    4  A    between atoms: N_11  and  C_12
REMARK                            x       y       z     vdW  Elec       q    Type
REMARK                         _______ _______ _______ _____ _____    ______ ____
ROOT
ATOM      1  C   UNL     1       1.469   8.376  21.692  0.00  0.00    +0.000 C 
ATOM      2  N   UNL     1       1.334   7.523  20.727  0.00  0.00    +0.000 NA
ENDROOT
BRANCH   1   9
ATOM      3  C   UNL     1       0.341  10.420  20.786  0.00  0.00    +0.000 A 
ATOM      4  C   UNL     1      -0.558  11.482  20.952  0.00  0.00    +0.000 A 
ATOM      5 BR   UNL     1      -0.820  12.758  19.572  0.00  0.00    +0.000 Br
ATOM      6  C   UNL     1      -1.278  11.627  22.140  0.00  0.00    +0.000 A 
ATOM      7  C   UNL     1      -1.105  10.706  23.171  0.00  0.00    +0.000 A 
ATOM      8  C   UNL     1      -0.211   9.647  23.013  0.00  0.00    +0.000 A 
ATOM      9  C   UNL     1       0.516   9.500  21.820  0.00  0.00    +0.000 A 
BRANCH   3  10
ATOM     10  O   UNL     1       1.052  10.277  19.622  0.00  0.00    +0.000 OA
ATOM     11  H   UNL     1       1.832  10.860  19.682  0.00  0.00    +0.000 HD
ENDBRANCH   3  10
ENDBRANCH   1   9
BRANCH   2  12
ATOM     12  N   UNL     1       2.215   6.497  20.685  0.00  0.00    +0.000 N 
ATOM     13  H   UNL     1       3.214   6.656  20.781  0.00  0.00    +0.000 HD
BRANCH  12  14
ATOM     14  C   UNL     1       1.843   5.342  19.967  0.00  0.00    +0.000 A 
ATOM     15  C   UNL     1       1.213   4.253  20.589  0.00  0.00    +0.000 A 
ATOM     16  C   UNL     1       0.923   3.081  19.887  0.00  0.00    +0.000 A 
ATOM     17  C   UNL     1       1.282   2.970  18.548  0.00  0.00    +0.000 A 
ATOM     18  C   UNL     1       1.927   4.031  17.915  0.00  0.00    +0.000 A 
ATOM     19  C   UNL     1       2.211   5.205  18.621  0.00  0.00    +0.000 A 
ENDBRANCH  12  14
ENDBRANCH   2  12
TORSDOF 4
ENDMDL
MODEL 6
REMARK VINA RESULT:      -6.6      6.024      7.866
REMARK  Name = 
REMARK  4 active torsions:
REMARK  status: ('A' for Active; 'I' for Inactive)
REMARK    1  A    between atoms: O_1  and  C_2
REMARK    2  A    between atoms: C_8  and  C_9
REMARK    3  A    between atoms: N_10  and  N_11
REMARK    4  A    between atoms: N_11  and  C_12
REMARK                            x       y       z     vdW  Elec       q    Type
REMARK                         _______ _______ _______ _____ _____    ______ ____
ROOT
ATOM      1  C   UNL     1       1.536   8.475  20.578  0.00  0.00    +0.000 C 
ATOM      2  N   UNL     1       1.532   7.219  20.892  0.00  0.00    +0.000 NA
ENDROOT
BRANCH   1   9
ATOM      3  C   UNL     1       0.001  10.453  20.516  0.00  0.00    +0.000 A 
ATOM      4  C   UNL     1      -0.885  11.320  21.170  0.00  0.00    +0.000 A 
ATOM      5 BR   UNL     1      -1.689  12.766  20.242  0.00  0.00    +0.000 Br
ATOM      6  C   UNL     1      -1.193  11.140  22.520  0.00  0.00    +0.000 A 
ATOM      7  C   UNL     1      -0.615  10.087  23.227  0.00  0.00    +0.000 A 
ATOM      8  C   UNL     1       0.268   9.221  22.584  0.00  0.00    +0.000 A 
ATOM      9  C   UNL     1       0.581   9.401  21.226  0.00  0.00    +0.000 A 
BRANCH   3  10
ATOM     10  O   UNL     1       0.307  10.629  19.192  0.00  0.00    +0.000 OA
ATOM     11  H   UNL     1       0.984   9.966  18.957  0.00  0.00    +0.000 HD
ENDBRANCH   3  10
ENDBRANCH   1   9
BRANCH   2  12
ATOM     12  N   UNL     1       2.453   6.432  20.293  0.00  0.00    +0.000 N 
ATOM     13  H   UNL     1       3.275   6.828  19.844  0.00  0.00    +0.000 HD
BRANCH  12  14
ATOM     14  C   UNL     1       2.025   5.183  19.795  0.00  0.00    +0.000 A 
ATOM     15  C   UNL     1       2.107   4.861  18.431  0.00  0.00    +0.000 A 
ATOM     16  C   UNL     1       1.606   3.656  17.936  0.00  0.00    +0.000 A 
ATOM     17  C   UNL     1       0.989   2.756  18.799  0.00  0.00    +0.000 A 
ATOM     18  C   UNL     1       0.877   3.064  20.154  0.00  0.00    +0.000 A 
ATOM     19  C   UNL     1       1.386   4.272  20.646  0.00  0.00    +0.000 A 
ENDBRANCH  12  14
ENDBRANCH   2  12
TORSDOF 4
ENDMDL
MODEL 7
REMARK VINA RESULT:      -6.6      3.174      4.313
REMARK  Name = 
REMARK  4 active torsions:
REMARK  status: ('A' for Active; 'I' for Inactive)
REMARK    1  A    between atoms: O_1  and  C_2
REMARK    2  A    between atoms: C_8  and  C_9
REMARK    3  A    between atoms: N_10  and  N_11
REMARK    4  A    between atoms: N_11  and  C_12
REMARK                            x       y       z     vdW  Elec       q    Type
REMARK                         _______ _______ _______ _____ _____    ______ ____
ROOT
ATOM      1  C   UNL     1       3.012   6.207  18.521  0.00  0.00    +0.000 C 
ATOM      2  N   UNL     1       3.770   5.656  19.414  0.00  0.00    +0.000 NA
ENDROOT
BRANCH   1   9
ATOM      3  C   UNL     1       1.768   7.760  20.042  0.00  0.00    +0.000 A 
ATOM      4  C   UNL     1       1.146   8.995  20.267  0.00  0.00    +0.000 A 
ATOM      5 BR   UNL     1       0.322   9.378  21.933  0.00  0.00    +0.000 Br
ATOM      6  C   UNL     1       1.116   9.970  19.268  0.00  0.00    +0.000 A 
ATOM      7  C   UNL     1       1.711   9.715  18.033  0.00  0.00    +0.000 A 
ATOM      8  C   UNL     1       2.331   8.488  17.803  0.00  0.00    +0.000 A 
ATOM      9  C   UNL     1       2.361   7.505  18.805  0.00  0.00    +0.000 A 
BRANCH   3  10
ATOM     10  O   UNL     1       1.797   6.799  21.020  0.00  0.00    +0.000 OA
ATOM     11  H   UNL     1       0.970   6.287  20.952  0.00  0.00    +0.000 HD
ENDBRANCH   3  10
ENDBRANCH   1   9
BRANCH   2  12
ATOM     12  N   UNL     1       4.365   4.488  19.081  0.00  0.00    +0.000 N 
ATOM     13  H   UNL     1       4.541   3.768  19.777  0.00  0.00    +0.000 HD
BRANCH  12  14
ATOM     14  C   UNL     1       5.227   4.486  17.965  0.00  0.00    +0.000 A 
ATOM     15  C   UNL     1       4.837   3.948  16.728  0.00  0.00    +0.000 A 
ATOM     16  C   UNL     1       5.724   3.876  15.653  0.00  0.00    +0.000 A 
ATOM     17  C   UNL     1       7.033   4.322  15.805  0.00  0.00    +0.000 A 
ATOM     18  C   UNL     1       7.449   4.840  17.030  0.00  0.00    +0.000 A 
ATOM     19  C   UNL     1       6.554   4.915  18.104  0.00  0.00    +0.000 A 
ENDBRANCH  12  14
ENDBRANCH   2  12
TORSDOF 4
ENDMDL
MODEL 8
REMARK VINA RESULT:      -6.6      0.996      1.532
REMARK  Name = 
REMARK  4 active torsions:
REMARK  status: ('A' for Active; 'I' for Inactive)
REMARK    1  A    between atoms: O_1  and  C_2
REMARK    2  A    between atoms: C_8  and  C_9
REMARK    3  A    between atoms: N_10  and  N_11
REMARK    4  A    between atoms: N_11  and  C_12
REMARK                            x       y       z     vdW  Elec       q    Type
REMARK                         _______ _______ _______ _____ _____    ______ ____
ROOT
ATOM      1  C   UNL     1       5.168   5.850  16.519  0.00  0.00    +0.000 C 
ATOM      2  N   UNL     1       6.293   5.210  16.550  0.00  0.00    +0.000 NA
ENDROOT
BRANCH   1   9
ATOM      3  C   UNL     1       3.807   4.277  17.915  0.00  0.00    +0.000 A 
ATOM      4  C   UNL     1       2.814   4.064  18.880  0.00  0.00    +0.000 A 
ATOM      5 BR   UNL     1       2.329   2.305  19.401  0.00  0.00    +0.000 Br
ATOM      6  C   UNL     1       2.156   5.142  19.476  0.00  0.00    +0.000 A 
ATOM      7  C   UNL     1       2.490   6.445  19.111  0.00  0.00    +0.000 A 
ATOM      8  C   UNL     1       3.477   6.665  18.150  0.00  0.00    +0.000 A 
ATOM      9  C   UNL     1       4.138   5.582  17.548  0.00  0.00    +0.000 A 
BRANCH   3  10
ATOM     10  O   UNL     1       4.452   3.221  17.325  0.00  0.00    +0.000 OA
ATOM     11  H   UNL     1       3.940   2.969  16.534  0.00  0.00    +0.000 HD
ENDBRANCH   3  10
ENDBRANCH   1   9
BRANCH   2  12
ATOM     12  N   UNL     1       7.207   5.526  15.605  0.00  0.00    +0.000 N 
ATOM     13  H   UNL     1       7.689   6.420  15.615  0.00  0.00    +0.000 HD
BRANCH  12  14
ATOM     14  C   UNL     1       7.084   4.910  14.342  0.00  0.00    +0.000 A 
ATOM     15  C   UNL     1       7.804   5.360  13.224  0.00  0.00    +0.000 A 
ATOM     16  C   UNL     1       7.615   4.798  11.961  0.00  0.00    +0.000 A 
ATOM     17  C   UNL     1       6.680   3.782  11.788  0.00  0.00    +0.000 A 
ATOM     18  C   UNL     1       5.938   3.333  12.880  0.00  0.00    +0.000 A 
ATOM     19  C   UNL     1       6.135   3.898  14.146  0.00  0.00    +0.000 A 
ENDBRANCH  12  14
ENDBRANCH   2  12
TORSDOF 4
ENDMDL
MODEL 9
REMARK VINA RESULT:      -6.6      6.024      7.341
REMARK  Name = 
REMARK  4 active torsions:
REMARK  status: ('A' for Active; 'I' for Inactive)
REMARK    1  A    between atoms: O_1  and  C_2
REMARK    2  A    between atoms: C_8  and  C_9
REMARK    3  A    between atoms: N_10  and  N_11
REMARK    4  A    between atoms: N_11  and  C_12
REMARK                            x       y       z     vdW  Elec       q    Type
REMARK                         _______ _______ _______ _____ _____    ______ ____
ROOT
ATOM      1  C   UNL     1       7.770   8.559  17.468  0.00  0.00    +0.000 C 
ATOM      2  N   UNL     1       8.447   9.250  18.329  0.00  0.00    +0.000 NA
ENDROOT
BRANCH   1   9
ATOM      3  C   UNL     1       6.452   6.479  17.010  0.00  0.00    +0.000 A 
ATOM      4  C   UNL     1       6.124   5.157  17.336  0.00  0.00    +0.000 A 
ATOM      5 BR   UNL     1       4.824   4.204  16.335  0.00  0.00    +0.000 Br
ATOM      6  C   UNL     1       6.744   4.512  18.408  0.00  0.00    +0.000 A 
ATOM      7  C   UNL     1       7.702   5.188  19.162  0.00  0.00    +0.000 A 
ATOM      8  C   UNL     1       8.033   6.505  18.844  0.00  0.00    +0.000 A 
ATOM      9  C   UNL     1       7.409   7.156  17.768  0.00  0.00    +0.000 A 
BRANCH   3  10
ATOM     10  O   UNL     1       5.842   7.116  15.960  0.00  0.00    +0.000 OA
ATOM     11  H   UNL     1       6.426   7.847  15.682  0.00  0.00    +0.000 HD
ENDBRANCH   3  10
ENDBRANCH   1   9
BRANCH   2  12
ATOM     12  N   UNL     1       8.713  10.537  18.012  0.00  0.00    +0.000 N 
ATOM     13  H   UNL     1       8.403  10.939  17.131  0.00  0.00    +0.000 HD
BRANCH  12  14
ATOM     14  C   UNL     1       9.854  11.133  18.590  0.00  0.00    +0.000 A 
ATOM     15  C   UNL     1       9.974  11.314  19.977  0.00  0.00    +0.000 A 
ATOM     16  C   UNL     1      11.069  11.978  20.533  0.00  0.00    +0.000 A 
ATOM     17  C   UNL     1      12.058  12.496  19.704  0.00  0.00    +0.000 A 
ATOM     18  C   UNL     1      11.950  12.347  18.322  0.00  0.00    +0.000 A 
ATOM     19  C   UNL     1      10.852  11.676  17.770  0.00  0.00    +0.000 A 
ENDBRANCH  12  14
ENDBRANCH   2  12
TORSDOF 4
ENDMDL
