MODEL 1
REMARK VINA RESULT:      -6.8      0.000      0.000
REMARK  Name = 
REMARK  4 active torsions:
REMARK  status: ('A' for Active; 'I' for Inactive)
REMARK    1  A    between atoms: O_1  and  C_2
REMARK    2  A    between atoms: C_2  and  C_3
REMARK    3  A    between atoms: C_15  and  O_16
REMARK    4  A    between atoms: C_17  and  O_18
REMARK                            x       y       z     vdW  Elec       q    Type
REMARK                         _______ _______ _______ _____ _____    ______ ____
ROOT
ATOM      1  C   UNL     1       6.614   6.653  17.747  0.00  0.00    +0.000 C 
ATOM      2  O   UNL     1       5.519   7.311  17.094  0.00  0.00    +0.000 OA
ATOM      3  C   UNL     1       4.296   6.584  17.091  0.00  0.00    +0.000 C 
ATOM      4  S   UNL     1       3.492   6.432  18.689  0.00  0.00    +0.000 S 
ATOM      5  C   UNL     1       2.802   4.887  18.221  0.00  0.00    +0.000 C 
ATOM      6  N   UNL     1       1.858   4.314  19.033  0.00  0.00    +0.000 N 
ATOM      7  C   UNL     1       1.861   4.461  20.490  0.00  0.00    +0.000 C 
ATOM      8  C   UNL     1       1.615   3.050  21.004  0.00  0.00    +0.000 C 
ATOM      9  C   UNL     1       0.668   2.482  19.967  0.00  0.00    +0.000 C 
ATOM     10  C   UNL     1       1.208   3.054  18.660  0.00  0.00    +0.000 C 
ATOM     11  N   UNL     1       3.228   4.373  17.109  0.00  0.00    +0.000 NA
ATOM     12  C   UNL     1       4.402   5.137  16.606  0.00  0.00    +0.000 C 
ATOM     13  C   UNL     1       5.687   4.429  17.083  0.00  0.00    +0.000 C 
ATOM     14  C   UNL     1       6.921   5.341  17.024  0.00  0.00    +0.000 C 
ENDROOT
BRANCH  13  15
ATOM     15  O   UNL     1       5.958   3.237  16.325  0.00  0.00    +0.000 OA
ATOM     16  H   UNL     1       5.771   3.423  15.387  0.00  0.00    +0.000 HD
ENDBRANCH  13  15
BRANCH  14  17
ATOM     17  O   UNL     1       8.054   4.697  17.621  0.00  0.00    +0.000 OA
ATOM     18  H   UNL     1       8.550   5.371  18.125  0.00  0.00    +0.000 HD
ENDBRANCH  14  17
BRANCH   1  19
ATOM     19  C   UNL     1       7.834   7.583  17.743  0.00  0.00    +0.000 C 
BRANCH  19  20
ATOM     20  O   UNL     1       8.583   7.422  18.950  0.00  0.00    +0.000 OA
ATOM     21  H   UNL     1       9.168   8.197  19.024  0.00  0.00    +0.000 HD
ENDBRANCH  19  20
ENDBRANCH   1  19
TORSDOF 4
ENDMDL
MODEL 2
REMARK VINA RESULT:      -6.4      3.187      5.878
REMARK  Name = 
REMARK  4 active torsions:
REMARK  status: ('A' for Active; 'I' for Inactive)
REMARK    1  A    between atoms: O_1  and  C_2
REMARK    2  A    between atoms: C_2  and  C_3
REMARK    3  A    between atoms: C_15  and  O_16
REMARK    4  A    between atoms: C_17  and  O_18
REMARK                            x       y       z     vdW  Elec       q    Type
REMARK                         _______ _______ _______ _____ _____    ______ ____
ROOT
ATOM      1  C   UNL     1       2.066   3.979  19.730  0.00  0.00    +0.000 C 
ATOM      2  O   UNL     1       2.757   5.157  20.172  0.00  0.00    +0.000 OA
ATOM      3  C   UNL     1       4.009   5.393  19.538  0.00  0.00    +0.000 C 
ATOM      4  S   UNL     1       3.914   5.872  17.811  0.00  0.00    +0.000 S 
ATOM      5  C   UNL     1       5.468   5.117  17.493  0.00  0.00    +0.000 C 
ATOM      6  N   UNL     1       6.066   5.330  16.278  0.00  0.00    +0.000 N 
ATOM      7  C   UNL     1       5.312   5.509  15.036  0.00  0.00    +0.000 C 
ATOM      8  C   UNL     1       6.033   4.617  14.035  0.00  0.00    +0.000 C 
ATOM      9  C   UNL     1       7.480   4.746  14.460  0.00  0.00    +0.000 C 
ATOM     10  C   UNL     1       7.390   4.771  15.982  0.00  0.00    +0.000 C 
ATOM     11  N   UNL     1       5.971   4.398  18.447  0.00  0.00    +0.000 NA
ATOM     12  C   UNL     1       4.965   4.199  19.525  0.00  0.00    +0.000 C 
ATOM     13  C   UNL     1       4.251   2.852  19.285  0.00  0.00    +0.000 C 
ATOM     14  C   UNL     1       2.918   2.746  20.038  0.00  0.00    +0.000 C 
ENDROOT
BRANCH  13  15
ATOM     15  O   UNL     1       5.077   1.732  19.652  0.00  0.00    +0.000 OA
ATOM     16  H   UNL     1       4.601   1.208  20.322  0.00  0.00    +0.000 HD
ENDBRANCH  13  15
BRANCH  14  17
ATOM     17  O   UNL     1       2.219   1.553  19.663  0.00  0.00    +0.000 OA
ATOM     18  H   UNL     1       1.732   1.738  18.837  0.00  0.00    +0.000 HD
ENDBRANCH  14  17
BRANCH   1  19
ATOM     19  C   UNL     1       0.707   3.900  20.436  0.00  0.00    +0.000 C 
BRANCH  19  20
ATOM     20  O   UNL     1       0.744   2.915  21.472  0.00  0.00    +0.000 OA
ATOM     21  H   UNL     1      -0.170   2.808  21.791  0.00  0.00    +0.000 HD
ENDBRANCH  19  20
ENDBRANCH   1  19
TORSDOF 4
ENDMDL
MODEL 3
REMARK VINA RESULT:      -6.3      1.167      1.435
REMARK  Name = 
REMARK  4 active torsions:
REMARK  status: ('A' for Active; 'I' for Inactive)
REMARK    1  A    between atoms: O_1  and  C_2
REMARK    2  A    between atoms: C_2  and  C_3
REMARK    3  A    between atoms: C_15  and  O_16
REMARK    4  A    between atoms: C_17  and  O_18
REMARK                            x       y       z     vdW  Elec       q    Type
REMARK                         _______ _______ _______ _____ _____    ______ ____
ROOT
ATOM      1  C   UNL     1       6.961   7.653  17.706  0.00  0.00    +0.000 C 
ATOM      2  O   UNL     1       6.194   7.554  16.497  0.00  0.00    +0.000 OA
ATOM      3  C   UNL     1       5.164   6.572  16.517  0.00  0.00    +0.000 C 
ATOM      4  S   UNL     1       3.772   6.946  17.587  0.00  0.00    +0.000 S 
ATOM      5  C   UNL     1       3.497   5.234  17.865  0.00  0.00    +0.000 C 
ATOM      6  N   UNL     1       2.354   4.848  18.516  0.00  0.00    +0.000 N 
ATOM      7  C   UNL     1       1.720   5.652  19.562  0.00  0.00    +0.000 C 
ATOM      8  C   UNL     1       1.411   4.647  20.663  0.00  0.00    +0.000 C 
ATOM      9  C   UNL     1       1.057   3.399  19.881  0.00  0.00    +0.000 C 
ATOM     10  C   UNL     1       2.048   3.428  18.722  0.00  0.00    +0.000 C 
ATOM     11  N   UNL     1       4.404   4.420  17.421  0.00  0.00    +0.000 NA
ATOM     12  C   UNL     1       5.602   5.180  16.974  0.00  0.00    +0.000 C 
ATOM     13  C   UNL     1       6.620   5.214  18.134  0.00  0.00    +0.000 C 
ATOM     14  C   UNL     1       7.670   6.323  17.968  0.00  0.00    +0.000 C 
ENDROOT
BRANCH  13  15
ATOM     15  O   UNL     1       7.300   3.956  18.290  0.00  0.00    +0.000 OA
ATOM     16  H   UNL     1       7.738   3.739  17.447  0.00  0.00    +0.000 HD
ENDBRANCH  13  15
BRANCH  14  17
ATOM     17  O   UNL     1       8.492   6.419  19.137  0.00  0.00    +0.000 OA
ATOM     18  H   UNL     1       9.082   7.188  19.025  0.00  0.00    +0.000 HD
ENDBRANCH  14  17
BRANCH   1  19
ATOM     19  C   UNL     1       7.972   8.798  17.567  0.00  0.00    +0.000 C 
BRANCH  19  20
ATOM     20  O   UNL     1       8.561   9.094  18.837  0.00  0.00    +0.000 OA
ATOM     21  H   UNL     1       9.522   8.980  18.734  0.00  0.00    +0.000 HD
ENDBRANCH  19  20
ENDBRANCH   1  19
TORSDOF 4
ENDMDL
MODEL 4
REMARK VINA RESULT:      -5.8      3.034      6.136
REMARK  Name = 
REMARK  4 active torsions:
REMARK  status: ('A' for Active; 'I' for Inactive)
REMARK    1  A    between atoms: O_1  and  C_2
REMARK    2  A    between atoms: C_2  and  C_3
REMARK    3  A    between atoms: C_15  and  O_16
REMARK    4  A    between atoms: C_17  and  O_18
REMARK                            x       y       z     vdW  Elec       q    Type
REMARK                         _______ _______ _______ _____ _____    ______ ____
ROOT
ATOM      1  C   UNL     1       2.490   3.670  19.894  0.00  0.00    +0.000 C 
ATOM      2  O   UNL     1       2.519   3.447  18.476  0.00  0.00    +0.000 OA
ATOM      3  C   UNL     1       3.288   4.387  17.735  0.00  0.00    +0.000 C 
ATOM      4  S   UNL     1       5.064   4.282  17.975  0.00  0.00    +0.000 S 
ATOM      5  C   UNL     1       5.229   6.005  17.676  0.00  0.00    +0.000 C 
ATOM      6  N   UNL     1       6.487   6.530  17.530  0.00  0.00    +0.000 N 
ATOM      7  C   UNL     1       7.657   6.012  18.242  0.00  0.00    +0.000 C 
ATOM      8  C   UNL     1       8.355   7.261  18.762  0.00  0.00    +0.000 C 
ATOM      9  C   UNL     1       8.108   8.262  17.653  0.00  0.00    +0.000 C 
ATOM     10  C   UNL     1       6.679   7.951  17.222  0.00  0.00    +0.000 C 
ATOM     11  N   UNL     1       4.131   6.690  17.600  0.00  0.00    +0.000 NA
ATOM     12  C   UNL     1       2.975   5.856  18.028  0.00  0.00    +0.000 C 
ATOM     13  C   UNL     1       2.698   6.132  19.521  0.00  0.00    +0.000 C 
ATOM     14  C   UNL     1       1.854   5.031  20.180  0.00  0.00    +0.000 C 
ENDROOT
BRANCH  13  15
ATOM     15  O   UNL     1       2.042   7.397  19.721  0.00  0.00    +0.000 OA
ATOM     16  H   UNL     1       2.134   7.642  20.660  0.00  0.00    +0.000 HD
ENDBRANCH  13  15
BRANCH  14  17
ATOM     17  O   UNL     1       1.756   5.248  21.593  0.00  0.00    +0.000 OA
ATOM     18  H   UNL     1       1.531   6.187  21.737  0.00  0.00    +0.000 HD
ENDBRANCH  14  17
BRANCH   1  19
ATOM     19  C   UNL     1       1.697   2.540  20.564  0.00  0.00    +0.000 C 
BRANCH  19  20
ATOM     20  O   UNL     1       2.021   2.466  21.955  0.00  0.00    +0.000 OA
ATOM     21  H   UNL     1       2.575   3.241  22.156  0.00  0.00    +0.000 HD
ENDBRANCH  19  20
ENDBRANCH   1  19
TORSDOF 4
ENDMDL
MODEL 5
REMARK VINA RESULT:      -5.7      2.006      3.134
REMARK  Name = 
REMARK  4 active torsions:
REMARK  status: ('A' for Active; 'I' for Inactive)
REMARK    1  A    between atoms: O_1  and  C_2
REMARK    2  A    between atoms: C_2  and  C_3
REMARK    3  A    between atoms: C_15  and  O_16
REMARK    4  A    between atoms: C_17  and  O_18
REMARK                            x       y       z     vdW  Elec       q    Type
REMARK                         _______ _______ _______ _____ _____    ______ ____
ROOT
ATOM      1  C   UNL     1       6.157   4.776  15.655  0.00  0.00    +0.000 C 
ATOM      2  O   UNL     1       6.947   4.300  16.755  0.00  0.00    +0.000 OA
ATOM      3  C   UNL     1       6.272   4.258  18.007  0.00  0.00    +0.000 C 
ATOM      4  S   UNL     1       4.992   3.006  18.144  0.00  0.00    +0.000 S 
ATOM      5  C   UNL     1       4.095   4.015  19.266  0.00  0.00    +0.000 C 
ATOM      6  N   UNL     1       3.018   3.474  19.922  0.00  0.00    +0.000 N 
ATOM      7  C   UNL     1       2.148   2.459  19.326  0.00  0.00    +0.000 C 
ATOM      8  C   UNL     1       0.742   2.946  19.644  0.00  0.00    +0.000 C 
ATOM      9  C   UNL     1       0.910   3.572  21.012  0.00  0.00    +0.000 C 
ATOM     10  C   UNL     1       2.270   4.255  20.912  0.00  0.00    +0.000 C 
ATOM     11  N   UNL     1       4.516   5.232  19.420  0.00  0.00    +0.000 NA
ATOM     12  C   UNL     1       5.552   5.549  18.399  0.00  0.00    +0.000 C 
ATOM     13  C   UNL     1       4.866   6.249  17.207  0.00  0.00    +0.000 C 
ATOM     14  C   UNL     1       5.719   6.216  15.931  0.00  0.00    +0.000 C 
ENDROOT
BRANCH  13  15
ATOM     15  O   UNL     1       4.535   7.618  17.504  0.00  0.00    +0.000 OA
ATOM     16  H   UNL     1       4.052   7.987  16.743  0.00  0.00    +0.000 HD
ENDBRANCH  13  15
BRANCH  14  17
ATOM     17  O   UNL     1       4.981   6.733  14.817  0.00  0.00    +0.000 OA
ATOM     18  H   UNL     1       4.622   7.604  15.074  0.00  0.00    +0.000 HD
ENDBRANCH  14  17
BRANCH   1  19
ATOM     19  C   UNL     1       6.985   4.689  14.367  0.00  0.00    +0.000 C 
BRANCH  19  20
ATOM     20  O   UNL     1       8.028   5.667  14.383  0.00  0.00    +0.000 OA
ATOM     21  H   UNL     1       8.681   5.392  13.714  0.00  0.00    +0.000 HD
ENDBRANCH  19  20
ENDBRANCH   1  19
TORSDOF 4
ENDMDL
MODEL 6
REMARK VINA RESULT:      -5.4      2.414      3.584
REMARK  Name = 
REMARK  4 active torsions:
REMARK  status: ('A' for Active; 'I' for Inactive)
REMARK    1  A    between atoms: O_1  and  C_2
REMARK    2  A    between atoms: C_2  and  C_3
REMARK    3  A    between atoms: C_15  and  O_16
REMARK    4  A    between atoms: C_17  and  O_18
REMARK                            x       y       z     vdW  Elec       q    Type
REMARK                         _______ _______ _______ _____ _____    ______ ____
ROOT
ATOM      1  C   UNL     1       5.978   4.628  16.418  0.00  0.00    +0.000 C 
ATOM      2  O   UNL     1       4.985   3.635  16.714  0.00  0.00    +0.000 OA
ATOM      3  C   UNL     1       4.110   3.961  17.788  0.00  0.00    +0.000 C 
ATOM      4  S   UNL     1       2.949   5.289  17.454  0.00  0.00    +0.000 S 
ATOM      5  C   UNL     1       2.951   5.748  19.149  0.00  0.00    +0.000 C 
ATOM      6  N   UNL     1       2.032   6.669  19.583  0.00  0.00    +0.000 N 
ATOM      7  C   UNL     1       1.548   7.769  18.747  0.00  0.00    +0.000 C 
ATOM      8  C   UNL     1       1.609   8.983  19.664  0.00  0.00    +0.000 C 
ATOM      9  C   UNL     1       1.248   8.396  21.012  0.00  0.00    +0.000 C 
ATOM     10  C   UNL     1       1.953   7.044  20.998  0.00  0.00    +0.000 C 
ATOM     11  N   UNL     1       3.832   5.172  19.907  0.00  0.00    +0.000 NA
ATOM     12  C   UNL     1       4.803   4.410  19.076  0.00  0.00    +0.000 C 
ATOM     13  C   UNL     1       6.037   5.302  18.823  0.00  0.00    +0.000 C 
ATOM     14  C   UNL     1       6.883   4.820  17.636  0.00  0.00    +0.000 C 
ENDROOT
BRANCH  13  15
ATOM     15  O   UNL     1       6.882   5.393  19.984  0.00  0.00    +0.000 OA
ATOM     16  H   UNL     1       6.326   5.283  20.776  0.00  0.00    +0.000 HD
ENDBRANCH  13  15
BRANCH  14  17
ATOM     17  O   UNL     1       7.921   5.762  17.341  0.00  0.00    +0.000 OA
ATOM     18  H   UNL     1       8.085   5.735  16.378  0.00  0.00    +0.000 HD
ENDBRANCH  14  17
BRANCH   1  19
ATOM     19  C   UNL     1       6.788   4.179  15.195  0.00  0.00    +0.000 C 
BRANCH  19  20
ATOM     20  O   UNL     1       7.529   5.279  14.661  0.00  0.00    +0.000 OA
ATOM     21  H   UNL     1       7.918   5.750  15.419  0.00  0.00    +0.000 HD
ENDBRANCH  19  20
ENDBRANCH   1  19
TORSDOF 4
ENDMDL
MODEL 7
REMARK VINA RESULT:      -5.3      3.481      6.102
REMARK  Name = 
REMARK  4 active torsions:
REMARK  status: ('A' for Active; 'I' for Inactive)
REMARK    1  A    between atoms: O_1  and  C_2
REMARK    2  A    between atoms: C_2  and  C_3
REMARK    3  A    between atoms: C_15  and  O_16
REMARK    4  A    between atoms: C_17  and  O_18
REMARK                            x       y       z     vdW  Elec       q    Type
REMARK                         _______ _______ _______ _____ _____    ______ ____
ROOT
ATOM      1  C   UNL     1       2.482   3.197  20.927  0.00  0.00    +0.000 C 
ATOM      2  O   UNL     1       3.740   2.507  20.958  0.00  0.00    +0.000 OA
ATOM      3  C   UNL     1       4.460   2.513  19.731  0.00  0.00    +0.000 C 
ATOM      4  S   UNL     1       5.134   4.105  19.247  0.00  0.00    +0.000 S 
ATOM      5  C   UNL     1       4.979   3.679  17.550  0.00  0.00    +0.000 C 
ATOM      6  N   UNL     1       5.552   4.498  16.611  0.00  0.00    +0.000 N 
ATOM      7  C   UNL     1       5.660   5.949  16.775  0.00  0.00    +0.000 C 
ATOM      8  C   UNL     1       5.209   6.506  15.432  0.00  0.00    +0.000 C 
ATOM      9  C   UNL     1       5.735   5.476  14.454  0.00  0.00    +0.000 C 
ATOM     10  C   UNL     1       5.503   4.158  15.185  0.00  0.00    +0.000 C 
ATOM     11  N   UNL     1       4.328   2.591  17.280  0.00  0.00    +0.000 NA
ATOM     12  C   UNL     1       3.656   2.078  18.505  0.00  0.00    +0.000 C 
ATOM     13  C   UNL     1       2.202   2.595  18.517  0.00  0.00    +0.000 C 
ATOM     14  C   UNL     1       1.559   2.522  19.910  0.00  0.00    +0.000 C 
ENDROOT
BRANCH  13  15
ATOM     15  O   UNL     1       1.368   1.881  17.587  0.00  0.00    +0.000 OA
ATOM     16  H   UNL     1       0.438   2.020  17.842  0.00  0.00    +0.000 HD
ENDBRANCH  13  15
BRANCH  14  17
ATOM     17  O   UNL     1       0.274   3.155  19.907  0.00  0.00    +0.000 OA
ATOM     18  H   UNL     1      -0.072   3.133  20.820  0.00  0.00    +0.000 HD
ENDBRANCH  14  17
BRANCH   1  19
ATOM     19  C   UNL     1       1.863   3.177  22.330  0.00  0.00    +0.000 C 
BRANCH  19  20
ATOM     20  O   UNL     1       0.845   2.175  22.408  0.00  0.00    +0.000 OA
ATOM     21  H   UNL     1       0.554   1.999  21.496  0.00  0.00    +0.000 HD
ENDBRANCH  19  20
ENDBRANCH   1  19
TORSDOF 4
ENDMDL
MODEL 8
REMARK VINA RESULT:      -5.2      3.127      6.017
REMARK  Name = 
REMARK  4 active torsions:
REMARK  status: ('A' for Active; 'I' for Inactive)
REMARK    1  A    between atoms: O_1  and  C_2
REMARK    2  A    between atoms: C_2  and  C_3
REMARK    3  A    between atoms: C_15  and  O_16
REMARK    4  A    between atoms: C_17  and  O_18
REMARK                            x       y       z     vdW  Elec       q    Type
REMARK                         _______ _______ _______ _____ _____    ______ ____
ROOT
ATOM      1  C   UNL     1       1.747   3.402  20.276  0.00  0.00    +0.000 C 
ATOM      2  O   UNL     1       1.024   3.398  19.037  0.00  0.00    +0.000 OA
ATOM      3  C   UNL     1       1.681   4.047  17.954  0.00  0.00    +0.000 C 
ATOM      4  S   UNL     1       3.132   3.200  17.322  0.00  0.00    +0.000 S 
ATOM      5  C   UNL     1       3.854   4.733  16.860  0.00  0.00    +0.000 C 
ATOM      6  N   UNL     1       4.990   4.721  16.094  0.00  0.00    +0.000 N 
ATOM      7  C   UNL     1       6.011   3.676  16.194  0.00  0.00    +0.000 C 
ATOM      8  C   UNL     1       7.324   4.445  16.227  0.00  0.00    +0.000 C 
ATOM      9  C   UNL     1       7.046   5.613  15.305  0.00  0.00    +0.000 C 
ATOM     10  C   UNL     1       5.600   5.972  15.632  0.00  0.00    +0.000 C 
ATOM     11  N   UNL     1       3.252   5.806  17.271  0.00  0.00    +0.000 NA
ATOM     12  C   UNL     1       2.194   5.456  18.257  0.00  0.00    +0.000 C 
ATOM     13  C   UNL     1       2.782   5.596  19.677  0.00  0.00    +0.000 C 
ATOM     14  C   UNL     1       1.961   4.845  20.735  0.00  0.00    +0.000 C 
ENDROOT
BRANCH  13  15
ATOM     15  O   UNL     1       2.900   6.973  20.077  0.00  0.00    +0.000 OA
ATOM     16  H   UNL     1       2.725   7.029  21.034  0.00  0.00    +0.000 HD
ENDBRANCH  13  15
BRANCH  14  17
ATOM     17  O   UNL     1       2.627   4.871  22.003  0.00  0.00    +0.000 OA
ATOM     18  H   UNL     1       2.639   3.960  22.353  0.00  0.00    +0.000 HD
ENDBRANCH  14  17
BRANCH   1  19
ATOM     19  C   UNL     1       0.959   2.603  21.321  0.00  0.00    +0.000 C 
BRANCH  19  20
ATOM     20  O   UNL     1       1.825   2.180  22.378  0.00  0.00    +0.000 OA
ATOM     21  H   UNL     1       2.691   2.593  22.213  0.00  0.00    +0.000 HD
ENDBRANCH  19  20
ENDBRANCH   1  19
TORSDOF 4
ENDMDL
MODEL 9
REMARK VINA RESULT:      -5.2      1.858      2.549
REMARK  Name = 
REMARK  4 active torsions:
REMARK  status: ('A' for Active; 'I' for Inactive)
REMARK    1  A    between atoms: O_1  and  C_2
REMARK    2  A    between atoms: C_2  and  C_3
REMARK    3  A    between atoms: C_15  and  O_16
REMARK    4  A    between atoms: C_17  and  O_18
REMARK                            x       y       z     vdW  Elec       q    Type
REMARK                         _______ _______ _______ _____ _____    ______ ____
ROOT
ATOM      1  C   UNL     1       7.307   7.805  17.661  0.00  0.00    +0.000 C 
ATOM      2  O   UNL     1       6.906   6.953  16.578  0.00  0.00    +0.000 OA
ATOM      3  C   UNL     1       6.206   5.777  16.966  0.00  0.00    +0.000 C 
ATOM      4  S   UNL     1       4.552   6.047  17.610  0.00  0.00    +0.000 S 
ATOM      5  C   UNL     1       4.693   4.627  18.633  0.00  0.00    +0.000 C 
ATOM      6  N   UNL     1       3.577   4.173  19.287  0.00  0.00    +0.000 N 
ATOM      7  C   UNL     1       2.520   5.061  19.774  0.00  0.00    +0.000 C 
ATOM      8  C   UNL     1       2.242   4.564  21.186  0.00  0.00    +0.000 C 
ATOM      9  C   UNL     1       2.436   3.068  21.053  0.00  0.00    +0.000 C 
ATOM     10  C   UNL     1       3.627   2.958  20.107  0.00  0.00    +0.000 C 
ATOM     11  N   UNL     1       5.865   4.076  18.704  0.00  0.00    +0.000 NA
ATOM     12  C   UNL     1       6.883   4.949  18.059  0.00  0.00    +0.000 C 
ATOM     13  C   UNL     1       7.549   5.813  19.151  0.00  0.00    +0.000 C 
ATOM     14  C   UNL     1       8.267   7.043  18.576  0.00  0.00    +0.000 C 
ENDROOT
BRANCH  13  15
ATOM     15  O   UNL     1       8.487   5.058  19.938  0.00  0.00    +0.000 OA
ATOM     16  H   UNL     1       8.414   5.352  20.864  0.00  0.00    +0.000 HD
ENDBRANCH  13  15
BRANCH  14  17
ATOM     17  O   UNL     1       8.730   7.895  19.631  0.00  0.00    +0.000 OA
ATOM     18  H   UNL     1       7.954   8.346  20.014  0.00  0.00    +0.000 HD
ENDBRANCH  14  17
BRANCH   1  19
ATOM     19  C   UNL     1       7.973   9.063  17.090  0.00  0.00    +0.000 C 
BRANCH  19  20
ATOM     20  O   UNL     1       8.133  10.047  18.116  0.00  0.00    +0.000 OA
ATOM     21  H   UNL     1       8.010  10.915  17.694  0.00  0.00    +0.000 HD
ENDBRANCH  19  20
ENDBRANCH   1  19
TORSDOF 4
ENDMDL
