MODEL 1
REMARK VINA RESULT:      -8.6      0.000      0.000
REMARK  Name = 
REMARK  5 active torsions:
REMARK  status: ('A' for Active; 'I' for Inactive)
REMARK    1  A    between atoms: C_2  and  C_3
REMARK    2  A    between atoms: C_3  and  O_4
REMARK    3  A    between atoms: C_8  and  C_9
REMARK    4  A    between atoms: C_20  and  C_21
REMARK    5  A    between atoms: C_21  and  N_22
REMARK                            x       y       z     vdW  Elec       q    Type
REMARK                         _______ _______ _______ _____ _____    ______ ____
ROOT
ATOM      1  C   UNL     1       1.724   7.950  19.527  0.00  0.00    +0.000 A 
ATOM      2  C   UNL     1       1.011   8.188  20.717  0.00  0.00    +0.000 A 
ATOM      3  C   UNL     1       0.314   9.385  20.911  0.00  0.00    +0.000 A 
ATOM      4  C   UNL     1       0.307  10.372  19.912  0.00  0.00    +0.000 A 
ATOM      5  C   UNL     1       1.008  10.152  18.732  0.00  0.00    +0.000 A 
ATOM      6  C   UNL     1       1.696   8.956  18.547  0.00  0.00    +0.000 A 
ATOM      7  F   UNL     1       2.332   8.794  17.376  0.00  0.00    +0.000 F 
ATOM      8  N   UNL     1      -0.395  11.560  20.163  0.00  0.00    +0.000 N 
ATOM      9  C   UNL     1      -0.242  12.778  19.562  0.00  0.00    +0.000 C 
ATOM     10  O   UNL     1       0.397  13.067  18.567  0.00  0.00    +0.000 OA
ATOM     11  O   UNL     1      -0.908  13.714  20.295  0.00  0.00    +0.000 OA
ATOM     12  C   UNL     1      -1.516  13.108  21.462  0.00  0.00    +0.000 C 
ATOM     13  C   UNL     1      -1.267  11.618  21.294  0.00  0.00    +0.000 C 
ATOM     14  C   UNL     1      -0.607  10.904  22.467  0.00  0.00    +0.000 C 
ATOM     15  O   UNL     1      -0.326   9.530  22.126  0.00  0.00    +0.000 OA
ENDROOT
BRANCH   1  21
ATOM     16  O   UNL     1       4.880   3.181  17.009  0.00  0.00    +0.000 OA
ATOM     17  C   UNL     1       4.154   3.170  18.006  0.00  0.00    +0.000 C 
ATOM     18  N   UNL     1       3.892   4.300  18.765  0.00  0.00    +0.000 N 
ATOM     19  C   UNL     1       3.064   4.312  19.962  0.00  0.00    +0.000 C 
ATOM     20  C   UNL     1       2.322   5.610  20.105  0.00  0.00    +0.000 C 
ATOM     21  C   UNL     1       2.513   6.703  19.338  0.00  0.00    +0.000 C 
ATOM     22  C   UNL     1       3.558   6.671  18.237  0.00  0.00    +0.000 C 
ATOM     23  C   UNL     1       4.574   5.552  18.448  0.00  0.00    +0.000 C 
BRANCH  17  24
ATOM     24  C   UNL     1       3.470   1.861  18.430  0.00  0.00    +0.000 C 
BRANCH  24  25
ATOM     25  O   UNL     1       4.373   0.769  18.530  0.00  0.00    +0.000 OA
ATOM     26  H   UNL     1       4.914   0.799  17.715  0.00  0.00    +0.000 HD
ENDBRANCH  24  25
ENDBRANCH  17  24
ENDBRANCH   1  21
BRANCH  12  27
ATOM     27  C   UNL     1      -3.003  13.459  21.427  0.00  0.00    +0.000 C 
BRANCH  27  28
ATOM     28  N   UNL     1      -3.659  13.091  22.665  0.00  0.00    +0.000 N 
ATOM     29  C   UNL     1      -3.183  13.221  23.936  0.00  0.00    +0.000 A 
ATOM     30  C   UNL     1      -4.172  12.664  24.709  0.00  0.00    +0.000 A 
ATOM     31  N   UNL     1      -5.196  12.246  23.906  0.00  0.00    +0.000 NA
ATOM     32  N   UNL     1      -4.870  12.512  22.648  0.00  0.00    +0.000 NA
ENDBRANCH  27  28
ENDBRANCH  12  27
TORSDOF 5
ENDMDL
MODEL 2
REMARK VINA RESULT:      -8.6      3.130     10.762
REMARK  Name = 
REMARK  5 active torsions:
REMARK  status: ('A' for Active; 'I' for Inactive)
REMARK    1  A    between atoms: C_2  and  C_3
REMARK    2  A    between atoms: C_3  and  O_4
REMARK    3  A    between atoms: C_8  and  C_9
REMARK    4  A    between atoms: C_20  and  C_21
REMARK    5  A    between atoms: C_21  and  N_22
REMARK                            x       y       z     vdW  Elec       q    Type
REMARK                         _______ _______ _______ _____ _____    ______ ____
ROOT
ATOM      1  C   UNL     1       1.780   8.260  19.327  0.00  0.00    +0.000 A 
ATOM      2  C   UNL     1       2.463   8.456  18.111  0.00  0.00    +0.000 A 
ATOM      3  C   UNL     1       3.367   7.503  17.632  0.00  0.00    +0.000 A 
ATOM      4  C   UNL     1       3.604   6.323  18.355  0.00  0.00    +0.000 A 
ATOM      5  C   UNL     1       2.939   6.115  19.557  0.00  0.00    +0.000 A 
ATOM      6  C   UNL     1       2.039   7.069  20.025  0.00  0.00    +0.000 A 
ATOM      7  F   UNL     1       1.410   6.798  21.180  0.00  0.00    +0.000 F 
ATOM      8  N   UNL     1       4.530   5.406  17.837  0.00  0.00    +0.000 N 
ATOM      9  C   UNL     1       5.210   4.421  18.499  0.00  0.00    +0.000 C 
ATOM     10  O   UNL     1       5.040   3.999  19.628  0.00  0.00    +0.000 OA
ATOM     11  O   UNL     1       6.209   3.964  17.695  0.00  0.00    +0.000 OA
ATOM     12  C   UNL     1       6.228   4.689  16.442  0.00  0.00    +0.000 C 
ATOM     13  C   UNL     1       5.000   5.584  16.498  0.00  0.00    +0.000 C 
ATOM     14  C   UNL     1       5.229   7.068  16.245  0.00  0.00    +0.000 C 
ATOM     15  O   UNL     1       4.005   7.807  16.445  0.00  0.00    +0.000 OA
ENDROOT
BRANCH   1  21
ATOM     16  O   UNL     1      -1.554  13.483  20.128  0.00  0.00    +0.000 OA
ATOM     17  C   UNL     1      -1.023  12.781  20.992  0.00  0.00    +0.000 C 
ATOM     18  N   UNL     1      -0.734  11.438  20.803  0.00  0.00    +0.000 N 
ATOM     19  C   UNL     1      -0.134  10.577  21.813  0.00  0.00    +0.000 C 
ATOM     20  C   UNL     1       0.753   9.537  21.192  0.00  0.00    +0.000 C 
ATOM     21  C   UNL     1       0.861   9.296  19.870  0.00  0.00    +0.000 C 
ATOM     22  C   UNL     1       0.032  10.108  18.891  0.00  0.00    +0.000 C 
ATOM     23  C   UNL     1      -1.159  10.777  19.571  0.00  0.00    +0.000 C 
BRANCH  17  24
ATOM     24  C   UNL     1      -0.623  13.407  22.336  0.00  0.00    +0.000 C 
BRANCH  24  25
ATOM     25  O   UNL     1       0.679  13.973  22.320  0.00  0.00    +0.000 OA
ATOM     26  H   UNL     1       0.684  14.643  23.033  0.00  0.00    +0.000 HD
ENDBRANCH  24  25
ENDBRANCH  17  24
ENDBRANCH   1  21
BRANCH  12  27
ATOM     27  C   UNL     1       6.144   3.654  15.321  0.00  0.00    +0.000 C 
BRANCH  27  28
ATOM     28  N   UNL     1       6.685   4.176  14.082  0.00  0.00    +0.000 N 
ATOM     29  C   UNL     1       6.441   3.741  12.814  0.00  0.00    +0.000 A 
ATOM     30  C   UNL     1       7.248   4.536  12.039  0.00  0.00    +0.000 A 
ATOM     31  N   UNL     1       7.922   5.416  12.838  0.00  0.00    +0.000 NA
ATOM     32  N   UNL     1       7.568   5.186  14.096  0.00  0.00    +0.000 NA
ENDBRANCH  27  28
ENDBRANCH  12  27
TORSDOF 5
ENDMDL
MODEL 3
REMARK VINA RESULT:      -8.5      1.160      1.755
REMARK  Name = 
REMARK  5 active torsions:
REMARK  status: ('A' for Active; 'I' for Inactive)
REMARK    1  A    between atoms: C_2  and  C_3
REMARK    2  A    between atoms: C_3  and  O_4
REMARK    3  A    between atoms: C_8  and  C_9
REMARK    4  A    between atoms: C_20  and  C_21
REMARK    5  A    between atoms: C_21  and  N_22
REMARK                            x       y       z     vdW  Elec       q    Type
REMARK                         _______ _______ _______ _____ _____    ______ ____
ROOT
ATOM      1  C   UNL     1       1.620   8.547  19.197  0.00  0.00    +0.000 A 
ATOM      2  C   UNL     1       0.919   8.628  20.415  0.00  0.00    +0.000 A 
ATOM      3  C   UNL     1       0.153   9.754  20.731  0.00  0.00    +0.000 A 
ATOM      4  C   UNL     1       0.062  10.827  19.829  0.00  0.00    +0.000 A 
ATOM      5  C   UNL     1       0.749  10.762  18.623  0.00  0.00    +0.000 A 
ATOM      6  C   UNL     1       1.508   9.636  18.316  0.00  0.00    +0.000 A 
ATOM      7  F   UNL     1       2.126   9.624  17.125  0.00  0.00    +0.000 F 
ATOM      8  N   UNL     1      -0.709  11.937  20.200  0.00  0.00    +0.000 N 
ATOM      9  C   UNL     1      -0.646  13.214  19.714  0.00  0.00    +0.000 C 
ATOM     10  O   UNL     1      -0.049  13.634  18.740  0.00  0.00    +0.000 OA
ATOM     11  O   UNL     1      -1.354  14.032  20.542  0.00  0.00    +0.000 OA
ATOM     12  C   UNL     1      -1.897  13.284  21.656  0.00  0.00    +0.000 C 
ATOM     13  C   UNL     1      -1.558  11.834  21.346  0.00  0.00    +0.000 C 
ATOM     14  C   UNL     1      -0.829  11.060  22.436  0.00  0.00    +0.000 C 
ATOM     15  O   UNL     1      -0.469   9.744  21.964  0.00  0.00    +0.000 OA
ENDROOT
BRANCH   1  21
ATOM     16  O   UNL     1       5.245   3.479  19.657  0.00  0.00    +0.000 OA
ATOM     17  C   UNL     1       5.322   4.396  18.836  0.00  0.00    +0.000 C 
ATOM     18  N   UNL     1       4.244   5.197  18.493  0.00  0.00    +0.000 N 
ATOM     19  C   UNL     1       4.297   6.267  17.507  0.00  0.00    +0.000 C 
ATOM     20  C   UNL     1       3.379   7.398  17.873  0.00  0.00    +0.000 C 
ATOM     21  C   UNL     1       2.482   7.377  18.880  0.00  0.00    +0.000 C 
ATOM     22  C   UNL     1       2.346   6.129  19.734  0.00  0.00    +0.000 C 
ATOM     23  C   UNL     1       2.923   4.898  19.040  0.00  0.00    +0.000 C 
BRANCH  17  24
ATOM     24  C   UNL     1       6.672   4.706  18.171  0.00  0.00    +0.000 C 
BRANCH  24  25
ATOM     25  O   UNL     1       7.655   5.153  19.093  0.00  0.00    +0.000 OA
ATOM     26  H   UNL     1       7.252   5.054  19.979  0.00  0.00    +0.000 HD
ENDBRANCH  24  25
ENDBRANCH  17  24
ENDBRANCH   1  21
BRANCH  12  27
ATOM     27  C   UNL     1      -3.403  13.539  21.677  0.00  0.00    +0.000 C 
BRANCH  27  28
ATOM     28  N   UNL     1      -4.000  13.063  22.909  0.00  0.00    +0.000 N 
ATOM     29  C   UNL     1      -3.466  13.088  24.162  0.00  0.00    +0.000 A 
ATOM     30  C   UNL     1      -4.416  12.462  24.931  0.00  0.00    +0.000 A 
ATOM     31  N   UNL     1      -5.475  12.107  24.144  0.00  0.00    +0.000 NA
ATOM     32  N   UNL     1      -5.209  12.480  22.899  0.00  0.00    +0.000 NA
ENDBRANCH  27  28
ENDBRANCH  12  27
TORSDOF 5
ENDMDL
MODEL 4
REMARK VINA RESULT:      -8.4      1.098      1.255
REMARK  Name = 
REMARK  5 active torsions:
REMARK  status: ('A' for Active; 'I' for Inactive)
REMARK    1  A    between atoms: C_2  and  C_3
REMARK    2  A    between atoms: C_3  and  O_4
REMARK    3  A    between atoms: C_8  and  C_9
REMARK    4  A    between atoms: C_20  and  C_21
REMARK    5  A    between atoms: C_21  and  N_22
REMARK                            x       y       z     vdW  Elec       q    Type
REMARK                         _______ _______ _______ _____ _____    ______ ____
ROOT
ATOM      1  C   UNL     1       1.974   7.612  19.162  0.00  0.00    +0.000 A 
ATOM      2  C   UNL     1       1.248   7.884  20.337  0.00  0.00    +0.000 A 
ATOM      3  C   UNL     1       0.649   9.132  20.539  0.00  0.00    +0.000 A 
ATOM      4  C   UNL     1       0.756  10.137  19.565  0.00  0.00    +0.000 A 
ATOM      5  C   UNL     1       1.471   9.884  18.400  0.00  0.00    +0.000 A 
ATOM      6  C   UNL     1       2.062   8.638  18.207  0.00  0.00    +0.000 A 
ATOM      7  F   UNL     1       2.716   8.447  17.050  0.00  0.00    +0.000 F 
ATOM      8  N   UNL     1       0.150  11.375  19.823  0.00  0.00    +0.000 N 
ATOM      9  C   UNL     1       0.424  12.589  19.256  0.00  0.00    +0.000 C 
ATOM     10  O   UNL     1       1.115  12.843  18.287  0.00  0.00    +0.000 OA
ATOM     11  O   UNL     1      -0.182  13.561  19.993  0.00  0.00    +0.000 OA
ATOM     12  C   UNL     1      -0.875  12.986  21.126  0.00  0.00    +0.000 C 
ATOM     13  C   UNL     1      -0.748  11.483  20.931  0.00  0.00    +0.000 C 
ATOM     14  C   UNL     1      -0.187  10.691  22.104  0.00  0.00    +0.000 C 
ATOM     15  O   UNL     1      -0.014   9.305  21.738  0.00  0.00    +0.000 OA
ENDROOT
BRANCH   1  21
ATOM     16  O   UNL     1       3.165   1.528  18.380  0.00  0.00    +0.000 OA
ATOM     17  C   UNL     1       3.835   2.360  18.996  0.00  0.00    +0.000 C 
ATOM     18  N   UNL     1       3.783   3.720  18.731  0.00  0.00    +0.000 N 
ATOM     19  C   UNL     1       4.582   4.723  19.420  0.00  0.00    +0.000 C 
ATOM     20  C   UNL     1       3.841   6.022  19.553  0.00  0.00    +0.000 C 
ATOM     21  C   UNL     1       2.660   6.307  18.966  0.00  0.00    +0.000 C 
ATOM     22  C   UNL     1       1.993   5.266  18.084  0.00  0.00    +0.000 C 
ATOM     23  C   UNL     1       2.981   4.204  17.610  0.00  0.00    +0.000 C 
BRANCH  17  24
ATOM     24  C   UNL     1       4.754   1.898  20.136  0.00  0.00    +0.000 C 
BRANCH  24  25
ATOM     25  O   UNL     1       4.119   1.919  21.406  0.00  0.00    +0.000 OA
ATOM     26  H   UNL     1       4.531   2.659  21.895  0.00  0.00    +0.000 HD
ENDBRANCH  24  25
ENDBRANCH  17  24
ENDBRANCH   1  21
BRANCH  12  27
ATOM     27  C   UNL     1      -2.325  13.463  21.057  0.00  0.00    +0.000 C 
BRANCH  27  28
ATOM     28  N   UNL     1      -3.036  13.161  22.283  0.00  0.00    +0.000 N 
ATOM     29  C   UNL     1      -2.680  13.481  23.559  0.00  0.00    +0.000 A 
ATOM     30  C   UNL     1      -3.665  12.906  24.323  0.00  0.00    +0.000 A 
ATOM     31  N   UNL     1      -4.572  12.290  23.508  0.00  0.00    +0.000 NA
ATOM     32  N   UNL     1      -4.175  12.452  22.251  0.00  0.00    +0.000 NA
ENDBRANCH  27  28
ENDBRANCH  12  27
TORSDOF 5
ENDMDL
MODEL 5
REMARK VINA RESULT:      -8.4      2.944     10.498
REMARK  Name = 
REMARK  5 active torsions:
REMARK  status: ('A' for Active; 'I' for Inactive)
REMARK    1  A    between atoms: C_2  and  C_3
REMARK    2  A    between atoms: C_3  and  O_4
REMARK    3  A    between atoms: C_8  and  C_9
REMARK    4  A    between atoms: C_20  and  C_21
REMARK    5  A    between atoms: C_21  and  N_22
REMARK                            x       y       z     vdW  Elec       q    Type
REMARK                         _______ _______ _______ _____ _____    ______ ____
ROOT
ATOM      1  C   UNL     1       0.939   9.085  19.705  0.00  0.00    +0.000 A 
ATOM      2  C   UNL     1       1.774   9.176  18.576  0.00  0.00    +0.000 A 
ATOM      3  C   UNL     1       2.628   8.126  18.226  0.00  0.00    +0.000 A 
ATOM      4  C   UNL     1       2.662   6.952  18.996  0.00  0.00    +0.000 A 
ATOM      5  C   UNL     1       1.844   6.847  20.115  0.00  0.00    +0.000 A 
ATOM      6  C   UNL     1       0.995   7.897  20.454  0.00  0.00    +0.000 A 
ATOM      7  F   UNL     1       0.212   7.724  21.530  0.00  0.00    +0.000 F 
ATOM      8  N   UNL     1       3.546   5.934  18.611  0.00  0.00    +0.000 N 
ATOM      9  C   UNL     1       4.043   4.910  19.368  0.00  0.00    +0.000 C 
ATOM     10  O   UNL     1       3.702   4.542  20.477  0.00  0.00    +0.000 OA
ATOM     11  O   UNL     1       5.079   4.333  18.697  0.00  0.00    +0.000 OA
ATOM     12  C   UNL     1       5.315   5.014  17.441  0.00  0.00    +0.000 C 
ATOM     13  C   UNL     1       4.183   6.024  17.333  0.00  0.00    +0.000 C 
ATOM     14  C   UNL     1       4.586   7.470  17.080  0.00  0.00    +0.000 C 
ATOM     15  O   UNL     1       3.427   8.330  17.118  0.00  0.00    +0.000 OA
ENDROOT
BRANCH   1  21
ATOM     16  O   UNL     1      -2.533  13.076  23.032  0.00  0.00    +0.000 OA
ATOM     17  C   UNL     1      -2.707  12.705  21.868  0.00  0.00    +0.000 C 
ATOM     18  N   UNL     1      -1.682  12.230  21.064  0.00  0.00    +0.000 N 
ATOM     19  C   UNL     1      -1.851  11.812  19.680  0.00  0.00    +0.000 C 
ATOM     20  C   UNL     1      -0.922  10.685  19.328  0.00  0.00    +0.000 C 
ATOM     21  C   UNL     1       0.070  10.221  20.115  0.00  0.00    +0.000 C 
ATOM     22  C   UNL     1       0.312  10.862  21.470  0.00  0.00    +0.000 C 
ATOM     23  C   UNL     1      -0.308  12.253  21.561  0.00  0.00    +0.000 C 
BRANCH  17  24
ATOM     24  C   UNL     1      -4.120  12.730  21.269  0.00  0.00    +0.000 C 
BRANCH  24  25
ATOM     25  O   UNL     1      -5.119  12.300  22.183  0.00  0.00    +0.000 OA
ATOM     26  H   UNL     1      -4.906  11.367  22.387  0.00  0.00    +0.000 HD
ENDBRANCH  24  25
ENDBRANCH  17  24
ENDBRANCH   1  21
BRANCH  12  27
ATOM     27  C   UNL     1       5.260   3.957  16.339  0.00  0.00    +0.000 C 
BRANCH  27  28
ATOM     28  N   UNL     1       6.071   4.340  15.201  0.00  0.00    +0.000 N 
ATOM     29  C   UNL     1       5.970   3.900  13.915  0.00  0.00    +0.000 A 
ATOM     30  C   UNL     1       7.009   4.530  13.276  0.00  0.00    +0.000 A 
ATOM     31  N   UNL     1       7.676   5.324  14.166  0.00  0.00    +0.000 NA
ATOM     32  N   UNL     1       7.091   5.200  15.351  0.00  0.00    +0.000 NA
ENDBRANCH  27  28
ENDBRANCH  12  27
TORSDOF 5
ENDMDL
MODEL 6
REMARK VINA RESULT:      -8.3      1.562      2.153
REMARK  Name = 
REMARK  5 active torsions:
REMARK  status: ('A' for Active; 'I' for Inactive)
REMARK    1  A    between atoms: C_2  and  C_3
REMARK    2  A    between atoms: C_3  and  O_4
REMARK    3  A    between atoms: C_8  and  C_9
REMARK    4  A    between atoms: C_20  and  C_21
REMARK    5  A    between atoms: C_21  and  N_22
REMARK                            x       y       z     vdW  Elec       q    Type
REMARK                         _______ _______ _______ _____ _____    ______ ____
ROOT
ATOM      1  C   UNL     1       1.655   8.284  19.488  0.00  0.00    +0.000 A 
ATOM      2  C   UNL     1       1.137   8.242  20.796  0.00  0.00    +0.000 A 
ATOM      3  C   UNL     1       0.324   9.272  21.280  0.00  0.00    +0.000 A 
ATOM      4  C   UNL     1       0.003  10.368  20.462  0.00  0.00    +0.000 A 
ATOM      5  C   UNL     1       0.509  10.423  19.169  0.00  0.00    +0.000 A 
ATOM      6  C   UNL     1       1.315   9.392  18.695  0.00  0.00    +0.000 A 
ATOM      7  F   UNL     1       1.751   9.492  17.429  0.00  0.00    +0.000 F 
ATOM      8  N   UNL     1      -0.803  11.380  21.001  0.00  0.00    +0.000 N 
ATOM      9  C   UNL     1      -0.931  12.676  20.583  0.00  0.00    +0.000 C 
ATOM     10  O   UNL     1      -0.524  13.194  19.560  0.00  0.00    +0.000 OA
ATOM     11  O   UNL     1      -1.582  13.384  21.548  0.00  0.00    +0.000 OA
ATOM     12  C   UNL     1      -1.885  12.538  22.684  0.00  0.00    +0.000 C 
ATOM     13  C   UNL     1      -1.463  11.144  22.248  0.00  0.00    +0.000 C 
ATOM     14  C   UNL     1      -0.513  10.401  23.179  0.00  0.00    +0.000 C 
ATOM     15  O   UNL     1      -0.107   9.148  22.586  0.00  0.00    +0.000 OA
ENDROOT
BRANCH   1  21
ATOM     16  O   UNL     1       5.648   3.490  19.141  0.00  0.00    +0.000 OA
ATOM     17  C   UNL     1       5.590   4.485  18.415  0.00  0.00    +0.000 C 
ATOM     18  N   UNL     1       4.434   5.229  18.241  0.00  0.00    +0.000 N 
ATOM     19  C   UNL     1       4.328   6.390  17.369  0.00  0.00    +0.000 C 
ATOM     20  C   UNL     1       3.369   7.407  17.919  0.00  0.00    +0.000 C 
ATOM     21  C   UNL     1       2.566   7.220  18.987  0.00  0.00    +0.000 C 
ATOM     22  C   UNL     1       2.590   5.889  19.717  0.00  0.00    +0.000 C 
ATOM     23  C   UNL     1       3.189   4.778  18.857  0.00  0.00    +0.000 C 
BRANCH  17  24
ATOM     24  C   UNL     1       6.853   4.960  17.682  0.00  0.00    +0.000 C 
BRANCH  24  25
ATOM     25  O   UNL     1       7.948   4.066  17.823  0.00  0.00    +0.000 OA
ATOM     26  H   UNL     1       8.739   4.633  17.926  0.00  0.00    +0.000 HD
ENDBRANCH  24  25
ENDBRANCH  17  24
ENDBRANCH   1  21
BRANCH  12  27
ATOM     27  C   UNL     1      -3.388  12.641  22.933  0.00  0.00    +0.000 C 
BRANCH  27  28
ATOM     28  N   UNL     1      -3.736  13.915  23.531  0.00  0.00    +0.000 N 
ATOM     29  C   UNL     1      -4.619  14.844  23.067  0.00  0.00    +0.000 A 
ATOM     30  C   UNL     1      -4.514  15.869  23.974  0.00  0.00    +0.000 A 
ATOM     31  N   UNL     1      -3.612  15.530  24.942  0.00  0.00    +0.000 NA
ATOM     32  N   UNL     1      -3.136  14.324  24.660  0.00  0.00    +0.000 NA
ENDBRANCH  27  28
ENDBRANCH  12  27
TORSDOF 5
ENDMDL
MODEL 7
REMARK VINA RESULT:      -8.3      2.523      3.760
REMARK  Name = 
REMARK  5 active torsions:
REMARK  status: ('A' for Active; 'I' for Inactive)
REMARK    1  A    between atoms: C_2  and  C_3
REMARK    2  A    between atoms: C_3  and  O_4
REMARK    3  A    between atoms: C_8  and  C_9
REMARK    4  A    between atoms: C_20  and  C_21
REMARK    5  A    between atoms: C_21  and  N_22
REMARK                            x       y       z     vdW  Elec       q    Type
REMARK                         _______ _______ _______ _____ _____    ______ ____
ROOT
ATOM      1  C   UNL     1       3.467   7.066  18.179  0.00  0.00    +0.000 A 
ATOM      2  C   UNL     1       2.989   8.313  17.733  0.00  0.00    +0.000 A 
ATOM      3  C   UNL     1       2.061   9.039  18.486  0.00  0.00    +0.000 A 
ATOM      4  C   UNL     1       1.592   8.537  19.711  0.00  0.00    +0.000 A 
ATOM      5  C   UNL     1       2.053   7.306  20.164  0.00  0.00    +0.000 A 
ATOM      6  C   UNL     1       2.979   6.592  19.408  0.00  0.00    +0.000 A 
ATOM      7  F   UNL     1       3.404   5.423  19.913  0.00  0.00    +0.000 F 
ATOM      8  N   UNL     1       0.651   9.297  20.420  0.00  0.00    +0.000 N 
ATOM      9  C   UNL     1      -0.222   8.881  21.386  0.00  0.00    +0.000 C 
ATOM     10  O   UNL     1      -0.262   7.816  21.974  0.00  0.00    +0.000 OA
ATOM     11  O   UNL     1      -1.143   9.863  21.596  0.00  0.00    +0.000 OA
ATOM     12  C   UNL     1      -0.902  10.985  20.713  0.00  0.00    +0.000 C 
ATOM     13  C   UNL     1       0.399  10.642  20.004  0.00  0.00    +0.000 C 
ATOM     14  C   UNL     1       0.377  10.695  18.482  0.00  0.00    +0.000 C 
ATOM     15  O   UNL     1       1.636  10.236  17.944  0.00  0.00    +0.000 OA
ENDROOT
BRANCH   1  21
ATOM     16  O   UNL     1       7.838   5.320  14.071  0.00  0.00    +0.000 OA
ATOM     17  C   UNL     1       6.813   4.714  14.393  0.00  0.00    +0.000 C 
ATOM     18  N   UNL     1       6.171   4.905  15.607  0.00  0.00    +0.000 N 
ATOM     19  C   UNL     1       4.978   4.185  16.027  0.00  0.00    +0.000 C 
ATOM     20  C   UNL     1       4.088   5.044  16.880  0.00  0.00    +0.000 C 
ATOM     21  C   UNL     1       4.410   6.264  17.356  0.00  0.00    +0.000 C 
ATOM     22  C   UNL     1       5.773   6.855  17.040  0.00  0.00    +0.000 C 
ATOM     23  C   UNL     1       6.772   5.785  16.607  0.00  0.00    +0.000 C 
BRANCH  17  24
ATOM     24  C   UNL     1       6.181   3.720  13.409  0.00  0.00    +0.000 C 
BRANCH  24  25
ATOM     25  O   UNL     1       6.781   3.753  12.122  0.00  0.00    +0.000 OA
ATOM     26  H   UNL     1       7.739   3.867  12.281  0.00  0.00    +0.000 HD
ENDBRANCH  24  25
ENDBRANCH  17  24
ENDBRANCH   1  21
BRANCH  12  27
ATOM     27  C   UNL     1      -0.778  12.229  21.590  0.00  0.00    +0.000 C 
BRANCH  27  28
ATOM     28  N   UNL     1      -2.064  12.621  22.132  0.00  0.00    +0.000 N 
ATOM     29  C   UNL     1      -2.976  13.475  21.588  0.00  0.00    +0.000 A 
ATOM     30  C   UNL     1      -3.968  13.534  22.535  0.00  0.00    +0.000 A 
ATOM     31  N   UNL     1      -3.644  12.721  23.584  0.00  0.00    +0.000 NA
ATOM     32  N   UNL     1      -2.467  12.163  23.327  0.00  0.00    +0.000 NA
ENDBRANCH  27  28
ENDBRANCH  12  27
TORSDOF 5
ENDMDL
MODEL 8
REMARK VINA RESULT:      -8.2      3.060      4.355
REMARK  Name = 
REMARK  5 active torsions:
REMARK  status: ('A' for Active; 'I' for Inactive)
REMARK    1  A    between atoms: C_2  and  C_3
REMARK    2  A    between atoms: C_3  and  O_4
REMARK    3  A    between atoms: C_8  and  C_9
REMARK    4  A    between atoms: C_20  and  C_21
REMARK    5  A    between atoms: C_21  and  N_22
REMARK                            x       y       z     vdW  Elec       q    Type
REMARK                         _______ _______ _______ _____ _____    ______ ____
ROOT
ATOM      1  C   UNL     1       3.432   7.101  18.212  0.00  0.00    +0.000 A 
ATOM      2  C   UNL     1       3.010   8.373  17.782  0.00  0.00    +0.000 A 
ATOM      3  C   UNL     1       2.095   9.118  18.532  0.00  0.00    +0.000 A 
ATOM      4  C   UNL     1       1.583   8.610  19.737  0.00  0.00    +0.000 A 
ATOM      5  C   UNL     1       1.990   7.355  20.174  0.00  0.00    +0.000 A 
ATOM      6  C   UNL     1       2.904   6.621  19.422  0.00  0.00    +0.000 A 
ATOM      7  F   UNL     1       3.275   5.428  19.910  0.00  0.00    +0.000 F 
ATOM      8  N   UNL     1       0.658   9.391  20.443  0.00  0.00    +0.000 N 
ATOM      9  C   UNL     1      -0.249   8.989  21.385  0.00  0.00    +0.000 C 
ATOM     10  O   UNL     1      -0.340   7.915  21.951  0.00  0.00    +0.000 OA
ATOM     11  O   UNL     1      -1.137  10.000  21.597  0.00  0.00    +0.000 OA
ATOM     12  C   UNL     1      -0.837  11.129  20.741  0.00  0.00    +0.000 C 
ATOM     13  C   UNL     1       0.464  10.752  20.050  0.00  0.00    +0.000 C 
ATOM     14  C   UNL     1       0.473  10.835  18.529  0.00  0.00    +0.000 C 
ATOM     15  O   UNL     1       1.724  10.340  18.006  0.00  0.00    +0.000 OA
ENDROOT
BRANCH   1  21
ATOM     16  O   UNL     1       7.781   5.269  14.116  0.00  0.00    +0.000 OA
ATOM     17  C   UNL     1       6.742   4.684  14.434  0.00  0.00    +0.000 C 
ATOM     18  N   UNL     1       6.100   4.887  15.645  0.00  0.00    +0.000 N 
ATOM     19  C   UNL     1       4.890   4.192  16.060  0.00  0.00    +0.000 C 
ATOM     20  C   UNL     1       4.016   5.067  16.911  0.00  0.00    +0.000 C 
ATOM     21  C   UNL     1       4.362   6.280  17.390  0.00  0.00    +0.000 C 
ATOM     22  C   UNL     1       5.737   6.842  17.080  0.00  0.00    +0.000 C 
ATOM     23  C   UNL     1       6.715   5.752  16.649  0.00  0.00    +0.000 C 
BRANCH  17  24
ATOM     24  C   UNL     1       6.092   3.705  13.445  0.00  0.00    +0.000 C 
BRANCH  24  25
ATOM     25  O   UNL     1       6.731   3.689  12.176  0.00  0.00    +0.000 OA
ATOM     26  H   UNL     1       6.082   4.068  11.550  0.00  0.00    +0.000 HD
ENDBRANCH  24  25
ENDBRANCH  17  24
ENDBRANCH   1  21
BRANCH  12  27
ATOM     27  C   UNL     1      -0.685  12.351  21.645  0.00  0.00    +0.000 C 
BRANCH  27  28
ATOM     28  N   UNL     1      -0.281  13.519  20.888  0.00  0.00    +0.000 N 
ATOM     29  C   UNL     1      -0.944  14.121  19.861  0.00  0.00    +0.000 A 
ATOM     30  C   UNL     1      -0.095  15.128  19.475  0.00  0.00    +0.000 A 
ATOM     31  N   UNL     1       1.016  15.117  20.271  0.00  0.00    +0.000 NA
ATOM     32  N   UNL     1       0.892  14.120  21.139  0.00  0.00    +0.000 NA
ENDBRANCH  27  28
ENDBRANCH  12  27
TORSDOF 5
ENDMDL
MODEL 9
REMARK VINA RESULT:      -8.1      2.067      3.031
REMARK  Name = 
REMARK  5 active torsions:
REMARK  status: ('A' for Active; 'I' for Inactive)
REMARK    1  A    between atoms: C_2  and  C_3
REMARK    2  A    between atoms: C_3  and  O_4
REMARK    3  A    between atoms: C_8  and  C_9
REMARK    4  A    between atoms: C_20  and  C_21
REMARK    5  A    between atoms: C_21  and  N_22
REMARK                            x       y       z     vdW  Elec       q    Type
REMARK                         _______ _______ _______ _____ _____    ______ ____
ROOT
ATOM      1  C   UNL     1       1.869   8.274  19.409  0.00  0.00    +0.000 A 
ATOM      2  C   UNL     1       1.521   9.500  18.809  0.00  0.00    +0.000 A 
ATOM      3  C   UNL     1       0.868  10.498  19.539  0.00  0.00    +0.000 A 
ATOM      4  C   UNL     1       0.554  10.296  20.893  0.00  0.00    +0.000 A 
ATOM      5  C   UNL     1       0.890   9.091  21.499  0.00  0.00    +0.000 A 
ATOM      6  C   UNL     1       1.542   8.104  20.764  0.00  0.00    +0.000 A 
ATOM      7  F   UNL     1       1.862   6.974  21.413  0.00  0.00    +0.000 F 
ATOM      8  N   UNL     1      -0.114  11.323  21.576  0.00  0.00    +0.000 N 
ATOM      9  C   UNL     1      -0.854  11.238  22.723  0.00  0.00    +0.000 C 
ATOM     10  O   UNL     1      -0.954  10.309  23.502  0.00  0.00    +0.000 OA
ATOM     11  O   UNL     1      -1.556  12.395  22.876  0.00  0.00    +0.000 OA
ATOM     12  C   UNL     1      -1.305  13.295  21.769  0.00  0.00    +0.000 C 
ATOM     13  C   UNL     1      -0.222  12.606  20.954  0.00  0.00    +0.000 C 
ATOM     14  C   UNL     1      -0.509  12.415  19.470  0.00  0.00    +0.000 C 
ATOM     15  O   UNL     1       0.545  11.649  18.848  0.00  0.00    +0.000 OA
ENDROOT
BRANCH   1  21
ATOM     16  O   UNL     1       4.309   2.803  17.633  0.00  0.00    +0.000 OA
ATOM     17  C   UNL     1       4.675   3.937  17.315  0.00  0.00    +0.000 C 
ATOM     18  N   UNL     1       3.835   5.039  17.341  0.00  0.00    +0.000 N 
ATOM     19  C   UNL     1       4.229   6.383  16.945  0.00  0.00    +0.000 C 
ATOM     20  C   UNL     1       3.518   7.428  17.756  0.00  0.00    +0.000 C 
ATOM     21  C   UNL     1       2.512   7.188  18.622  0.00  0.00    +0.000 C 
ATOM     22  C   UNL     1       2.018   5.766  18.819  0.00  0.00    +0.000 C 
ATOM     23  C   UNL     1       2.421   4.857  17.661  0.00  0.00    +0.000 C 
BRANCH  17  24
ATOM     24  C   UNL     1       6.134   4.172  16.897  0.00  0.00    +0.000 C 
BRANCH  24  25
ATOM     25  O   UNL     1       7.037   4.150  17.994  0.00  0.00    +0.000 OA
ATOM     26  H   UNL     1       7.532   4.992  17.944  0.00  0.00    +0.000 HD
ENDBRANCH  24  25
ENDBRANCH  17  24
ENDBRANCH   1  21
BRANCH  12  27
ATOM     27  C   UNL     1      -0.832  14.619  22.365  0.00  0.00    +0.000 C 
BRANCH  27  28
ATOM     28  N   UNL     1      -1.561  14.942  23.576  0.00  0.00    +0.000 N 
ATOM     29  C   UNL     1      -2.879  15.265  23.698  0.00  0.00    +0.000 A 
ATOM     30  C   UNL     1      -3.022  15.534  25.037  0.00  0.00    +0.000 A 
ATOM     31  N   UNL     1      -1.825  15.350  25.669  0.00  0.00    +0.000 NA
ATOM     32  N   UNL     1      -0.929  14.986  24.759  0.00  0.00    +0.000 NA
ENDBRANCH  27  28
ENDBRANCH  12  27
TORSDOF 5
ENDMDL
