MODEL 1
REMARK VINA RESULT:      -7.5      0.000      0.000
REMARK  Name = 
REMARK  12 active torsions:
REMARK  status: ('A' for Active; 'I' for Inactive)
REMARK    1  A    between atoms: C_1  and  C_2
REMARK    2  A    between atoms: C_2  and  O_4
REMARK    3  A    between atoms: O_4  and  C_5
REMARK    4  A    between atoms: C_5  and  C_6
REMARK    5  A    between atoms: CA_7  and  C_8
REMARK    6  A    between atoms: C_8  and  OXT_10
REMARK    7  A    between atoms: CA_14  and  N_15
REMARK    8  A    between atoms: C_16  and  C_18
REMARK    9  A    between atoms: C_18  and  C_19
REMARK   10  A    between atoms: C_19  and  O_20
REMARK   11  A    between atoms: O_20  and  N_21
REMARK   12  A    between atoms: C_22  and  C_23
REMARK                            x       y       z     vdW  Elec       q    Type
REMARK                         _______ _______ _______ _____ _____    ______ ____
ROOT
ATOM      1  C   UNL     1       4.234   3.902  18.276  0.00  0.00    +0.000 C 
ATOM      2  CA  UNL     1       3.634   3.041  19.142  0.00  0.00    +0.000 C 
ATOM      3  N   UNL     1       2.368   3.278  19.695  0.00  0.00    +0.000 N 
ATOM      4  C   UNL     1       2.366   3.670  21.028  0.00  0.00    +0.000 C 
ATOM      5  O   UNL     1       2.702   3.011  21.985  0.00  0.00    +0.000 OA
ATOM      6  CA  UNL     1       2.220   5.170  20.578  0.00  0.00    +0.000 C 
ATOM      7  C   UNL     1       1.578   4.486  19.348  0.00  0.00    +0.000 C 
ATOM      8  S   UNL     1       1.832   5.184  17.725  0.00  0.00    +0.000 S 
ATOM      9  C   UNL     1       3.606   5.119  17.657  0.00  0.00    +0.000 C 
ENDROOT
BRANCH   6  10
ATOM     10  N   UNL     1       1.391   6.142  21.321  0.00  0.00    +0.000 N 
ATOM     11  C   UNL     1       1.244   7.458  20.957  0.00  0.00    +0.000 C 
ATOM     12  O   UNL     1       1.963   7.989  20.115  0.00  0.00    +0.000 OA
ATOM     13  H   UNL     1       0.643   5.747  21.883  0.00  0.00    +0.000 HD
BRANCH  11  14
ATOM     14  C   UNL     1       0.161   8.261  21.654  0.00  0.00    +0.000 C 
BRANCH  14  15
ATOM     15  C   UNL     1       0.623   9.491  22.410  0.00  0.00    +0.000 C 
BRANCH  15  16
ATOM     16  O   UNL     1      -0.047  10.651  21.917  0.00  0.00    +0.000 OA
BRANCH  16  17
ATOM     17  N   UNL     1       0.889  11.540  21.388  0.00  0.00    +0.000 NA
ATOM     18  C   UNL     1       0.663  11.832  20.139  0.00  0.00    +0.000 C 
BRANCH  18  19
ATOM     19  C   UNL     1      -0.436  11.403  19.239  0.00  0.00    +0.000 A 
ATOM     20  C   UNL     1      -1.630  12.117  19.096  0.00  0.00    +0.000 A 
ATOM     21  C   UNL     1      -2.626  11.658  18.236  0.00  0.00    +0.000 A 
ATOM     22  C   UNL     1      -2.409  10.515  17.473  0.00  0.00    +0.000 A 
ATOM     23  C   UNL     1      -1.212   9.810  17.587  0.00  0.00    +0.000 A 
ATOM     24  C   UNL     1      -0.228  10.246  18.476  0.00  0.00    +0.000 A 
ENDBRANCH  18  19
ENDBRANCH  16  17
ENDBRANCH  15  16
ENDBRANCH  14  15
ENDBRANCH  11  14
ENDBRANCH   6  10
BRANCH   2  25
ATOM     25  C   UNL     1       4.404   1.822  19.649  0.00  0.00    +0.000 C 
ATOM     26  O   UNL     1       5.101   1.832  20.654  0.00  0.00    +0.000 OA
BRANCH  25  27
ATOM     27  OXT UNL     1       4.351   0.713  18.883  0.00  0.00    +0.000 OA
ATOM     28  HXT UNL     1       4.208  -0.142  19.351  0.00  0.00    +0.000 HD
ENDBRANCH  25  27
ENDBRANCH   2  25
BRANCH   1  29
ATOM     29  C   UNL     1       5.711   3.847  17.916  0.00  0.00    +0.000 C 
BRANCH  29  30
ATOM     30  O   UNL     1       5.980   4.872  16.947  0.00  0.00    +0.000 OA
BRANCH  30  32
ATOM     31  C   UNL     1       7.664   5.309  18.493  0.00  0.00    +0.000 C 
ATOM     32  C   UNL     1       7.063   5.657  17.167  0.00  0.00    +0.000 C 
ATOM     33  O   UNL     1       7.479   6.527  16.408  0.00  0.00    +0.000 OA
ENDBRANCH  30  32
ENDBRANCH  29  30
ENDBRANCH   1  29
TORSDOF 11
ENDMDL
MODEL 2
REMARK VINA RESULT:      -7.4      2.366      3.403
REMARK  Name = 
REMARK  12 active torsions:
REMARK  status: ('A' for Active; 'I' for Inactive)
REMARK    1  A    between atoms: C_1  and  C_2
REMARK    2  A    between atoms: C_2  and  O_4
REMARK    3  A    between atoms: O_4  and  C_5
REMARK    4  A    between atoms: C_5  and  C_6
REMARK    5  A    between atoms: CA_7  and  C_8
REMARK    6  A    between atoms: C_8  and  OXT_10
REMARK    7  A    between atoms: CA_14  and  N_15
REMARK    8  A    between atoms: C_16  and  C_18
REMARK    9  A    between atoms: C_18  and  C_19
REMARK   10  A    between atoms: C_19  and  O_20
REMARK   11  A    between atoms: O_20  and  N_21
REMARK   12  A    between atoms: C_22  and  C_23
REMARK                            x       y       z     vdW  Elec       q    Type
REMARK                         _______ _______ _______ _____ _____    ______ ____
ROOT
ATOM      1  C   UNL     1       5.015   4.206  16.155  0.00  0.00    +0.000 C 
ATOM      2  CA  UNL     1       5.901   4.292  17.184  0.00  0.00    +0.000 C 
ATOM      3  N   UNL     1       5.521   4.164  18.527  0.00  0.00    +0.000 N 
ATOM      4  C   UNL     1       5.487   5.349  19.250  0.00  0.00    +0.000 C 
ATOM      5  O   UNL     1       6.425   6.054  19.545  0.00  0.00    +0.000 OA
ATOM      6  CA  UNL     1       3.931   5.428  19.034  0.00  0.00    +0.000 C 
ATOM      7  C   UNL     1       4.113   3.896  18.917  0.00  0.00    +0.000 C 
ATOM      8  S   UNL     1       3.110   2.980  17.760  0.00  0.00    +0.000 S 
ATOM      9  C   UNL     1       3.570   3.809  16.258  0.00  0.00    +0.000 C 
ENDROOT
BRANCH   6  10
ATOM     10  N   UNL     1       3.011   5.922  20.080  0.00  0.00    +0.000 N 
ATOM     11  C   UNL     1       2.197   7.017  19.926  0.00  0.00    +0.000 C 
ATOM     12  O   UNL     1       2.327   7.806  18.994  0.00  0.00    +0.000 OA
ATOM     13  H   UNL     1       2.715   5.237  20.767  0.00  0.00    +0.000 HD
BRANCH  11  14
ATOM     14  C   UNL     1       1.123   7.244  20.974  0.00  0.00    +0.000 C 
BRANCH  14  15
ATOM     15  C   UNL     1       1.009   8.653  21.522  0.00  0.00    +0.000 C 
BRANCH  15  16
ATOM     16  O   UNL     1       0.190   9.448  20.666  0.00  0.00    +0.000 OA
BRANCH  16  17
ATOM     17  N   UNL     1       0.893  10.586  20.273  0.00  0.00    +0.000 NA
ATOM     18  C   UNL     1       0.295  11.252  19.327  0.00  0.00    +0.000 C 
BRANCH  18  19
ATOM     19  C   UNL     1      -1.007  11.005  18.658  0.00  0.00    +0.000 A 
ATOM     20  C   UNL     1      -1.207   9.976  17.733  0.00  0.00    +0.000 A 
ATOM     21  C   UNL     1      -2.454   9.798  17.136  0.00  0.00    +0.000 A 
ATOM     22  C   UNL     1      -3.520  10.612  17.506  0.00  0.00    +0.000 A 
ATOM     23  C   UNL     1      -3.339  11.624  18.447  0.00  0.00    +0.000 A 
ATOM     24  C   UNL     1      -2.083  11.828  19.019  0.00  0.00    +0.000 A 
ENDBRANCH  18  19
ENDBRANCH  16  17
ENDBRANCH  15  16
ENDBRANCH  14  15
ENDBRANCH  11  14
ENDBRANCH   6  10
BRANCH   2  25
ATOM     25  C   UNL     1       7.353   4.672  16.900  0.00  0.00    +0.000 C 
ATOM     26  O   UNL     1       7.683   5.551  16.116  0.00  0.00    +0.000 OA
BRANCH  25  27
ATOM     27  OXT UNL     1       8.302   3.927  17.506  0.00  0.00    +0.000 OA
ATOM     28  HXT UNL     1       9.238   4.191  17.349  0.00  0.00    +0.000 HD
ENDBRANCH  25  27
ENDBRANCH   2  25
BRANCH   1  29
ATOM     29  C   UNL     1       5.323   4.656  14.734  0.00  0.00    +0.000 C 
BRANCH  29  30
ATOM     30  O   UNL     1       6.060   3.613  14.078  0.00  0.00    +0.000 OA
BRANCH  30  32
ATOM     31  C   UNL     1       4.723   3.333  12.193  0.00  0.00    +0.000 C 
ATOM     32  C   UNL     1       6.090   3.640  12.723  0.00  0.00    +0.000 C 
ATOM     33  O   UNL     1       7.080   3.865  12.035  0.00  0.00    +0.000 OA
ENDBRANCH  30  32
ENDBRANCH  29  30
ENDBRANCH   1  29
TORSDOF 11
ENDMDL
MODEL 3
REMARK VINA RESULT:      -7.4      2.176      3.107
REMARK  Name = 
REMARK  12 active torsions:
REMARK  status: ('A' for Active; 'I' for Inactive)
REMARK    1  A    between atoms: C_1  and  C_2
REMARK    2  A    between atoms: C_2  and  O_4
REMARK    3  A    between atoms: O_4  and  C_5
REMARK    4  A    between atoms: C_5  and  C_6
REMARK    5  A    between atoms: CA_7  and  C_8
REMARK    6  A    between atoms: C_8  and  OXT_10
REMARK    7  A    between atoms: CA_14  and  N_15
REMARK    8  A    between atoms: C_16  and  C_18
REMARK    9  A    between atoms: C_18  and  C_19
REMARK   10  A    between atoms: C_19  and  O_20
REMARK   11  A    between atoms: O_20  and  N_21
REMARK   12  A    between atoms: C_22  and  C_23
REMARK                            x       y       z     vdW  Elec       q    Type
REMARK                         _______ _______ _______ _____ _____    ______ ____
ROOT
ATOM      1  C   UNL     1       4.984   4.100  16.332  0.00  0.00    +0.000 C 
ATOM      2  CA  UNL     1       5.896   4.294  17.323  0.00  0.00    +0.000 C 
ATOM      3  N   UNL     1       5.566   4.223  18.684  0.00  0.00    +0.000 N 
ATOM      4  C   UNL     1       5.488   5.444  19.341  0.00  0.00    +0.000 C 
ATOM      5  O   UNL     1       6.393   6.215  19.562  0.00  0.00    +0.000 OA
ATOM      6  CA  UNL     1       3.924   5.424  19.175  0.00  0.00    +0.000 C 
ATOM      7  C   UNL     1       4.190   3.900  19.138  0.00  0.00    +0.000 C 
ATOM      8  S   UNL     1       3.204   2.865  18.069  0.00  0.00    +0.000 S 
ATOM      9  C   UNL     1       3.568   3.631  16.508  0.00  0.00    +0.000 C 
ENDROOT
BRANCH   6  10
ATOM     10  N   UNL     1       3.011   5.926  20.223  0.00  0.00    +0.000 N 
ATOM     11  C   UNL     1       2.208   7.029  20.073  0.00  0.00    +0.000 C 
ATOM     12  O   UNL     1       2.344   7.818  19.142  0.00  0.00    +0.000 OA
ATOM     13  H   UNL     1       2.709   5.242  20.910  0.00  0.00    +0.000 HD
BRANCH  11  14
ATOM     14  C   UNL     1       1.138   7.265  21.124  0.00  0.00    +0.000 C 
BRANCH  14  15
ATOM     15  C   UNL     1       1.008   8.685  21.640  0.00  0.00    +0.000 C 
BRANCH  15  16
ATOM     16  O   UNL     1       0.197   9.457  20.755  0.00  0.00    +0.000 OA
BRANCH  16  17
ATOM     17  N   UNL     1       0.781  10.707  20.559  0.00  0.00    +0.000 NA
ATOM     18  C   UNL     1       0.154  11.428  19.674  0.00  0.00    +0.000 C 
BRANCH  18  19
ATOM     19  C   UNL     1      -1.079  11.136  18.901  0.00  0.00    +0.000 A 
ATOM     20  C   UNL     1      -2.294  11.790  19.124  0.00  0.00    +0.000 A 
ATOM     21  C   UNL     1      -3.418  11.467  18.366  0.00  0.00    +0.000 A 
ATOM     22  C   UNL     1      -3.316  10.531  17.341  0.00  0.00    +0.000 A 
ATOM     23  C   UNL     1      -2.102   9.892  17.091  0.00  0.00    +0.000 A 
ATOM     24  C   UNL     1      -0.985  10.185  17.874  0.00  0.00    +0.000 A 
ENDBRANCH  18  19
ENDBRANCH  16  17
ENDBRANCH  15  16
ENDBRANCH  14  15
ENDBRANCH  11  14
ENDBRANCH   6  10
BRANCH   2  25
ATOM     25  C   UNL     1       7.314   4.737  16.967  0.00  0.00    +0.000 C 
ATOM     26  O   UNL     1       8.315   4.092  17.244  0.00  0.00    +0.000 OA
BRANCH  25  27
ATOM     27  OXT UNL     1       7.440   5.948  16.384  0.00  0.00    +0.000 OA
ATOM     28  HXT UNL     1       6.994   6.068  15.514  0.00  0.00    +0.000 HD
ENDBRANCH  25  27
ENDBRANCH   2  25
BRANCH   1  29
ATOM     29  C   UNL     1       5.220   4.483  14.879  0.00  0.00    +0.000 C 
BRANCH  29  30
ATOM     30  O   UNL     1       6.414   3.829  14.425  0.00  0.00    +0.000 OA
BRANCH  30  32
ATOM     31  C   UNL     1       6.644   3.531  12.128  0.00  0.00    +0.000 C 
ATOM     32  C   UNL     1       7.019   4.346  13.327  0.00  0.00    +0.000 C 
ATOM     33  O   UNL     1       7.768   5.318  13.316  0.00  0.00    +0.000 OA
ENDBRANCH  30  32
ENDBRANCH  29  30
ENDBRANCH   1  29
TORSDOF 11
ENDMDL
MODEL 4
REMARK VINA RESULT:      -7.1      1.320      2.180
REMARK  Name = 
REMARK  12 active torsions:
REMARK  status: ('A' for Active; 'I' for Inactive)
REMARK    1  A    between atoms: C_1  and  C_2
REMARK    2  A    between atoms: C_2  and  O_4
REMARK    3  A    between atoms: O_4  and  C_5
REMARK    4  A    between atoms: C_5  and  C_6
REMARK    5  A    between atoms: CA_7  and  C_8
REMARK    6  A    between atoms: C_8  and  OXT_10
REMARK    7  A    between atoms: CA_14  and  N_15
REMARK    8  A    between atoms: C_16  and  C_18
REMARK    9  A    between atoms: C_18  and  C_19
REMARK   10  A    between atoms: C_19  and  O_20
REMARK   11  A    between atoms: O_20  and  N_21
REMARK   12  A    between atoms: C_22  and  C_23
REMARK                            x       y       z     vdW  Elec       q    Type
REMARK                         _______ _______ _______ _____ _____    ______ ____
ROOT
ATOM      1  C   UNL     1       4.079   3.739  18.089  0.00  0.00    +0.000 C 
ATOM      2  CA  UNL     1       3.554   2.932  19.049  0.00  0.00    +0.000 C 
ATOM      3  N   UNL     1       2.336   3.206  19.689  0.00  0.00    +0.000 N 
ATOM      4  C   UNL     1       2.443   3.675  20.993  0.00  0.00    +0.000 C 
ATOM      5  O   UNL     1       2.857   3.072  21.956  0.00  0.00    +0.000 OA
ATOM      6  CA  UNL     1       2.259   5.147  20.469  0.00  0.00    +0.000 C 
ATOM      7  C   UNL     1       1.519   4.394  19.337  0.00  0.00    +0.000 C 
ATOM      8  S   UNL     1       1.639   4.995  17.661  0.00  0.00    +0.000 S 
ATOM      9  C   UNL     1       3.402   4.920  17.453  0.00  0.00    +0.000 C 
ENDROOT
BRANCH   6  10
ATOM     10  N   UNL     1       1.492   6.163  21.219  0.00  0.00    +0.000 N 
ATOM     11  C   UNL     1       1.390   7.479  20.838  0.00  0.00    +0.000 C 
ATOM     12  O   UNL     1       2.107   7.967  19.970  0.00  0.00    +0.000 OA
ATOM     13  H   UNL     1       0.744   5.808  21.807  0.00  0.00    +0.000 HD
BRANCH  11  14
ATOM     14  C   UNL     1       0.361   8.337  21.552  0.00  0.00    +0.000 C 
BRANCH  14  15
ATOM     15  C   UNL     1       0.900   9.529  22.318  0.00  0.00    +0.000 C 
BRANCH  15  16
ATOM     16  O   UNL     1       0.630  10.735  21.603  0.00  0.00    +0.000 OA
BRANCH  16  17
ATOM     17  N   UNL     1      -0.440  10.530  20.733  0.00  0.00    +0.000 NA
ATOM     18  C   UNL     1      -0.412  11.321  19.698  0.00  0.00    +0.000 C 
BRANCH  18  19
ATOM     19  C   UNL     1       0.585  12.346  19.304  0.00  0.00    +0.000 A 
ATOM     20  C   UNL     1       1.765  12.041  18.618  0.00  0.00    +0.000 A 
ATOM     21  C   UNL     1       2.664  13.050  18.279  0.00  0.00    +0.000 A 
ATOM     22  C   UNL     1       2.359  14.376  18.572  0.00  0.00    +0.000 A 
ATOM     23  C   UNL     1       1.173  14.695  19.232  0.00  0.00    +0.000 A 
ATOM     24  C   UNL     1       0.289  13.683  19.606  0.00  0.00    +0.000 A 
ENDBRANCH  18  19
ENDBRANCH  16  17
ENDBRANCH  15  16
ENDBRANCH  14  15
ENDBRANCH  11  14
ENDBRANCH   6  10
BRANCH   2  25
ATOM     25  C   UNL     1       4.364   1.743  19.563  0.00  0.00    +0.000 C 
ATOM     26  O   UNL     1       5.093   1.792  20.543  0.00  0.00    +0.000 OA
BRANCH  25  27
ATOM     27  OXT UNL     1       4.309   0.613  18.827  0.00  0.00    +0.000 OA
ATOM     28  HXT UNL     1       3.688   0.612  18.063  0.00  0.00    +0.000 HD
ENDBRANCH  25  27
ENDBRANCH   2  25
BRANCH   1  29
ATOM     29  C   UNL     1       5.522   3.658  17.613  0.00  0.00    +0.000 C 
BRANCH  29  30
ATOM     30  O   UNL     1       6.349   4.364  18.550  0.00  0.00    +0.000 OA
BRANCH  30  32
ATOM     31  C   UNL     1       7.647   6.293  18.446  0.00  0.00    +0.000 C 
ATOM     32  C   UNL     1       7.530   4.844  18.089  0.00  0.00    +0.000 C 
ATOM     33  O   UNL     1       8.367   4.200  17.464  0.00  0.00    +0.000 OA
ENDBRANCH  30  32
ENDBRANCH  29  30
ENDBRANCH   1  29
TORSDOF 11
ENDMDL
MODEL 5
REMARK VINA RESULT:      -7.0      1.178      1.331
REMARK  Name = 
REMARK  12 active torsions:
REMARK  status: ('A' for Active; 'I' for Inactive)
REMARK    1  A    between atoms: C_1  and  C_2
REMARK    2  A    between atoms: C_2  and  O_4
REMARK    3  A    between atoms: O_4  and  C_5
REMARK    4  A    between atoms: C_5  and  C_6
REMARK    5  A    between atoms: CA_7  and  C_8
REMARK    6  A    between atoms: C_8  and  OXT_10
REMARK    7  A    between atoms: CA_14  and  N_15
REMARK    8  A    between atoms: C_16  and  C_18
REMARK    9  A    between atoms: C_18  and  C_19
REMARK   10  A    between atoms: C_19  and  O_20
REMARK   11  A    between atoms: O_20  and  N_21
REMARK   12  A    between atoms: C_22  and  C_23
REMARK                            x       y       z     vdW  Elec       q    Type
REMARK                         _______ _______ _______ _____ _____    ______ ____
ROOT
ATOM      1  C   UNL     1       4.776   5.298  18.398  0.00  0.00    +0.000 C 
ATOM      2  CA  UNL     1       3.932   4.291  18.751  0.00  0.00    +0.000 C 
ATOM      3  N   UNL     1       2.571   4.499  19.019  0.00  0.00    +0.000 N 
ATOM      4  C   UNL     1       2.217   4.457  20.361  0.00  0.00    +0.000 C 
ATOM      5  O   UNL     1       2.253   3.498  21.098  0.00  0.00    +0.000 OA
ATOM      6  CA  UNL     1       2.253   6.029  20.412  0.00  0.00    +0.000 C 
ATOM      7  C   UNL     1       1.950   5.844  18.905  0.00  0.00    +0.000 C 
ATOM      8  S   UNL     1       2.666   6.972  17.723  0.00  0.00    +0.000 S 
ATOM      9  C   UNL     1       4.387   6.714  18.081  0.00  0.00    +0.000 C 
ENDROOT
BRANCH   6  10
ATOM     10  N   UNL     1       1.285   6.817  21.204  0.00  0.00    +0.000 N 
ATOM     11  C   UNL     1       1.026   8.148  20.988  0.00  0.00    +0.000 C 
ATOM     12  O   UNL     1       1.735   8.846  20.269  0.00  0.00    +0.000 OA
ATOM     13  H   UNL     1       0.550   6.286  21.659  0.00  0.00    +0.000 HD
BRANCH  11  14
ATOM     14  C   UNL     1      -0.173   8.752  21.697  0.00  0.00    +0.000 C 
BRANCH  14  15
ATOM     15  C   UNL     1       0.058  10.081  22.389  0.00  0.00    +0.000 C 
BRANCH  15  16
ATOM     16  O   UNL     1      -0.845  11.063  21.882  0.00  0.00    +0.000 OA
BRANCH  16  17
ATOM     17  N   UNL     1      -0.122  12.129  21.349  0.00  0.00    +0.000 NA
ATOM     18  C   UNL     1      -0.348  12.313  20.079  0.00  0.00    +0.000 C 
BRANCH  18  19
ATOM     19  C   UNL     1      -1.266  11.600  19.158  0.00  0.00    +0.000 A 
ATOM     20  C   UNL     1      -2.621  11.922  19.028  0.00  0.00    +0.000 A 
ATOM     21  C   UNL     1      -3.433  11.211  18.147  0.00  0.00    +0.000 A 
ATOM     22  C   UNL     1      -2.882  10.215  17.349  0.00  0.00    +0.000 A 
ATOM     23  C   UNL     1      -1.526   9.902  17.449  0.00  0.00    +0.000 A 
ATOM     24  C   UNL     1      -0.719  10.587  18.358  0.00  0.00    +0.000 A 
ENDBRANCH  18  19
ENDBRANCH  16  17
ENDBRANCH  15  16
ENDBRANCH  14  15
ENDBRANCH  11  14
ENDBRANCH   6  10
BRANCH   2  25
ATOM     25  C   UNL     1       4.489   2.891  19.001  0.00  0.00    +0.000 C 
ATOM     26  O   UNL     1       5.075   2.568  20.025  0.00  0.00    +0.000 OA
BRANCH  25  27
ATOM     27  OXT UNL     1       4.380   2.008  17.987  0.00  0.00    +0.000 OA
ATOM     28  HXT UNL     1       5.042   1.280  17.960  0.00  0.00    +0.000 HD
ENDBRANCH  25  27
ENDBRANCH   2  25
BRANCH   1  29
ATOM     29  C   UNL     1       6.293   5.176  18.419  0.00  0.00    +0.000 C 
BRANCH  29  30
ATOM     30  O   UNL     1       6.691   4.281  17.370  0.00  0.00    +0.000 OA
BRANCH  30  32
ATOM     31  C   UNL     1       6.062   3.932  15.156  0.00  0.00    +0.000 C 
ATOM     32  C   UNL     1       6.800   4.804  16.124  0.00  0.00    +0.000 C 
ATOM     33  O   UNL     1       7.418   5.822  15.829  0.00  0.00    +0.000 OA
ENDBRANCH  30  32
ENDBRANCH  29  30
ENDBRANCH   1  29
TORSDOF 11
ENDMDL
MODEL 6
REMARK VINA RESULT:      -7.0      7.244     10.745
REMARK  Name = 
REMARK  12 active torsions:
REMARK  status: ('A' for Active; 'I' for Inactive)
REMARK    1  A    between atoms: C_1  and  C_2
REMARK    2  A    between atoms: C_2  and  O_4
REMARK    3  A    between atoms: O_4  and  C_5
REMARK    4  A    between atoms: C_5  and  C_6
REMARK    5  A    between atoms: CA_7  and  C_8
REMARK    6  A    between atoms: C_8  and  OXT_10
REMARK    7  A    between atoms: CA_14  and  N_15
REMARK    8  A    between atoms: C_16  and  C_18
REMARK    9  A    between atoms: C_18  and  C_19
REMARK   10  A    between atoms: C_19  and  O_20
REMARK   11  A    between atoms: O_20  and  N_21
REMARK   12  A    between atoms: C_22  and  C_23
REMARK                            x       y       z     vdW  Elec       q    Type
REMARK                         _______ _______ _______ _____ _____    ______ ____
ROOT
ATOM      1  C   UNL     1      10.442  14.433  18.776  0.00  0.00    +0.000 C 
ATOM      2  CA  UNL     1      10.642  14.056  20.068  0.00  0.00    +0.000 C 
ATOM      3  N   UNL     1      10.942  12.737  20.437  0.00  0.00    +0.000 N 
ATOM      4  C   UNL     1       9.899  12.032  21.025  0.00  0.00    +0.000 C 
ATOM      5  O   UNL     1       9.378  12.252  22.095  0.00  0.00    +0.000 OA
ATOM      6  CA  UNL     1       9.589  11.353  19.641  0.00  0.00    +0.000 C 
ATOM      7  C   UNL     1      11.091  11.658  19.427  0.00  0.00    +0.000 C 
ATOM      8  S   UNL     1      11.666  12.136  17.807  0.00  0.00    +0.000 S 
ATOM      9  C   UNL     1      10.663  13.581  17.559  0.00  0.00    +0.000 C 
ENDROOT
BRANCH   6  10
ATOM     10  N   UNL     1       9.163   9.942  19.530  0.00  0.00    +0.000 N 
ATOM     11  C   UNL     1       8.485   9.431  18.450  0.00  0.00    +0.000 C 
ATOM     12  O   UNL     1       7.983  10.150  17.591  0.00  0.00    +0.000 OA
ATOM     13  H   UNL     1       9.693   9.276  20.082  0.00  0.00    +0.000 HD
BRANCH  11  14
ATOM     14  C   UNL     1       8.352   7.922  18.358  0.00  0.00    +0.000 C 
BRANCH  14  15
ATOM     15  C   UNL     1       7.390   7.398  17.308  0.00  0.00    +0.000 C 
BRANCH  15  16
ATOM     16  O   UNL     1       7.612   6.005  17.091  0.00  0.00    +0.000 OA
BRANCH  16  17
ATOM     17  N   UNL     1       7.305   5.686  15.768  0.00  0.00    +0.000 NA
ATOM     18  C   UNL     1       6.080   5.269  15.617  0.00  0.00    +0.000 C 
BRANCH  18  19
ATOM     19  C   UNL     1       4.987   5.128  16.611  0.00  0.00    +0.000 A 
ATOM     20  C   UNL     1       4.170   6.193  17.003  0.00  0.00    +0.000 A 
ATOM     21  C   UNL     1       3.162   5.997  17.945  0.00  0.00    +0.000 A 
ATOM     22  C   UNL     1       2.929   4.724  18.455  0.00  0.00    +0.000 A 
ATOM     23  C   UNL     1       3.720   3.649  18.051  0.00  0.00    +0.000 A 
ATOM     24  C   UNL     1       4.755   3.850  17.137  0.00  0.00    +0.000 A 
ENDBRANCH  18  19
ENDBRANCH  16  17
ENDBRANCH  15  16
ENDBRANCH  14  15
ENDBRANCH  11  14
ENDBRANCH   6  10
BRANCH   2  25
ATOM     25  C   UNL     1      10.407  15.062  21.193  0.00  0.00    +0.000 C 
ATOM     26  O   UNL     1      11.283  15.779  21.655  0.00  0.00    +0.000 OA
BRANCH  25  27
ATOM     27  OXT UNL     1       9.172  15.082  21.737  0.00  0.00    +0.000 OA
ATOM     28  HXT UNL     1       8.587  15.831  21.478  0.00  0.00    +0.000 HD
ENDBRANCH  25  27
ENDBRANCH   2  25
BRANCH   1  29
ATOM     29  C   UNL     1       9.804  15.753  18.370  0.00  0.00    +0.000 C 
BRANCH  29  30
ATOM     30  O   UNL     1       8.467  15.491  17.919  0.00  0.00    +0.000 OA
BRANCH  30  32
ATOM     31  C   UNL     1       6.940  17.035  18.758  0.00  0.00    +0.000 C 
ATOM     32  C   UNL     1       7.471  15.637  18.828  0.00  0.00    +0.000 C 
ATOM     33  O   UNL     1       7.075  14.767  19.597  0.00  0.00    +0.000 OA
ENDBRANCH  30  32
ENDBRANCH  29  30
ENDBRANCH   1  29
TORSDOF 11
ENDMDL
MODEL 7
REMARK VINA RESULT:      -6.9      1.017      1.507
REMARK  Name = 
REMARK  12 active torsions:
REMARK  status: ('A' for Active; 'I' for Inactive)
REMARK    1  A    between atoms: C_1  and  C_2
REMARK    2  A    between atoms: C_2  and  O_4
REMARK    3  A    between atoms: O_4  and  C_5
REMARK    4  A    between atoms: C_5  and  C_6
REMARK    5  A    between atoms: CA_7  and  C_8
REMARK    6  A    between atoms: C_8  and  OXT_10
REMARK    7  A    between atoms: CA_14  and  N_15
REMARK    8  A    between atoms: C_16  and  C_18
REMARK    9  A    between atoms: C_18  and  C_19
REMARK   10  A    between atoms: C_19  and  O_20
REMARK   11  A    between atoms: O_20  and  N_21
REMARK   12  A    between atoms: C_22  and  C_23
REMARK                            x       y       z     vdW  Elec       q    Type
REMARK                         _______ _______ _______ _____ _____    ______ ____
ROOT
ATOM      1  C   UNL     1       4.034   3.806  18.074  0.00  0.00    +0.000 C 
ATOM      2  CA  UNL     1       3.461   2.999  19.007  0.00  0.00    +0.000 C 
ATOM      3  N   UNL     1       2.270   3.328  19.669  0.00  0.00    +0.000 N 
ATOM      4  C   UNL     1       2.417   3.737  20.988  0.00  0.00    +0.000 C 
ATOM      5  O   UNL     1       2.796   3.071  21.924  0.00  0.00    +0.000 OA
ATOM      6  CA  UNL     1       2.329   5.238  20.524  0.00  0.00    +0.000 C 
ATOM      7  C   UNL     1       1.533   4.582  19.371  0.00  0.00    +0.000 C 
ATOM      8  S   UNL     1       1.682   5.239  17.718  0.00  0.00    +0.000 S 
ATOM      9  C   UNL     1       3.434   5.054  17.491  0.00  0.00    +0.000 C 
ENDROOT
BRANCH   6  10
ATOM     10  N   UNL     1       1.638   6.273  21.321  0.00  0.00    +0.000 N 
ATOM     11  C   UNL     1       1.510   7.582  20.925  0.00  0.00    +0.000 C 
ATOM     12  O   UNL     1       2.148   8.049  19.987  0.00  0.00    +0.000 OA
ATOM     13  H   UNL     1       0.944   5.934  21.979  0.00  0.00    +0.000 HD
BRANCH  11  14
ATOM     14  C   UNL     1       0.553   8.460  21.712  0.00  0.00    +0.000 C 
BRANCH  14  15
ATOM     15  C   UNL     1      -0.659   8.971  20.958  0.00  0.00    +0.000 C 
BRANCH  15  16
ATOM     16  O   UNL     1      -0.274  10.004  20.052  0.00  0.00    +0.000 OA
BRANCH  16  17
ATOM     17  N   UNL     1      -0.719  11.235  20.533  0.00  0.00    +0.000 NA
ATOM     18  C   UNL     1      -1.631  11.777  19.777  0.00  0.00    +0.000 C 
BRANCH  18  19
ATOM     19  C   UNL     1      -2.274  11.270  18.540  0.00  0.00    +0.000 A 
ATOM     20  C   UNL     1      -1.611  10.467  17.607  0.00  0.00    +0.000 A 
ATOM     21  C   UNL     1      -2.270  10.025  16.462  0.00  0.00    +0.000 A 
ATOM     22  C   UNL     1      -3.613  10.335  16.274  0.00  0.00    +0.000 A 
ATOM     23  C   UNL     1      -4.293  11.113  17.211  0.00  0.00    +0.000 A 
ATOM     24  C   UNL     1      -3.625  11.588  18.340  0.00  0.00    +0.000 A 
ENDBRANCH  18  19
ENDBRANCH  16  17
ENDBRANCH  15  16
ENDBRANCH  14  15
ENDBRANCH  11  14
ENDBRANCH   6  10
BRANCH   2  25
ATOM     25  C   UNL     1       4.193   1.738  19.466  0.00  0.00    +0.000 C 
ATOM     26  O   UNL     1       4.988   1.717  20.394  0.00  0.00    +0.000 OA
BRANCH  25  27
ATOM     27  OXT UNL     1       3.984   0.621  18.738  0.00  0.00    +0.000 OA
ATOM     28  HXT UNL     1       3.869   0.741  17.768  0.00  0.00    +0.000 HD
ENDBRANCH  25  27
ENDBRANCH   2  25
BRANCH   1  29
ATOM     29  C   UNL     1       5.465   3.647  17.581  0.00  0.00    +0.000 C 
BRANCH  29  30
ATOM     30  O   UNL     1       6.335   4.348  18.482  0.00  0.00    +0.000 OA
BRANCH  30  32
ATOM     31  C   UNL     1       7.791   6.152  18.690  0.00  0.00    +0.000 C 
ATOM     32  C   UNL     1       7.459   4.892  17.953  0.00  0.00    +0.000 C 
ATOM     33  O   UNL     1       8.097   4.436  17.010  0.00  0.00    +0.000 OA
ENDBRANCH  30  32
ENDBRANCH  29  30
ENDBRANCH   1  29
TORSDOF 11
ENDMDL
MODEL 8
REMARK VINA RESULT:      -6.9      1.215      1.652
REMARK  Name = 
REMARK  12 active torsions:
REMARK  status: ('A' for Active; 'I' for Inactive)
REMARK    1  A    between atoms: C_1  and  C_2
REMARK    2  A    between atoms: C_2  and  O_4
REMARK    3  A    between atoms: O_4  and  C_5
REMARK    4  A    between atoms: C_5  and  C_6
REMARK    5  A    between atoms: CA_7  and  C_8
REMARK    6  A    between atoms: C_8  and  OXT_10
REMARK    7  A    between atoms: CA_14  and  N_15
REMARK    8  A    between atoms: C_16  and  C_18
REMARK    9  A    between atoms: C_18  and  C_19
REMARK   10  A    between atoms: C_19  and  O_20
REMARK   11  A    between atoms: O_20  and  N_21
REMARK   12  A    between atoms: C_22  and  C_23
REMARK                            x       y       z     vdW  Elec       q    Type
REMARK                         _______ _______ _______ _____ _____    ______ ____
ROOT
ATOM      1  C   UNL     1       4.405   4.456  18.456  0.00  0.00    +0.000 C 
ATOM      2  CA  UNL     1       3.637   3.562  19.137  0.00  0.00    +0.000 C 
ATOM      3  N   UNL     1       2.325   3.843  19.545  0.00  0.00    +0.000 N 
ATOM      4  C   UNL     1       2.167   4.098  20.901  0.00  0.00    +0.000 C 
ATOM      5  O   UNL     1       2.324   3.322  21.815  0.00  0.00    +0.000 OA
ATOM      6  CA  UNL     1       2.182   5.643  20.604  0.00  0.00    +0.000 C 
ATOM      7  C   UNL     1       1.671   5.139  19.232  0.00  0.00    +0.000 C 
ATOM      8  S   UNL     1       2.191   5.973  17.743  0.00  0.00    +0.000 S 
ATOM      9  C   UNL     1       3.949   5.775  17.899  0.00  0.00    +0.000 C 
ENDROOT
BRANCH   6  10
ATOM     10  N   UNL     1       1.324   6.598  21.336  0.00  0.00    +0.000 N 
ATOM     11  C   UNL     1       1.152   7.909  20.966  0.00  0.00    +0.000 C 
ATOM     12  O   UNL     1       1.867   8.454  20.130  0.00  0.00    +0.000 OA
ATOM     13  H   UNL     1       0.579   6.188  21.890  0.00  0.00    +0.000 HD
BRANCH  11  14
ATOM     14  C   UNL     1       0.044   8.690  21.650  0.00  0.00    +0.000 C 
BRANCH  14  15
ATOM     15  C   UNL     1       0.430   9.424  22.920  0.00  0.00    +0.000 C 
BRANCH  15  16
ATOM     16  O   UNL     1       0.250  10.829  22.749  0.00  0.00    +0.000 OA
BRANCH  16  17
ATOM     17  N   UNL     1      -1.032  11.189  23.166  0.00  0.00    +0.000 NA
ATOM     18  C   UNL     1      -1.660  11.929  22.298  0.00  0.00    +0.000 C 
BRANCH  18  19
ATOM     19  C   UNL     1      -1.238  12.395  20.954  0.00  0.00    +0.000 A 
ATOM     20  C   UNL     1      -0.480  13.552  20.749  0.00  0.00    +0.000 A 
ATOM     21  C   UNL     1      -0.118  13.939  19.460  0.00  0.00    +0.000 A 
ATOM     22  C   UNL     1      -0.463  13.139  18.375  0.00  0.00    +0.000 A 
ATOM     23  C   UNL     1      -1.195  11.968  18.569  0.00  0.00    +0.000 A 
ATOM     24  C   UNL     1      -1.591  11.599  19.856  0.00  0.00    +0.000 A 
ENDBRANCH  18  19
ENDBRANCH  16  17
ENDBRANCH  15  16
ENDBRANCH  14  15
ENDBRANCH  11  14
ENDBRANCH   6  10
BRANCH   2  25
ATOM     25  C   UNL     1       4.249   2.242  19.602  0.00  0.00    +0.000 C 
ATOM     26  O   UNL     1       4.078   1.176  19.027  0.00  0.00    +0.000 OA
BRANCH  25  27
ATOM     27  OXT UNL     1       4.947   2.274  20.757  0.00  0.00    +0.000 OA
ATOM     28  HXT UNL     1       5.657   2.954  20.825  0.00  0.00    +0.000 HD
ENDBRANCH  25  27
ENDBRANCH   2  25
BRANCH   1  29
ATOM     29  C   UNL     1       5.911   4.320  18.286  0.00  0.00    +0.000 C 
BRANCH  29  30
ATOM     30  O   UNL     1       6.213   4.352  16.883  0.00  0.00    +0.000 OA
BRANCH  30  32
ATOM     31  C   UNL     1       7.545   6.104  17.639  0.00  0.00    +0.000 C 
ATOM     32  C   UNL     1       7.106   5.283  16.467  0.00  0.00    +0.000 C 
ATOM     33  O   UNL     1       7.486   5.441  15.311  0.00  0.00    +0.000 OA
ENDBRANCH  30  32
ENDBRANCH  29  30
ENDBRANCH   1  29
TORSDOF 11
ENDMDL
MODEL 9
REMARK VINA RESULT:      -6.9      2.236      2.824
REMARK  Name = 
REMARK  12 active torsions:
REMARK  status: ('A' for Active; 'I' for Inactive)
REMARK    1  A    between atoms: C_1  and  C_2
REMARK    2  A    between atoms: C_2  and  O_4
REMARK    3  A    between atoms: O_4  and  C_5
REMARK    4  A    between atoms: C_5  and  C_6
REMARK    5  A    between atoms: CA_7  and  C_8
REMARK    6  A    between atoms: C_8  and  OXT_10
REMARK    7  A    between atoms: CA_14  and  N_15
REMARK    8  A    between atoms: C_16  and  C_18
REMARK    9  A    between atoms: C_18  and  C_19
REMARK   10  A    between atoms: C_19  and  O_20
REMARK   11  A    between atoms: O_20  and  N_21
REMARK   12  A    between atoms: C_22  and  C_23
REMARK                            x       y       z     vdW  Elec       q    Type
REMARK                         _______ _______ _______ _____ _____    ______ ____
ROOT
ATOM      1  C   UNL     1       4.250   4.260  18.320  0.00  0.00    +0.000 C 
ATOM      2  CA  UNL     1       3.533   3.374  19.063  0.00  0.00    +0.000 C 
ATOM      3  N   UNL     1       2.251   3.658  19.555  0.00  0.00    +0.000 N 
ATOM      4  C   UNL     1       2.185   3.931  20.916  0.00  0.00    +0.000 C 
ATOM      5  O   UNL     1       2.407   3.167  21.828  0.00  0.00    +0.000 OA
ATOM      6  CA  UNL     1       2.176   5.471  20.598  0.00  0.00    +0.000 C 
ATOM      7  C   UNL     1       1.574   4.949  19.272  0.00  0.00    +0.000 C 
ATOM      8  S   UNL     1       1.988   5.764  17.740  0.00  0.00    +0.000 S 
ATOM      9  C   UNL     1       3.754   5.571  17.778  0.00  0.00    +0.000 C 
ENDROOT
BRANCH   6  10
ATOM     10  N   UNL     1       1.368   6.435  21.374  0.00  0.00    +0.000 N 
ATOM     11  C   UNL     1       1.223   7.758  21.037  0.00  0.00    +0.000 C 
ATOM     12  O   UNL     1       1.930   8.300  20.192  0.00  0.00    +0.000 OA
ATOM     13  H   UNL     1       0.628   6.034  21.942  0.00  0.00    +0.000 HD
BRANCH  11  14
ATOM     14  C   UNL     1       0.159   8.555  21.769  0.00  0.00    +0.000 C 
BRANCH  14  15
ATOM     15  C   UNL     1       0.645   9.434  22.905  0.00  0.00    +0.000 C 
BRANCH  15  16
ATOM     16  O   UNL     1      -0.140  10.624  22.976  0.00  0.00    +0.000 OA
BRANCH  16  17
ATOM     17  N   UNL     1       0.247  11.499  21.962  0.00  0.00    +0.000 NA
ATOM     18  C   UNL     1      -0.498  12.565  21.899  0.00  0.00    +0.000 C 
BRANCH  18  19
ATOM     19  C   UNL     1      -1.637  12.989  22.751  0.00  0.00    +0.000 A 
ATOM     20  C   UNL     1      -1.510  13.920  23.786  0.00  0.00    +0.000 A 
ATOM     21  C   UNL     1      -2.618  14.274  24.554  0.00  0.00    +0.000 A 
ATOM     22  C   UNL     1      -3.868  13.744  24.252  0.00  0.00    +0.000 A 
ATOM     23  C   UNL     1      -4.011  12.835  23.204  0.00  0.00    +0.000 A 
ATOM     24  C   UNL     1      -2.897  12.450  22.458  0.00  0.00    +0.000 A 
ENDBRANCH  18  19
ENDBRANCH  16  17
ENDBRANCH  15  16
ENDBRANCH  14  15
ENDBRANCH  11  14
ENDBRANCH   6  10
BRANCH   2  25
ATOM     25  C   UNL     1       4.178   2.061  19.503  0.00  0.00    +0.000 C 
ATOM     26  O   UNL     1       3.997   0.993  18.935  0.00  0.00    +0.000 OA
BRANCH  25  27
ATOM     27  OXT UNL     1       4.922   2.102  20.628  0.00  0.00    +0.000 OA
ATOM     28  HXT UNL     1       4.710   1.437  21.322  0.00  0.00    +0.000 HD
ENDBRANCH  25  27
ENDBRANCH   2  25
BRANCH   1  29
ATOM     29  C   UNL     1       5.741   4.124  18.049  0.00  0.00    +0.000 C 
BRANCH  29  30
ATOM     30  O   UNL     1       5.984   4.453  16.672  0.00  0.00    +0.000 OA
BRANCH  30  32
ATOM     31  C   UNL     1       7.367   6.036  17.672  0.00  0.00    +0.000 C 
ATOM     32  C   UNL     1       7.003   5.309  16.415  0.00  0.00    +0.000 C 
ATOM     33  O   UNL     1       7.537   5.474  15.323  0.00  0.00    +0.000 OA
ENDBRANCH  30  32
ENDBRANCH  29  30
ENDBRANCH   1  29
TORSDOF 11
ENDMDL
