MODEL 1
REMARK VINA RESULT:      -7.1      0.000      0.000
REMARK  Name = 
REMARK  10 active torsions:
REMARK  status: ('A' for Active; 'I' for Inactive)
REMARK    1  A    between atoms: C_1  and  C_2
REMARK    2  A    between atoms: C_4  and  C_5
REMARK    3  A    between atoms: C_6  and  O_7
REMARK    4  A    between atoms: O_7  and  C_8
REMARK    5  A    between atoms: C_8  and  C_9
REMARK    6  A    between atoms: C_9  and  C_10
REMARK    7  A    between atoms: C_10  and  C_11
REMARK    8  A    between atoms: C_11  and  N_12
REMARK    9  A    between atoms: N_12  and  C_13
REMARK   10  A    between atoms: C_13  and  C_14
REMARK                            x       y       z     vdW  Elec       q    Type
REMARK                         _______ _______ _______ _____ _____    ______ ____
ROOT
ATOM      1  C   UNL     1       5.839   6.244  18.231  0.00  0.00    +0.000 C 
ENDROOT
BRANCH   1   2
ATOM      2  C   UNL     1       4.966   6.397  16.989  0.00  0.00    +0.000 C 
BRANCH   2   3
ATOM      3  O   UNL     1       3.590   6.290  17.291  0.00  0.00    +0.000 OA
BRANCH   3   9
ATOM      4  C   UNL     1       1.788   3.021  21.607  0.00  0.00    +0.000 C 
ATOM      5  C   UNL     1       2.255   3.839  20.443  0.00  0.00    +0.000 A 
ATOM      6  C   UNL     1       2.896   3.236  19.359  0.00  0.00    +0.000 A 
ATOM      7  C   UNL     1       3.370   3.973  18.251  0.00  0.00    +0.000 A 
ATOM      8  C   UNL     1       4.035   3.139  17.183  0.00  0.00    +0.000 C 
ATOM      9  C   UNL     1       3.185   5.377  18.240  0.00  0.00    +0.000 A 
ATOM     10  C   UNL     1       2.520   5.973  19.337  0.00  0.00    +0.000 A 
ATOM     11 CL   UNL     1       2.226   7.684  19.397  0.00  0.00    +0.000 Cl
ATOM     12  C   UNL     1       2.062   5.217  20.421  0.00  0.00    +0.000 A 
ENDBRANCH   3   9
ENDBRANCH   2   3
ENDBRANCH   1   2
BRANCH   1  13
ATOM     13  C   UNL     1       7.313   6.516  17.892  0.00  0.00    +0.000 C 
BRANCH  13  14
ATOM     14  C   UNL     1       7.551   7.959  17.430  0.00  0.00    +0.000 C 
BRANCH  14  15
ATOM     15  N   UNL     1       8.459   8.647  18.338  0.00  0.00    +0.000 NA
ATOM     16  H   UNL     1       9.426   8.404  18.121  0.00  0.00    +0.000 HD
BRANCH  15  17
ATOM     17  C   UNL     1       8.309  10.099  18.211  0.00  0.00    +0.000 C 
BRANCH  17  18
ATOM     18  C   UNL     1       9.540  10.809  18.716  0.00  0.00    +0.000 A 
ATOM     19  C   UNL     1      10.566  11.185  17.839  0.00  0.00    +0.000 A 
ATOM     20  C   UNL     1      11.699  11.842  18.324  0.00  0.00    +0.000 A 
ATOM     21  C   UNL     1      11.815  12.125  19.684  0.00  0.00    +0.000 A 
ATOM     22  C   UNL     1      10.798  11.761  20.563  0.00  0.00    +0.000 A 
ATOM     23  C   UNL     1       9.664  11.110  20.080  0.00  0.00    +0.000 A 
ENDBRANCH  17  18
ENDBRANCH  15  17
ENDBRANCH  14  15
ENDBRANCH  13  14
ENDBRANCH   1  13
TORSDOF 8
ENDMDL
MODEL 2
REMARK VINA RESULT:      -7.0      4.387      6.151
REMARK  Name = 
REMARK  10 active torsions:
REMARK  status: ('A' for Active; 'I' for Inactive)
REMARK    1  A    between atoms: C_1  and  C_2
REMARK    2  A    between atoms: C_4  and  C_5
REMARK    3  A    between atoms: C_6  and  O_7
REMARK    4  A    between atoms: O_7  and  C_8
REMARK    5  A    between atoms: C_8  and  C_9
REMARK    6  A    between atoms: C_9  and  C_10
REMARK    7  A    between atoms: C_10  and  C_11
REMARK    8  A    between atoms: C_11  and  N_12
REMARK    9  A    between atoms: N_12  and  C_13
REMARK   10  A    between atoms: C_13  and  C_14
REMARK                            x       y       z     vdW  Elec       q    Type
REMARK                         _______ _______ _______ _____ _____    ______ ____
ROOT
ATOM      1  C   UNL     1       5.180   6.214  18.376  0.00  0.00    +0.000 C 
ENDROOT
BRANCH   1   2
ATOM      2  C   UNL     1       4.240   5.922  17.211  0.00  0.00    +0.000 C 
BRANCH   2   3
ATOM      3  O   UNL     1       2.883   5.950  17.603  0.00  0.00    +0.000 OA
BRANCH   3   9
ATOM      4  C   UNL     1       1.247   2.504  21.846  0.00  0.00    +0.000 C 
ATOM      5  C   UNL     1       1.693   3.441  20.767  0.00  0.00    +0.000 A 
ATOM      6  C   UNL     1       1.722   4.820  20.988  0.00  0.00    +0.000 A 
ATOM      7  C   UNL     1       2.116   5.740  19.991  0.00  0.00    +0.000 A 
ATOM      8  C   UNL     1       2.078   7.186  20.424  0.00  0.00    +0.000 C 
ATOM      9  C   UNL     1       2.498   5.244  18.721  0.00  0.00    +0.000 A 
ATOM     10  C   UNL     1       2.480   3.844  18.517  0.00  0.00    +0.000 A 
ATOM     11 CL   UNL     1       2.958   3.144  17.001  0.00  0.00    +0.000 Cl
ATOM     12  C   UNL     1       2.084   2.957  19.523  0.00  0.00    +0.000 A 
ENDBRANCH   3   9
ENDBRANCH   2   3
ENDBRANCH   1   2
BRANCH   1  13
ATOM     13  C   UNL     1       6.043   4.983  18.697  0.00  0.00    +0.000 C 
BRANCH  13  14
ATOM     14  C   UNL     1       7.443   5.072  18.079  0.00  0.00    +0.000 C 
BRANCH  14  15
ATOM     15  N   UNL     1       7.483   4.386  16.795  0.00  0.00    +0.000 NA
ATOM     16  H   UNL     1       6.662   3.790  16.688  0.00  0.00    +0.000 HD
BRANCH  15  17
ATOM     17  C   UNL     1       7.496   5.354  15.695  0.00  0.00    +0.000 C 
BRANCH  17  18
ATOM     18  C   UNL     1       6.966   4.731  14.428  0.00  0.00    +0.000 A 
ATOM     19  C   UNL     1       5.787   3.974  14.435  0.00  0.00    +0.000 A 
ATOM     20  C   UNL     1       5.311   3.404  13.253  0.00  0.00    +0.000 A 
ATOM     21  C   UNL     1       6.008   3.585  12.059  0.00  0.00    +0.000 A 
ATOM     22  C   UNL     1       7.178   4.342  12.040  0.00  0.00    +0.000 A 
ATOM     23  C   UNL     1       7.652   4.915  13.219  0.00  0.00    +0.000 A 
ENDBRANCH  17  18
ENDBRANCH  15  17
ENDBRANCH  14  15
ENDBRANCH  13  14
ENDBRANCH   1  13
TORSDOF 8
ENDMDL
MODEL 3
REMARK VINA RESULT:      -6.9      3.808      5.820
REMARK  Name = 
REMARK  10 active torsions:
REMARK  status: ('A' for Active; 'I' for Inactive)
REMARK    1  A    between atoms: C_1  and  C_2
REMARK    2  A    between atoms: C_4  and  C_5
REMARK    3  A    between atoms: C_6  and  O_7
REMARK    4  A    between atoms: O_7  and  C_8
REMARK    5  A    between atoms: C_8  and  C_9
REMARK    6  A    between atoms: C_9  and  C_10
REMARK    7  A    between atoms: C_10  and  C_11
REMARK    8  A    between atoms: C_11  and  N_12
REMARK    9  A    between atoms: N_12  and  C_13
REMARK   10  A    between atoms: C_13  and  C_14
REMARK                            x       y       z     vdW  Elec       q    Type
REMARK                         _______ _______ _______ _____ _____    ______ ____
ROOT
ATOM      1  C   UNL     1       5.170   6.935  18.051  0.00  0.00    +0.000 C 
ENDROOT
BRANCH   1   2
ATOM      2  C   UNL     1       4.144   6.442  17.036  0.00  0.00    +0.000 C 
BRANCH   2   3
ATOM      3  O   UNL     1       2.837   6.418  17.570  0.00  0.00    +0.000 OA
BRANCH   3   9
ATOM      4  C   UNL     1       1.423   2.696  21.658  0.00  0.00    +0.000 C 
ATOM      5  C   UNL     1       1.778   3.639  20.550  0.00  0.00    +0.000 A 
ATOM      6  C   UNL     1       2.138   3.156  19.290  0.00  0.00    +0.000 A 
ATOM      7  C   UNL     1       2.499   4.010  18.225  0.00  0.00    +0.000 A 
ATOM      8  C   UNL     1       2.856   3.296  16.944  0.00  0.00    +0.000 C 
ATOM      9  C   UNL     1       2.493   5.410  18.444  0.00  0.00    +0.000 A 
ATOM     10  C   UNL     1       2.111   5.885  19.720  0.00  0.00    +0.000 A 
ATOM     11 CL   UNL     1       2.050   7.585  20.072  0.00  0.00    +0.000 Cl
ATOM     12  C   UNL     1       1.760   5.015  20.757  0.00  0.00    +0.000 A 
ENDBRANCH   3   9
ENDBRANCH   2   3
ENDBRANCH   1   2
BRANCH   1  13
ATOM     13  C   UNL     1       6.593   6.563  17.605  0.00  0.00    +0.000 C 
BRANCH  13  14
ATOM     14  C   UNL     1       6.906   5.079  17.822  0.00  0.00    +0.000 C 
BRANCH  14  15
ATOM     15  N   UNL     1       7.558   4.514  16.647  0.00  0.00    +0.000 NA
ATOM     16  H   UNL     1       7.104   3.641  16.378  0.00  0.00    +0.000 HD
BRANCH  15  17
ATOM     17  C   UNL     1       7.476   5.443  15.518  0.00  0.00    +0.000 C 
BRANCH  17  18
ATOM     18  C   UNL     1       6.893   4.760  14.306  0.00  0.00    +0.000 A 
ATOM     19  C   UNL     1       7.567   4.770  13.078  0.00  0.00    +0.000 A 
ATOM     20  C   UNL     1       7.012   4.134  11.966  0.00  0.00    +0.000 A 
ATOM     21  C   UNL     1       5.784   3.484  12.073  0.00  0.00    +0.000 A 
ATOM     22  C   UNL     1       5.108   3.461  13.291  0.00  0.00    +0.000 A 
ATOM     23  C   UNL     1       5.663   4.093  14.403  0.00  0.00    +0.000 A 
ENDBRANCH  17  18
ENDBRANCH  15  17
ENDBRANCH  14  15
ENDBRANCH  13  14
ENDBRANCH   1  13
TORSDOF 8
ENDMDL
MODEL 4
REMARK VINA RESULT:      -6.9      2.085      3.058
REMARK  Name = 
REMARK  10 active torsions:
REMARK  status: ('A' for Active; 'I' for Inactive)
REMARK    1  A    between atoms: C_1  and  C_2
REMARK    2  A    between atoms: C_4  and  C_5
REMARK    3  A    between atoms: C_6  and  O_7
REMARK    4  A    between atoms: O_7  and  C_8
REMARK    5  A    between atoms: C_8  and  C_9
REMARK    6  A    between atoms: C_9  and  C_10
REMARK    7  A    between atoms: C_10  and  C_11
REMARK    8  A    between atoms: C_11  and  N_12
REMARK    9  A    between atoms: N_12  and  C_13
REMARK   10  A    between atoms: C_13  and  C_14
REMARK                            x       y       z     vdW  Elec       q    Type
REMARK                         _______ _______ _______ _____ _____    ______ ____
ROOT
ATOM      1  C   UNL     1       7.483   6.700  17.805  0.00  0.00    +0.000 C 
ENDROOT
BRANCH   1   2
ATOM      2  C   UNL     1       7.089   6.030  16.492  0.00  0.00    +0.000 C 
BRANCH   2   3
ATOM      3  O   UNL     1       5.769   6.354  16.106  0.00  0.00    +0.000 OA
BRANCH   3   9
ATOM      4  C   UNL     1       1.570   3.168  18.290  0.00  0.00    +0.000 C 
ATOM      5  C   UNL     1       2.667   4.035  17.757  0.00  0.00    +0.000 A 
ATOM      6  C   UNL     1       2.690   5.405  18.031  0.00  0.00    +0.000 A 
ATOM      7  C   UNL     1       3.695   6.262  17.530  0.00  0.00    +0.000 A 
ATOM      8  C   UNL     1       3.545   7.707  17.937  0.00  0.00    +0.000 C 
ATOM      9  C   UNL     1       4.719   5.710  16.721  0.00  0.00    +0.000 A 
ATOM     10  C   UNL     1       4.692   4.319  16.465  0.00  0.00    +0.000 A 
ATOM     11 CL   UNL     1       5.919   3.550  15.506  0.00  0.00    +0.000 Cl
ATOM     12  C   UNL     1       3.682   3.495  16.974  0.00  0.00    +0.000 A 
ENDBRANCH   3   9
ENDBRANCH   2   3
ENDBRANCH   1   2
BRANCH   1  13
ATOM     13  C   UNL     1       7.693   8.209  17.600  0.00  0.00    +0.000 C 
BRANCH  13  14
ATOM     14  C   UNL     1       8.575   8.831  18.688  0.00  0.00    +0.000 C 
BRANCH  14  15
ATOM     15  N   UNL     1       8.965  10.187  18.322  0.00  0.00    +0.000 NA
ATOM     16  H   UNL     1       8.152  10.711  17.997  0.00  0.00    +0.000 HD
BRANCH  15  17
ATOM     17  C   UNL     1       9.532  10.887  19.477  0.00  0.00    +0.000 C 
BRANCH  17  18
ATOM     18  C   UNL     1      10.512  11.944  19.032  0.00  0.00    +0.000 A 
ATOM     19  C   UNL     1      10.875  12.995  19.884  0.00  0.00    +0.000 A 
ATOM     20  C   UNL     1      11.784  13.965  19.455  0.00  0.00    +0.000 A 
ATOM     21  C   UNL     1      12.333  13.892  18.176  0.00  0.00    +0.000 A 
ATOM     22  C   UNL     1      11.984  12.847  17.324  0.00  0.00    +0.000 A 
ATOM     23  C   UNL     1      11.081  11.876  17.752  0.00  0.00    +0.000 A 
ENDBRANCH  17  18
ENDBRANCH  15  17
ENDBRANCH  14  15
ENDBRANCH  13  14
ENDBRANCH   1  13
TORSDOF 8
ENDMDL
MODEL 5
REMARK VINA RESULT:      -6.8      3.008      9.795
REMARK  Name = 
REMARK  10 active torsions:
REMARK  status: ('A' for Active; 'I' for Inactive)
REMARK    1  A    between atoms: C_1  and  C_2
REMARK    2  A    between atoms: C_4  and  C_5
REMARK    3  A    between atoms: C_6  and  O_7
REMARK    4  A    between atoms: O_7  and  C_8
REMARK    5  A    between atoms: C_8  and  C_9
REMARK    6  A    between atoms: C_9  and  C_10
REMARK    7  A    between atoms: C_10  and  C_11
REMARK    8  A    between atoms: C_11  and  N_12
REMARK    9  A    between atoms: N_12  and  C_13
REMARK   10  A    between atoms: C_13  and  C_14
REMARK                            x       y       z     vdW  Elec       q    Type
REMARK                         _______ _______ _______ _____ _____    ______ ____
ROOT
ATOM      1  C   UNL     1       8.088   9.009  17.903  0.00  0.00    +0.000 C 
ENDROOT
BRANCH   1   2
ATOM      2  C   UNL     1       8.991   9.900  18.750  0.00  0.00    +0.000 C 
BRANCH   2   3
ATOM      3  O   UNL     1       9.724  10.815  17.962  0.00  0.00    +0.000 OA
BRANCH   3   9
ATOM      4  C   UNL     1      10.161  16.278  19.552  0.00  0.00    +0.000 C 
ATOM      5  C   UNL     1      10.070  14.831  19.178  0.00  0.00    +0.000 A 
ATOM      6  C   UNL     1      11.034  13.919  19.616  0.00  0.00    +0.000 A 
ATOM      7  C   UNL     1      10.997  12.551  19.269  0.00  0.00    +0.000 A 
ATOM      8  C   UNL     1      12.127  11.730  19.840  0.00  0.00    +0.000 C 
ATOM      9  C   UNL     1       9.941  12.086  18.447  0.00  0.00    +0.000 A 
ATOM     10  C   UNL     1       8.963  13.017  18.024  0.00  0.00    +0.000 A 
ATOM     11 CL   UNL     1       7.619  12.533  17.037  0.00  0.00    +0.000 Cl
ATOM     12  C   UNL     1       9.027  14.368  18.383  0.00  0.00    +0.000 A 
ENDBRANCH   3   9
ENDBRANCH   2   3
ENDBRANCH   1   2
BRANCH   1  13
ATOM     13  C   UNL     1       8.223   7.539  18.331  0.00  0.00    +0.000 C 
BRANCH  13  14
ATOM     14  C   UNL     1       7.134   6.648  17.722  0.00  0.00    +0.000 C 
BRANCH  14  15
ATOM     15  N   UNL     1       6.505   5.829  18.750  0.00  0.00    +0.000 NA
ATOM     16  H   UNL     1       5.684   6.304  19.125  0.00  0.00    +0.000 HD
BRANCH  15  17
ATOM     17  C   UNL     1       6.079   4.543  18.192  0.00  0.00    +0.000 C 
BRANCH  17  18
ATOM     18  C   UNL     1       4.578   4.490  18.058  0.00  0.00    +0.000 A 
ATOM     19  C   UNL     1       3.766   5.465  18.653  0.00  0.00    +0.000 A 
ATOM     20  C   UNL     1       2.377   5.399  18.519  0.00  0.00    +0.000 A 
ATOM     21  C   UNL     1       1.793   4.363  17.793  0.00  0.00    +0.000 A 
ATOM     22  C   UNL     1       2.592   3.393  17.191  0.00  0.00    +0.000 A 
ATOM     23  C   UNL     1       3.978   3.459  17.320  0.00  0.00    +0.000 A 
ENDBRANCH  17  18
ENDBRANCH  15  17
ENDBRANCH  14  15
ENDBRANCH  13  14
ENDBRANCH   1  13
TORSDOF 8
ENDMDL
MODEL 6
REMARK VINA RESULT:      -6.8      1.028      1.323
REMARK  Name = 
REMARK  10 active torsions:
REMARK  status: ('A' for Active; 'I' for Inactive)
REMARK    1  A    between atoms: C_1  and  C_2
REMARK    2  A    between atoms: C_4  and  C_5
REMARK    3  A    between atoms: C_6  and  O_7
REMARK    4  A    between atoms: O_7  and  C_8
REMARK    5  A    between atoms: C_8  and  C_9
REMARK    6  A    between atoms: C_9  and  C_10
REMARK    7  A    between atoms: C_10  and  C_11
REMARK    8  A    between atoms: C_11  and  N_12
REMARK    9  A    between atoms: N_12  and  C_13
REMARK   10  A    between atoms: C_13  and  C_14
REMARK                            x       y       z     vdW  Elec       q    Type
REMARK                         _______ _______ _______ _____ _____    ______ ____
ROOT
ATOM      1  C   UNL     1       5.643   6.203  17.929  0.00  0.00    +0.000 C 
ENDROOT
BRANCH   1   2
ATOM      2  C   UNL     1       4.532   5.818  16.957  0.00  0.00    +0.000 C 
BRANCH   2   3
ATOM      3  O   UNL     1       3.249   5.997  17.520  0.00  0.00    +0.000 OA
BRANCH   3   9
ATOM      4  C   UNL     1       1.347   2.689  21.763  0.00  0.00    +0.000 C 
ATOM      5  C   UNL     1       1.831   3.522  20.616  0.00  0.00    +0.000 A 
ATOM      6  C   UNL     1       2.269   2.920  19.434  0.00  0.00    +0.000 A 
ATOM      7  C   UNL     1       2.753   3.668  18.337  0.00  0.00    +0.000 A 
ATOM      8  C   UNL     1       3.179   2.835  17.153  0.00  0.00    +0.000 C 
ATOM      9  C   UNL     1       2.792   5.080  18.441  0.00  0.00    +0.000 A 
ATOM     10  C   UNL     1       2.330   5.675  19.637  0.00  0.00    +0.000 A 
ATOM     11 CL   UNL     1       2.316   7.400  19.844  0.00  0.00    +0.000 Cl
ATOM     12  C   UNL     1       1.857   4.909  20.708  0.00  0.00    +0.000 A 
ENDBRANCH   3   9
ENDBRANCH   2   3
ENDBRANCH   1   2
BRANCH   1  13
ATOM     13  C   UNL     1       6.824   6.837  17.176  0.00  0.00    +0.000 C 
BRANCH  13  14
ATOM     14  C   UNL     1       7.890   7.398  18.124  0.00  0.00    +0.000 C 
BRANCH  14  15
ATOM     15  N   UNL     1       8.082   8.824  17.894  0.00  0.00    +0.000 NA
ATOM     16  H   UNL     1       7.183   9.307  17.905  0.00  0.00    +0.000 HD
BRANCH  15  17
ATOM     17  C   UNL     1       8.929   9.403  18.940  0.00  0.00    +0.000 C 
BRANCH  17  18
ATOM     18  C   UNL     1       9.379  10.790  18.557  0.00  0.00    +0.000 A 
ATOM     19  C   UNL     1      10.662  11.248  18.884  0.00  0.00    +0.000 A 
ATOM     20  C   UNL     1      11.062  12.536  18.521  0.00  0.00    +0.000 A 
ATOM     21  C   UNL     1      10.185  13.373  17.832  0.00  0.00    +0.000 A 
ATOM     22  C   UNL     1       8.909  12.924  17.496  0.00  0.00    +0.000 A 
ATOM     23  C   UNL     1       8.510  11.638  17.854  0.00  0.00    +0.000 A 
ENDBRANCH  17  18
ENDBRANCH  15  17
ENDBRANCH  14  15
ENDBRANCH  13  14
ENDBRANCH   1  13
TORSDOF 8
ENDMDL
MODEL 7
REMARK VINA RESULT:      -6.8      1.735      2.459
REMARK  Name = 
REMARK  10 active torsions:
REMARK  status: ('A' for Active; 'I' for Inactive)
REMARK    1  A    between atoms: C_1  and  C_2
REMARK    2  A    between atoms: C_4  and  C_5
REMARK    3  A    between atoms: C_6  and  O_7
REMARK    4  A    between atoms: O_7  and  C_8
REMARK    5  A    between atoms: C_8  and  C_9
REMARK    6  A    between atoms: C_9  and  C_10
REMARK    7  A    between atoms: C_10  and  C_11
REMARK    8  A    between atoms: C_11  and  N_12
REMARK    9  A    between atoms: N_12  and  C_13
REMARK   10  A    between atoms: C_13  and  C_14
REMARK                            x       y       z     vdW  Elec       q    Type
REMARK                         _______ _______ _______ _____ _____    ______ ____
ROOT
ATOM      1  C   UNL     1       7.106   5.705  16.528  0.00  0.00    +0.000 C 
ENDROOT
BRANCH   1   2
ATOM      2  C   UNL     1       6.375   4.456  17.011  0.00  0.00    +0.000 C 
BRANCH   2   3
ATOM      3  O   UNL     1       5.031   4.426  16.576  0.00  0.00    +0.000 OA
BRANCH   3   9
ATOM      4  C   UNL     1       0.769   4.459  20.370  0.00  0.00    +0.000 C 
ATOM      5  C   UNL     1       1.903   4.496  19.392  0.00  0.00    +0.000 A 
ATOM      6  C   UNL     1       2.393   5.714  18.914  0.00  0.00    +0.000 A 
ATOM      7  C   UNL     1       3.446   5.792  17.976  0.00  0.00    +0.000 A 
ATOM      8  C   UNL     1       3.831   7.197  17.584  0.00  0.00    +0.000 C 
ATOM      9  C   UNL     1       4.027   4.589  17.505  0.00  0.00    +0.000 A 
ATOM     10  C   UNL     1       3.531   3.364  18.010  0.00  0.00    +0.000 A 
ATOM     11 CL   UNL     1       4.200   1.841  17.509  0.00  0.00    +0.000 Cl
ATOM     12  C   UNL     1       2.486   3.318  18.938  0.00  0.00    +0.000 A 
ENDBRANCH   3   9
ENDBRANCH   2   3
ENDBRANCH   1   2
BRANCH   1  13
ATOM     13  C   UNL     1       7.589   6.544  17.722  0.00  0.00    +0.000 C 
BRANCH  13  14
ATOM     14  C   UNL     1       7.406   8.048  17.493  0.00  0.00    +0.000 C 
BRANCH  14  15
ATOM     15  N   UNL     1       8.335   8.811  18.317  0.00  0.00    +0.000 NA
ATOM     16  H   UNL     1       9.188   8.274  18.477  0.00  0.00    +0.000 HD
BRANCH  15  17
ATOM     17  C   UNL     1       8.699  10.065  17.654  0.00  0.00    +0.000 C 
BRANCH  17  18
ATOM     18  C   UNL     1       9.627  10.879  18.521  0.00  0.00    +0.000 A 
ATOM     19  C   UNL     1       9.458  10.927  19.910  0.00  0.00    +0.000 A 
ATOM     20  C   UNL     1      10.327  11.686  20.698  0.00  0.00    +0.000 A 
ATOM     21  C   UNL     1      11.367  12.399  20.104  0.00  0.00    +0.000 A 
ATOM     22  C   UNL     1      11.549  12.351  18.723  0.00  0.00    +0.000 A 
ATOM     23  C   UNL     1      10.685  11.591  17.936  0.00  0.00    +0.000 A 
ENDBRANCH  17  18
ENDBRANCH  15  17
ENDBRANCH  14  15
ENDBRANCH  13  14
ENDBRANCH   1  13
TORSDOF 8
ENDMDL
MODEL 8
REMARK VINA RESULT:      -6.8      6.216      9.700
REMARK  Name = 
REMARK  10 active torsions:
REMARK  status: ('A' for Active; 'I' for Inactive)
REMARK    1  A    between atoms: C_1  and  C_2
REMARK    2  A    between atoms: C_4  and  C_5
REMARK    3  A    between atoms: C_6  and  O_7
REMARK    4  A    between atoms: O_7  and  C_8
REMARK    5  A    between atoms: C_8  and  C_9
REMARK    6  A    between atoms: C_9  and  C_10
REMARK    7  A    between atoms: C_10  and  C_11
REMARK    8  A    between atoms: C_11  and  N_12
REMARK    9  A    between atoms: N_12  and  C_13
REMARK   10  A    between atoms: C_13  and  C_14
REMARK                            x       y       z     vdW  Elec       q    Type
REMARK                         _______ _______ _______ _____ _____    ______ ____
ROOT
ATOM      1  C   UNL     1       0.731   9.966  18.206  0.00  0.00    +0.000 C 
ENDROOT
BRANCH   1   2
ATOM      2  C   UNL     1      -0.410  10.353  19.141  0.00  0.00    +0.000 C 
BRANCH   2   3
ATOM      3  O   UNL     1      -1.050  11.545  18.734  0.00  0.00    +0.000 OA
BRANCH   3   9
ATOM      4  C   UNL     1      -6.722  11.611  18.118  0.00  0.00    +0.000 C 
ATOM      5  C   UNL     1      -5.229  11.593  18.229  0.00  0.00    +0.000 A 
ATOM      6  C   UNL     1      -4.448  10.989  17.241  0.00  0.00    +0.000 A 
ATOM      7  C   UNL     1      -3.038  10.932  17.317  0.00  0.00    +0.000 A 
ATOM      8  C   UNL     1      -2.376  10.237  16.153  0.00  0.00    +0.000 C 
ATOM      9  C   UNL     1      -2.394  11.512  18.438  0.00  0.00    +0.000 A 
ATOM     10  C   UNL     1      -3.197  12.134  19.422  0.00  0.00    +0.000 A 
ATOM     11 CL   UNL     1      -2.494  12.894  20.817  0.00  0.00    +0.000 Cl
ATOM     12  C   UNL     1      -4.592  12.174  19.320  0.00  0.00    +0.000 A 
ENDBRANCH   3   9
ENDBRANCH   2   3
ENDBRANCH   1   2
BRANCH   1  13
ATOM     13  C   UNL     1       1.690   8.987  18.901  0.00  0.00    +0.000 C 
BRANCH  13  14
ATOM     14  C   UNL     1       1.196   8.568  20.290  0.00  0.00    +0.000 C 
BRANCH  14  15
ATOM     15  N   UNL     1       1.970   7.441  20.793  0.00  0.00    +0.000 NA
ATOM     16  H   UNL     1       1.363   6.789  21.290  0.00  0.00    +0.000 HD
BRANCH  15  17
ATOM     17  C   UNL     1       2.610   6.723  19.688  0.00  0.00    +0.000 C 
BRANCH  17  18
ATOM     18  C   UNL     1       2.035   5.336  19.547  0.00  0.00    +0.000 A 
ATOM     19  C   UNL     1       1.580   4.627  20.667  0.00  0.00    +0.000 A 
ATOM     20  C   UNL     1       1.051   3.344  20.518  0.00  0.00    +0.000 A 
ATOM     21  C   UNL     1       0.972   2.762  19.254  0.00  0.00    +0.000 A 
ATOM     22  C   UNL     1       1.415   3.461  18.133  0.00  0.00    +0.000 A 
ATOM     23  C   UNL     1       1.939   4.744  18.280  0.00  0.00    +0.000 A 
ENDBRANCH  17  18
ENDBRANCH  15  17
ENDBRANCH  14  15
ENDBRANCH  13  14
ENDBRANCH   1  13
TORSDOF 8
ENDMDL
MODEL 9
REMARK VINA RESULT:      -6.8      3.548      6.401
REMARK  Name = 
REMARK  10 active torsions:
REMARK  status: ('A' for Active; 'I' for Inactive)
REMARK    1  A    between atoms: C_1  and  C_2
REMARK    2  A    between atoms: C_4  and  C_5
REMARK    3  A    between atoms: C_6  and  O_7
REMARK    4  A    between atoms: O_7  and  C_8
REMARK    5  A    between atoms: C_8  and  C_9
REMARK    6  A    between atoms: C_9  and  C_10
REMARK    7  A    between atoms: C_10  and  C_11
REMARK    8  A    between atoms: C_11  and  N_12
REMARK    9  A    between atoms: N_12  and  C_13
REMARK   10  A    between atoms: C_13  and  C_14
REMARK                            x       y       z     vdW  Elec       q    Type
REMARK                         _______ _______ _______ _____ _____    ______ ____
ROOT
ATOM      1  C   UNL     1       2.443   5.287  20.302  0.00  0.00    +0.000 C 
ENDROOT
BRANCH   1   2
ATOM      2  C   UNL     1       1.443   6.386  20.649  0.00  0.00    +0.000 C 
BRANCH   2   3
ATOM      3  O   UNL     1       2.004   7.676  20.518  0.00  0.00    +0.000 OA
BRANCH   3   9
ATOM      4  C   UNL     1      -1.006  12.063  18.456  0.00  0.00    +0.000 C 
ATOM      5  C   UNL     1      -0.255  10.901  19.028  0.00  0.00    +0.000 A 
ATOM      6  C   UNL     1      -0.475  10.488  20.345  0.00  0.00    +0.000 A 
ATOM      7  C   UNL     1       0.227   9.411  20.929  0.00  0.00    +0.000 A 
ATOM      8  C   UNL     1      -0.153   9.120  22.361  0.00  0.00    +0.000 C 
ATOM      9  C   UNL     1       1.188   8.722  20.150  0.00  0.00    +0.000 A 
ATOM     10  C   UNL     1       1.389   9.141  18.814  0.00  0.00    +0.000 A 
ATOM     11 CL   UNL     1       2.528   8.340  17.775  0.00  0.00    +0.000 Cl
ATOM     12  C   UNL     1       0.680  10.213  18.262  0.00  0.00    +0.000 A 
ENDBRANCH   3   9
ENDBRANCH   2   3
ENDBRANCH   1   2
BRANCH   1  13
ATOM     13  C   UNL     1       2.267   4.839  18.842  0.00  0.00    +0.000 C 
BRANCH  13  14
ATOM     14  C   UNL     1       2.916   3.478  18.565  0.00  0.00    +0.000 C 
BRANCH  14  15
ATOM     15  N   UNL     1       4.240   3.649  17.981  0.00  0.00    +0.000 NA
ATOM     16  H   UNL     1       4.212   4.356  17.247  0.00  0.00    +0.000 HD
BRANCH  15  17
ATOM     17  C   UNL     1       5.200   4.080  19.000  0.00  0.00    +0.000 C 
BRANCH  17  18
ATOM     18  C   UNL     1       6.002   5.260  18.514  0.00  0.00    +0.000 A 
ATOM     19  C   UNL     1       5.506   6.106  17.513  0.00  0.00    +0.000 A 
ATOM     20  C   UNL     1       6.263   7.194  17.074  0.00  0.00    +0.000 A 
ATOM     21  C   UNL     1       7.516   7.444  17.630  0.00  0.00    +0.000 A 
ATOM     22  C   UNL     1       8.016   6.614  18.631  0.00  0.00    +0.000 A 
ATOM     23  C   UNL     1       7.260   5.530  19.073  0.00  0.00    +0.000 A 
ENDBRANCH  17  18
ENDBRANCH  15  17
ENDBRANCH  14  15
ENDBRANCH  13  14
ENDBRANCH   1  13
TORSDOF 8
ENDMDL
