MODEL 1
REMARK VINA RESULT:      -7.6      0.000      0.000
REMARK  Name = 
REMARK  3 active torsions:
REMARK  status: ('A' for Active; 'I' for Inactive)
REMARK    1  A    between atoms: C_1  and  N_2
REMARK    2  A    between atoms: C_8  and  C_9
REMARK    3  A    between atoms: C_15  and  C_16
REMARK                            x       y       z     vdW  Elec       q    Type
REMARK                         _______ _______ _______ _____ _____    ______ ____
ROOT
ATOM      1  C   UNL     1       0.514   3.053  20.213  0.00  0.00    +0.000 C 
ATOM      2  N   UNL     1       1.862   2.974  19.650  0.00  0.00    +0.000 NA
ATOM      3  C   UNL     1       2.671   4.131  20.099  0.00  0.00    +0.000 C 
ATOM      4  C   UNL     1       4.078   4.173  19.460  0.00  0.00    +0.000 C 
ATOM      5  N   UNL     1       3.950   4.127  18.001  0.00  0.00    +0.000 N 
ATOM      6  C   UNL     1       4.990   4.631  17.253  0.00  0.00    +0.000 A 
ATOM      7  N   UNL     1       5.188   4.188  16.004  0.00  0.00    +0.000 NA
ATOM      8  C   UNL     1       6.136   4.795  15.263  0.00  0.00    +0.000 A 
ATOM      9  C   UNL     1       6.907   5.830  15.735  0.00  0.00    +0.000 A 
ATOM     10  C   UNL     1       6.660   6.210  17.030  0.00  0.00    +0.000 A 
ATOM     11  N   UNL     1       5.719   5.621  17.786  0.00  0.00    +0.000 NA
ATOM     12  C   UNL     1       3.201   2.975  17.501  0.00  0.00    +0.000 C 
ATOM     13  C   UNL     1       1.803   2.957  18.168  0.00  0.00    +0.000 C 
ENDROOT
BRANCH   8  14
ATOM     14  C   UNL     1       6.326   4.311  13.908  0.00  0.00    +0.000 A 
ATOM     15  C   UNL     1       5.557   3.391  13.136  0.00  0.00    +0.000 A 
ATOM     16  C   UNL     1       6.166   3.310  11.906  0.00  0.00    +0.000 A 
ATOM     17  O   UNL     1       7.254   4.118  11.862  0.00  0.00    +0.000 OA
ATOM     18  C   UNL     1       7.353   4.718  13.079  0.00  0.00    +0.000 A 
ENDBRANCH   8  14
BRANCH  10  19
ATOM     19  C   UNL     1       7.424   7.272  17.661  0.00  0.00    +0.000 A 
ATOM     20  C   UNL     1       7.518   8.661  17.368  0.00  0.00    +0.000 A 
ATOM     21  C   UNL     1       8.421   9.190  18.261  0.00  0.00    +0.000 A 
ATOM     22  O   UNL     1       8.877   8.228  19.100  0.00  0.00    +0.000 OA
ATOM     23  C   UNL     1       8.271   7.069  18.733  0.00  0.00    +0.000 A 
ENDBRANCH  10  19
TORSDOF 2
ENDMDL
MODEL 2
REMARK VINA RESULT:      -7.4      0.544      5.018
REMARK  Name = 
REMARK  3 active torsions:
REMARK  status: ('A' for Active; 'I' for Inactive)
REMARK    1  A    between atoms: C_1  and  N_2
REMARK    2  A    between atoms: C_8  and  C_9
REMARK    3  A    between atoms: C_15  and  C_16
REMARK                            x       y       z     vdW  Elec       q    Type
REMARK                         _______ _______ _______ _____ _____    ______ ____
ROOT
ATOM      1  C   UNL     1       0.953   2.544  20.572  0.00  0.00    +0.000 C 
ATOM      2  N   UNL     1       1.509   3.589  19.714  0.00  0.00    +0.000 NA
ATOM      3  C   UNL     1       1.867   3.027  18.391  0.00  0.00    +0.000 C 
ATOM      4  C   UNL     1       2.558   4.050  17.463  0.00  0.00    +0.000 C 
ATOM      5  N   UNL     1       3.721   4.620  18.148  0.00  0.00    +0.000 N 
ATOM      6  C   UNL     1       4.724   5.153  17.369  0.00  0.00    +0.000 A 
ATOM      7  N   UNL     1       5.525   6.101  17.873  0.00  0.00    +0.000 NA
ATOM      8  C   UNL     1       6.570   6.506  17.124  0.00  0.00    +0.000 A 
ATOM      9  C   UNL     1       6.837   6.000  15.875  0.00  0.00    +0.000 A 
ATOM     10  C   UNL     1       5.958   5.050  15.421  0.00  0.00    +0.000 A 
ATOM     11  N   UNL     1       4.911   4.629  16.150  0.00  0.00    +0.000 NA
ATOM     12  C   UNL     1       3.414   5.234  19.439  0.00  0.00    +0.000 C 
ATOM     13  C   UNL     1       2.713   4.186  20.340  0.00  0.00    +0.000 C 
ENDROOT
BRANCH   8  14
ATOM     14  C   UNL     1       7.435   7.523  17.693  0.00  0.00    +0.000 A 
ATOM     15  C   UNL     1       7.563   8.910  17.385  0.00  0.00    +0.000 A 
ATOM     16  C   UNL     1       8.510   9.414  18.244  0.00  0.00    +0.000 A 
ATOM     17  O   UNL     1       8.974   8.438  19.064  0.00  0.00    +0.000 OA
ATOM     18  C   UNL     1       8.326   7.292  18.723  0.00  0.00    +0.000 A 
ENDBRANCH   8  14
BRANCH  10  19
ATOM     19  C   UNL     1       6.108   4.454  14.104  0.00  0.00    +0.000 A 
ATOM     20  C   UNL     1       5.257   3.583  13.367  0.00  0.00    +0.000 A 
ATOM     21  C   UNL     1       5.911   3.299  12.191  0.00  0.00    +0.000 A 
ATOM     22  O   UNL     1       7.099   3.950  12.140  0.00  0.00    +0.000 OA
ATOM     23  C   UNL     1       7.213   4.648  13.300  0.00  0.00    +0.000 A 
ENDBRANCH  10  19
TORSDOF 2
ENDMDL
MODEL 3
REMARK VINA RESULT:      -7.3      3.709      7.242
REMARK  Name = 
REMARK  3 active torsions:
REMARK  status: ('A' for Active; 'I' for Inactive)
REMARK    1  A    between atoms: C_1  and  N_2
REMARK    2  A    between atoms: C_8  and  C_9
REMARK    3  A    between atoms: C_15  and  C_16
REMARK                            x       y       z     vdW  Elec       q    Type
REMARK                         _______ _______ _______ _____ _____    ______ ____
ROOT
ATOM      1  C   UNL     1       6.800   4.056  13.305  0.00  0.00    +0.000 C 
ATOM      2  N   UNL     1       6.549   4.683  14.602  0.00  0.00    +0.000 NA
ATOM      3  C   UNL     1       6.053   3.676  15.569  0.00  0.00    +0.000 C 
ATOM      4  C   UNL     1       5.666   4.284  16.935  0.00  0.00    +0.000 C 
ATOM      5  N   UNL     1       4.700   5.366  16.729  0.00  0.00    +0.000 N 
ATOM      6  C   UNL     1       3.880   5.700  17.784  0.00  0.00    +0.000 A 
ATOM      7  N   UNL     1       3.365   6.935  17.861  0.00  0.00    +0.000 NA
ATOM      8  C   UNL     1       2.469   7.182  18.838  0.00  0.00    +0.000 A 
ATOM      9  C   UNL     1       2.076   6.236  19.752  0.00  0.00    +0.000 A 
ATOM     10  C   UNL     1       2.666   5.004  19.620  0.00  0.00    +0.000 A 
ATOM     11  N   UNL     1       3.559   4.733  18.654  0.00  0.00    +0.000 NA
ATOM     12  C   UNL     1       5.160   6.415  15.820  0.00  0.00    +0.000 C 
ATOM     13  C   UNL     1       5.550   5.771  14.466  0.00  0.00    +0.000 C 
ENDROOT
BRANCH   8  14
ATOM     14  C   UNL     1       1.912   8.521  18.897  0.00  0.00    +0.000 A 
ATOM     15  C   UNL     1       1.145   9.163  19.913  0.00  0.00    +0.000 A 
ATOM     16  C   UNL     1       0.900  10.441  19.469  0.00  0.00    +0.000 A 
ATOM     17  O   UNL     1       1.465  10.635  18.252  0.00  0.00    +0.000 OA
ATOM     18  C   UNL     1       2.072   9.469  17.904  0.00  0.00    +0.000 A 
ENDBRANCH   8  14
BRANCH  10  19
ATOM     19  C   UNL     1       2.362   3.922  20.540  0.00  0.00    +0.000 A 
ATOM     20  C   UNL     1       1.123   3.461  21.069  0.00  0.00    +0.000 A 
ATOM     21  C   UNL     1       1.423   2.428  21.926  0.00  0.00    +0.000 A 
ATOM     22  O   UNL     1       2.759   2.204  21.948  0.00  0.00    +0.000 OA
ATOM     23  C   UNL     1       3.323   3.110  21.108  0.00  0.00    +0.000 A 
ENDBRANCH  10  19
TORSDOF 2
ENDMDL
MODEL 4
REMARK VINA RESULT:      -7.2      4.213      6.740
REMARK  Name = 
REMARK  3 active torsions:
REMARK  status: ('A' for Active; 'I' for Inactive)
REMARK    1  A    between atoms: C_1  and  N_2
REMARK    2  A    between atoms: C_8  and  C_9
REMARK    3  A    between atoms: C_15  and  C_16
REMARK                            x       y       z     vdW  Elec       q    Type
REMARK                         _______ _______ _______ _____ _____    ______ ____
ROOT
ATOM      1  C   UNL     1      -0.089  11.955  18.702  0.00  0.00    +0.000 C 
ATOM      2  N   UNL     1       0.905  10.963  19.112  0.00  0.00    +0.000 NA
ATOM      3  C   UNL     1       1.727  10.554  17.949  0.00  0.00    +0.000 C 
ATOM      4  C   UNL     1       2.732   9.429  18.282  0.00  0.00    +0.000 C 
ATOM      5  N   UNL     1       2.015   8.296  18.872  0.00  0.00    +0.000 N 
ATOM      6  C   UNL     1       2.604   7.054  18.789  0.00  0.00    +0.000 A 
ATOM      7  N   UNL     1       2.302   6.111  19.692  0.00  0.00    +0.000 NA
ATOM      8  C   UNL     1       2.803   4.874  19.503  0.00  0.00    +0.000 A 
ATOM      9  C   UNL     1       3.610   4.547  18.440  0.00  0.00    +0.000 A 
ATOM     10  C   UNL     1       3.891   5.571  17.573  0.00  0.00    +0.000 A 
ATOM     11  N   UNL     1       3.402   6.811  17.739  0.00  0.00    +0.000 NA
ATOM     12  C   UNL     1       1.226   8.636  20.055  0.00  0.00    +0.000 C 
ATOM     13  C   UNL     1       0.238   9.772  19.690  0.00  0.00    +0.000 C 
ENDROOT
BRANCH   8  14
ATOM     14  C   UNL     1       2.453   3.864  20.485  0.00  0.00    +0.000 A 
ATOM     15  C   UNL     1       1.186   3.497  21.026  0.00  0.00    +0.000 A 
ATOM     16  C   UNL     1       1.421   2.460  21.899  0.00  0.00    +0.000 A 
ATOM     17  O   UNL     1       2.743   2.159  21.932  0.00  0.00    +0.000 OA
ATOM     18  C   UNL     1       3.367   3.016  21.079  0.00  0.00    +0.000 A 
ENDBRANCH   8  14
BRANCH  10  19
ATOM     19  C   UNL     1       4.756   5.368  16.423  0.00  0.00    +0.000 A 
ATOM     20  C   UNL     1       5.202   4.176  15.785  0.00  0.00    +0.000 A 
ATOM     21  C   UNL     1       6.038   4.567  14.765  0.00  0.00    +0.000 A 
ATOM     22  O   UNL     1       6.125   5.919  14.716  0.00  0.00    +0.000 OA
ATOM     23  C   UNL     1       5.347   6.399  15.721  0.00  0.00    +0.000 A 
ENDBRANCH  10  19
TORSDOF 2
ENDMDL
MODEL 5
REMARK VINA RESULT:      -7.2      4.361      6.307
REMARK  Name = 
REMARK  3 active torsions:
REMARK  status: ('A' for Active; 'I' for Inactive)
REMARK    1  A    between atoms: C_1  and  N_2
REMARK    2  A    between atoms: C_8  and  C_9
REMARK    3  A    between atoms: C_15  and  C_16
REMARK                            x       y       z     vdW  Elec       q    Type
REMARK                         _______ _______ _______ _____ _____    ______ ____
ROOT
ATOM      1  C   UNL     1       0.512  12.648  19.554  0.00  0.00    +0.000 C 
ATOM      2  N   UNL     1       0.679  11.364  18.874  0.00  0.00    +0.000 NA
ATOM      3  C   UNL     1       0.340  10.253  19.794  0.00  0.00    +0.000 C 
ATOM      4  C   UNL     1       0.592   8.858  19.180  0.00  0.00    +0.000 C 
ATOM      5  N   UNL     1       1.977   8.777  18.710  0.00  0.00    +0.000 N 
ATOM      6  C   UNL     1       2.539   7.525  18.589  0.00  0.00    +0.000 A 
ATOM      7  N   UNL     1       3.548   7.328  17.730  0.00  0.00    +0.000 NA
ATOM      8  C   UNL     1       4.151   6.123  17.733  0.00  0.00    +0.000 A 
ATOM      9  C   UNL     1       3.771   5.097  18.563  0.00  0.00    +0.000 A 
ATOM     10  C   UNL     1       2.716   5.370  19.397  0.00  0.00    +0.000 A 
ATOM     11  N   UNL     1       2.101   6.563  19.413  0.00  0.00    +0.000 NA
ATOM     12  C   UNL     1       2.351   9.824  17.760  0.00  0.00    +0.000 C 
ATOM     13  C   UNL     1       2.076  11.207  18.401  0.00  0.00    +0.000 C 
ENDROOT
BRANCH   8  14
ATOM     14  C   UNL     1       5.251   5.934  16.805  0.00  0.00    +0.000 A 
ATOM     15  C   UNL     1       5.320   5.200  15.585  0.00  0.00    +0.000 A 
ATOM     16  C   UNL     1       6.592   5.378  15.093  0.00  0.00    +0.000 A 
ATOM     17  O   UNL     1       7.313   6.172  15.922  0.00  0.00    +0.000 OA
ATOM     18  C   UNL     1       6.501   6.502  16.962  0.00  0.00    +0.000 A 
ENDBRANCH   8  14
BRANCH  10  19
ATOM     19  C   UNL     1       2.195   4.362  20.304  0.00  0.00    +0.000 A 
ATOM     20  C   UNL     1       1.126   3.433  20.160  0.00  0.00    +0.000 A 
ATOM     21  C   UNL     1       1.043   2.743  21.346  0.00  0.00    +0.000 A 
ATOM     22  O   UNL     1       2.000   3.167  22.209  0.00  0.00    +0.000 OA
ATOM     23  C   UNL     1       2.694   4.146  21.573  0.00  0.00    +0.000 A 
ENDBRANCH  10  19
TORSDOF 2
ENDMDL
MODEL 6
REMARK VINA RESULT:      -6.7      0.850      5.024
REMARK  Name = 
REMARK  3 active torsions:
REMARK  status: ('A' for Active; 'I' for Inactive)
REMARK    1  A    between atoms: C_1  and  N_2
REMARK    2  A    between atoms: C_8  and  C_9
REMARK    3  A    between atoms: C_15  and  C_16
REMARK                            x       y       z     vdW  Elec       q    Type
REMARK                         _______ _______ _______ _____ _____    ______ ____
ROOT
ATOM      1  C   UNL     1       1.111   2.553  20.602  0.00  0.00    +0.000 C 
ATOM      2  N   UNL     1       1.647   3.606  19.741  0.00  0.00    +0.000 NA
ATOM      3  C   UNL     1       2.048   3.039  18.432  0.00  0.00    +0.000 C 
ATOM      4  C   UNL     1       2.722   4.073  17.503  0.00  0.00    +0.000 C 
ATOM      5  N   UNL     1       3.852   4.690  18.202  0.00  0.00    +0.000 N 
ATOM      6  C   UNL     1       4.851   5.247  17.435  0.00  0.00    +0.000 A 
ATOM      7  N   UNL     1       5.612   6.227  17.940  0.00  0.00    +0.000 NA
ATOM      8  C   UNL     1       6.656   6.657  17.204  0.00  0.00    +0.000 A 
ATOM      9  C   UNL     1       6.963   6.145  15.967  0.00  0.00    +0.000 A 
ATOM     10  C   UNL     1       6.124   5.160  15.510  0.00  0.00    +0.000 A 
ATOM     11  N   UNL     1       5.079   4.714  16.226  0.00  0.00    +0.000 NA
ATOM     12  C   UNL     1       3.502   5.309  19.479  0.00  0.00    +0.000 C 
ATOM     13  C   UNL     1       2.819   4.250  20.381  0.00  0.00    +0.000 C 
ENDROOT
BRANCH   8  14
ATOM     14  C   UNL     1       7.476   7.710  17.776  0.00  0.00    +0.000 A 
ATOM     15  C   UNL     1       8.475   7.660  18.791  0.00  0.00    +0.000 A 
ATOM     16  C   UNL     1       8.957   8.941  18.928  0.00  0.00    +0.000 A 
ATOM     17  O   UNL     1       8.328   9.778  18.066  0.00  0.00    +0.000 OA
ATOM     18  C   UNL     1       7.426   9.031  17.374  0.00  0.00    +0.000 A 
ENDBRANCH   8  14
BRANCH  10  19
ATOM     19  C   UNL     1       6.318   4.553  14.204  0.00  0.00    +0.000 A 
ATOM     20  C   UNL     1       7.345   4.724  13.234  0.00  0.00    +0.000 A 
ATOM     21  C   UNL     1       7.009   3.932  12.162  0.00  0.00    +0.000 A 
ATOM     22  O   UNL     1       5.854   3.266  12.410  0.00  0.00    +0.000 OA
ATOM     23  C   UNL     1       5.440   3.645  13.646  0.00  0.00    +0.000 A 
ENDBRANCH  10  19
TORSDOF 2
ENDMDL
MODEL 7
REMARK VINA RESULT:      -6.3      3.991      7.507
REMARK  Name = 
REMARK  3 active torsions:
REMARK  status: ('A' for Active; 'I' for Inactive)
REMARK    1  A    between atoms: C_1  and  N_2
REMARK    2  A    between atoms: C_8  and  C_9
REMARK    3  A    between atoms: C_15  and  C_16
REMARK                            x       y       z     vdW  Elec       q    Type
REMARK                         _______ _______ _______ _____ _____    ______ ____
ROOT
ATOM      1  C   UNL     1       7.134   4.767  13.543  0.00  0.00    +0.000 C 
ATOM      2  N   UNL     1       6.767   5.293  14.858  0.00  0.00    +0.000 NA
ATOM      3  C   UNL     1       6.248   4.202  15.716  0.00  0.00    +0.000 C 
ATOM      4  C   UNL     1       5.741   4.699  17.089  0.00  0.00    +0.000 C 
ATOM      5  N   UNL     1       4.747   5.755  16.886  0.00  0.00    +0.000 N 
ATOM      6  C   UNL     1       3.842   5.984  17.898  0.00  0.00    +0.000 A 
ATOM      7  N   UNL     1       3.270   7.190  18.021  0.00  0.00    +0.000 NA
ATOM      8  C   UNL     1       2.299   7.335  18.945  0.00  0.00    +0.000 A 
ATOM      9  C   UNL     1       1.884   6.313  19.763  0.00  0.00    +0.000 A 
ATOM     10  C   UNL     1       2.533   5.116  19.591  0.00  0.00    +0.000 A 
ATOM     11  N   UNL     1       3.502   4.947  18.676  0.00  0.00    +0.000 NA
ATOM     12  C   UNL     1       5.224   6.882  16.085  0.00  0.00    +0.000 C 
ATOM     13  C   UNL     1       5.735   6.349  14.723  0.00  0.00    +0.000 C 
ENDROOT
BRANCH   8  14
ATOM     14  C   UNL     1       1.683   8.645  19.053  0.00  0.00    +0.000 A 
ATOM     15  C   UNL     1       1.570   9.698  18.099  0.00  0.00    +0.000 A 
ATOM     16  C   UNL     1       0.867  10.707  18.714  0.00  0.00    +0.000 A 
ATOM     17  O   UNL     1       0.535  10.350  19.979  0.00  0.00    +0.000 OA
ATOM     18  C   UNL     1       1.036   9.103  20.184  0.00  0.00    +0.000 A 
ENDBRANCH   8  14
BRANCH  10  19
ATOM     19  C   UNL     1       2.212   3.962  20.412  0.00  0.00    +0.000 A 
ATOM     20  C   UNL     1       2.983   2.819  20.766  0.00  0.00    +0.000 A 
ATOM     21  C   UNL     1       2.169   2.019  21.534  0.00  0.00    +0.000 A 
ATOM     22  O   UNL     1       0.954   2.596  21.695  0.00  0.00    +0.000 OA
ATOM     23  C   UNL     1       0.985   3.771  21.015  0.00  0.00    +0.000 A 
ENDBRANCH  10  19
TORSDOF 2
ENDMDL
MODEL 8
REMARK VINA RESULT:      -6.2      8.634     10.748
REMARK  Name = 
REMARK  3 active torsions:
REMARK  status: ('A' for Active; 'I' for Inactive)
REMARK    1  A    between atoms: C_1  and  N_2
REMARK    2  A    between atoms: C_8  and  C_9
REMARK    3  A    between atoms: C_15  and  C_16
REMARK                            x       y       z     vdW  Elec       q    Type
REMARK                         _______ _______ _______ _____ _____    ______ ____
ROOT
ATOM      1  C   UNL     1       3.369  17.240  19.949  0.00  0.00    +0.000 C 
ATOM      2  N   UNL     1       2.468  16.129  20.249  0.00  0.00    +0.000 NA
ATOM      3  C   UNL     1       3.192  14.841  20.139  0.00  0.00    +0.000 C 
ATOM      4  C   UNL     1       2.279  13.611  20.340  0.00  0.00    +0.000 C 
ATOM      5  N   UNL     1       1.151  13.686  19.409  0.00  0.00    +0.000 N 
ATOM      6  C   UNL     1       0.514  12.510  19.080  0.00  0.00    +0.000 A 
ATOM      7  N   UNL     1      -0.765  12.534  18.679  0.00  0.00    +0.000 NA
ATOM      8  C   UNL     1      -1.311  11.380  18.248  0.00  0.00    +0.000 A 
ATOM      9  C   UNL     1      -0.623  10.192  18.214  0.00  0.00    +0.000 A 
ATOM     10  C   UNL     1       0.673  10.245  18.662  0.00  0.00    +0.000 A 
ATOM     11  N   UNL     1       1.240  11.383  19.094  0.00  0.00    +0.000 NA
ATOM     12  C   UNL     1       0.370  14.918  19.510  0.00  0.00    +0.000 C 
ATOM     13  C   UNL     1       1.316  16.130  19.315  0.00  0.00    +0.000 C 
ENDROOT
BRANCH   8  14
ATOM     14  C   UNL     1      -2.692  11.430  17.805  0.00  0.00    +0.000 A 
ATOM     15  C   UNL     1      -3.272  11.121  16.540  0.00  0.00    +0.000 A 
ATOM     16  C   UNL     1      -4.627  11.314  16.674  0.00  0.00    +0.000 A 
ATOM     17  O   UNL     1      -4.925  11.717  17.934  0.00  0.00    +0.000 OA
ATOM     18  C   UNL     1      -3.751  11.793  18.615  0.00  0.00    +0.000 A 
ENDBRANCH   8  14
BRANCH  10  19
ATOM     19  C   UNL     1       1.503   9.053  18.707  0.00  0.00    +0.000 A 
ATOM     20  C   UNL     1       2.298   8.427  17.706  0.00  0.00    +0.000 A 
ATOM     21  C   UNL     1       2.841   7.303  18.284  0.00  0.00    +0.000 A 
ATOM     22  O   UNL     1       2.453   7.202  19.579  0.00  0.00    +0.000 OA
ATOM     23  C   UNL     1       1.643   8.263  19.829  0.00  0.00    +0.000 A 
ENDBRANCH  10  19
TORSDOF 2
ENDMDL
MODEL 9
REMARK VINA RESULT:      -6.2      8.431     10.508
REMARK  Name = 
REMARK  3 active torsions:
REMARK  status: ('A' for Active; 'I' for Inactive)
REMARK    1  A    between atoms: C_1  and  N_2
REMARK    2  A    between atoms: C_8  and  C_9
REMARK    3  A    between atoms: C_15  and  C_16
REMARK                            x       y       z     vdW  Elec       q    Type
REMARK                         _______ _______ _______ _____ _____    ______ ____
ROOT
ATOM      1  C   UNL     1       3.432  17.071  19.726  0.00  0.00    +0.000 C 
ATOM      2  N   UNL     1       2.495  15.988  20.019  0.00  0.00    +0.000 NA
ATOM      3  C   UNL     1       3.205  14.688  20.030  0.00  0.00    +0.000 C 
ATOM      4  C   UNL     1       2.261  13.481  20.230  0.00  0.00    +0.000 C 
ATOM      5  N   UNL     1       1.203  13.519  19.217  0.00  0.00    +0.000 N 
ATOM      6  C   UNL     1       0.573  12.334  18.907  0.00  0.00    +0.000 A 
ATOM      7  N   UNL     1      -0.673  12.352  18.414  0.00  0.00    +0.000 NA
ATOM      8  C   UNL     1      -1.205  11.182  18.007  0.00  0.00    +0.000 A 
ATOM      9  C   UNL     1      -0.534   9.986  18.086  0.00  0.00    +0.000 A 
ATOM     10  C   UNL     1       0.727  10.048  18.622  0.00  0.00    +0.000 A 
ATOM     11  N   UNL     1       1.279  11.202  19.033  0.00  0.00    +0.000 NA
ATOM     12  C   UNL     1       0.437  14.764  19.196  0.00  0.00    +0.000 C 
ATOM     13  C   UNL     1       1.413  15.952  19.006  0.00  0.00    +0.000 C 
ENDROOT
BRANCH   8  14
ATOM     14  C   UNL     1      -2.550  11.224  17.464  0.00  0.00    +0.000 A 
ATOM     15  C   UNL     1      -3.790  11.563  18.081  0.00  0.00    +0.000 A 
ATOM     16  C   UNL     1      -4.752  11.464  17.103  0.00  0.00    +0.000 A 
ATOM     17  O   UNL     1      -4.193  11.091  15.925  0.00  0.00    +0.000 OA
ATOM     18  C   UNL     1      -2.860  10.940  16.148  0.00  0.00    +0.000 A 
ENDBRANCH   8  14
BRANCH  10  19
ATOM     19  C   UNL     1       1.533   8.851  18.790  0.00  0.00    +0.000 A 
ATOM     20  C   UNL     1       1.701   7.983  19.905  0.00  0.00    +0.000 A 
ATOM     21  C   UNL     1       2.614   7.027  19.523  0.00  0.00    +0.000 A 
ATOM     22  O   UNL     1       3.007   7.232  18.243  0.00  0.00    +0.000 OA
ATOM     23  C   UNL     1       2.350   8.337  17.803  0.00  0.00    +0.000 A 
ENDBRANCH  10  19
TORSDOF 2
ENDMDL
