MODEL 1
REMARK VINA RESULT:      -5.9      0.000      0.000
REMARK  Name = 
REMARK  20 active torsions:
REMARK  status: ('A' for Active; 'I' for Inactive)
REMARK    1  A    between atoms: C_1  and  C_2
REMARK    2  A    between atoms: C_2  and  C_3
REMARK    3  A    between atoms: C_3  and  C_4
REMARK    4  A    between atoms: C_4  and  C_5
REMARK    5  A    between atoms: C_5  and  C_6
REMARK    6  A    between atoms: C_6  and  C_7
REMARK    7  A    between atoms: C_8  and  C_9
REMARK    8  A    between atoms: C_9  and  C_10
REMARK    9  A    between atoms: C_10  and  C_11
REMARK   10  A    between atoms: C_11  and  C_12
REMARK   11  A    between atoms: C_12  and  C_13
REMARK   12  A    between atoms: C_13  and  C_14
REMARK   13  A    between atoms: C_14  and  C_15
REMARK   14  A    between atoms: C_15  and  C_16
REMARK   15  A    between atoms: C_16  and  O_18
REMARK   16  A    between atoms: O_18  and  C_19
REMARK   17  A    between atoms: C_19  and  C_20
REMARK   18  A    between atoms: C_20  and  O_21
REMARK   19  A    between atoms: C_20  and  C_22
REMARK   20  A    between atoms: C_22  and  O_23
REMARK                            x       y       z     vdW  Elec       q    Type
REMARK                         _______ _______ _______ _____ _____    ______ ____
ROOT
ATOM      1  C   UNL     1       4.125   4.488  17.326  0.00  0.00    +0.000 C 
ENDROOT
BRANCH   1   2
ATOM      2  C   UNL     1       4.661   4.070  15.963  0.00  0.00    +0.000 C 
BRANCH   2   3
ATOM      3  C   UNL     1       5.289   5.241  15.221  0.00  0.00    +0.000 C 
BRANCH   3   4
ATOM      4  C   UNL     1       6.607   4.828  14.633  0.00  0.00    +0.000 C 
ATOM      5  O   UNL     1       6.790   4.453  13.481  0.00  0.00    +0.000 OA
BRANCH   4   6
ATOM      6  O   UNL     1       7.550   4.781  15.616  0.00  0.00    +0.000 OA
BRANCH   6   7
ATOM      7  C   UNL     1       7.356   5.756  16.656  0.00  0.00    +0.000 C 
BRANCH   7   8
ATOM      8  C   UNL     1       7.527   5.066  18.022  0.00  0.00    +0.000 C 
BRANCH   8   9
ATOM      9  O   UNL     1       8.506   4.013  17.977  0.00  0.00    +0.000 OA
ATOM     10  H   UNL     1       9.301   4.311  18.466  0.00  0.00    +0.000 HD
ENDBRANCH   8   9
BRANCH   8  11
ATOM     11  C   UNL     1       7.964   6.049  19.103  0.00  0.00    +0.000 C 
BRANCH  11  12
ATOM     12  O   UNL     1       8.013   5.395  20.369  0.00  0.00    +0.000 OA
ATOM     13  H   UNL     1       8.910   5.559  20.719  0.00  0.00    +0.000 HD
ENDBRANCH  11  12
ENDBRANCH   8  11
ENDBRANCH   7   8
ENDBRANCH   6   7
ENDBRANCH   4   6
ENDBRANCH   3   4
ENDBRANCH   2   3
ENDBRANCH   1   2
BRANCH   1  14
ATOM     14  C   UNL     1       4.028   3.257  18.212  0.00  0.00    +0.000 C 
BRANCH  14  15
ATOM     15  C   UNL     1       3.301   2.108  17.523  0.00  0.00    +0.000 C 
BRANCH  15  16
ATOM     16  C   UNL     1       2.031   1.710  18.279  0.00  0.00    +0.000 C 
BRANCH  16  17
ATOM     17  C   UNL     1       1.108   2.880  18.637  0.00  0.00    +0.000 C 
BRANCH  17  19
ATOM     18  C   UNL     1       1.311   4.028  20.876  0.00  0.00    +0.000 C 
ATOM     19  C   UNL     1       0.875   3.010  20.118  0.00  0.00    +0.000 C 
BRANCH  18  20
ATOM     20  C   UNL     1       2.061   5.191  20.304  0.00  0.00    +0.000 C 
BRANCH  20  21
ATOM     21  C   UNL     1       1.388   6.524  20.585  0.00  0.00    +0.000 C 
BRANCH  21  22
ATOM     22  C   UNL     1       2.241   7.651  20.008  0.00  0.00    +0.000 C 
BRANCH  22  23
ATOM     23  C   UNL     1       2.396   7.496  18.503  0.00  0.00    +0.000 C 
BRANCH  23  25
ATOM     24  C   UNL     1       0.835   9.352  17.874  0.00  0.00    +0.000 C 
ATOM     25  C   UNL     1       2.263   8.845  17.800  0.00  0.00    +0.000 C 
ENDBRANCH  23  25
ENDBRANCH  22  23
ENDBRANCH  21  22
ENDBRANCH  20  21
ENDBRANCH  18  20
ENDBRANCH  17  19
ENDBRANCH  16  17
ENDBRANCH  15  16
ENDBRANCH  14  15
ENDBRANCH   1  14
TORSDOF 19
ENDMDL
MODEL 2
REMARK VINA RESULT:      -5.7      5.463      7.893
REMARK  Name = 
REMARK  20 active torsions:
REMARK  status: ('A' for Active; 'I' for Inactive)
REMARK    1  A    between atoms: C_1  and  C_2
REMARK    2  A    between atoms: C_2  and  C_3
REMARK    3  A    between atoms: C_3  and  C_4
REMARK    4  A    between atoms: C_4  and  C_5
REMARK    5  A    between atoms: C_5  and  C_6
REMARK    6  A    between atoms: C_6  and  C_7
REMARK    7  A    between atoms: C_8  and  C_9
REMARK    8  A    between atoms: C_9  and  C_10
REMARK    9  A    between atoms: C_10  and  C_11
REMARK   10  A    between atoms: C_11  and  C_12
REMARK   11  A    between atoms: C_12  and  C_13
REMARK   12  A    between atoms: C_13  and  C_14
REMARK   13  A    between atoms: C_14  and  C_15
REMARK   14  A    between atoms: C_15  and  C_16
REMARK   15  A    between atoms: C_16  and  O_18
REMARK   16  A    between atoms: O_18  and  C_19
REMARK   17  A    between atoms: C_19  and  C_20
REMARK   18  A    between atoms: C_20  and  O_21
REMARK   19  A    between atoms: C_20  and  C_22
REMARK   20  A    between atoms: C_22  and  O_23
REMARK                            x       y       z     vdW  Elec       q    Type
REMARK                         _______ _______ _______ _____ _____    ______ ____
ROOT
ATOM      1  C   UNL     1       7.791   7.870  18.087  0.00  0.00    +0.000 C 
ENDROOT
BRANCH   1   2
ATOM      2  C   UNL     1       8.682   8.979  18.629  0.00  0.00    +0.000 C 
BRANCH   2   3
ATOM      3  C   UNL     1       8.486  10.282  17.868  0.00  0.00    +0.000 C 
BRANCH   3   4
ATOM      4  C   UNL     1       9.556  11.264  18.248  0.00  0.00    +0.000 C 
ATOM      5  O   UNL     1      10.230  11.228  19.271  0.00  0.00    +0.000 OA
BRANCH   4   6
ATOM      6  O   UNL     1       9.563  12.298  17.360  0.00  0.00    +0.000 OA
BRANCH   6   7
ATOM      7  C   UNL     1       9.844  13.577  17.957  0.00  0.00    +0.000 C 
BRANCH   7   8
ATOM      8  C   UNL     1      11.111  14.161  17.308  0.00  0.00    +0.000 C 
BRANCH   8   9
ATOM      9  O   UNL     1      11.334  13.636  15.987  0.00  0.00    +0.000 OA
ATOM     10  H   UNL     1      11.361  12.658  16.045  0.00  0.00    +0.000 HD
ENDBRANCH   8   9
BRANCH   8  11
ATOM     11  C   UNL     1      11.040  15.680  17.188  0.00  0.00    +0.000 C 
BRANCH  11  12
ATOM     12  O   UNL     1      10.601  16.049  15.883  0.00  0.00    +0.000 OA
ATOM     13  H   UNL     1      11.360  16.500  15.465  0.00  0.00    +0.000 HD
ENDBRANCH  11  12
ENDBRANCH   8  11
ENDBRANCH   7   8
ENDBRANCH   6   7
ENDBRANCH   4   6
ENDBRANCH   3   4
ENDBRANCH   2   3
ENDBRANCH   1   2
BRANCH   1  14
ATOM     14  C   UNL     1       8.128   6.575  18.809  0.00  0.00    +0.000 C 
BRANCH  14  15
ATOM     15  C   UNL     1       7.276   5.408  18.325  0.00  0.00    +0.000 C 
BRANCH  15  16
ATOM     16  C   UNL     1       6.039   5.210  19.204  0.00  0.00    +0.000 C 
BRANCH  16  17
ATOM     17  C   UNL     1       4.702   5.365  18.469  0.00  0.00    +0.000 C 
BRANCH  17  19
ATOM     18  C   UNL     1       4.633   4.338  16.164  0.00  0.00    +0.000 C 
ATOM     19  C   UNL     1       4.441   4.253  17.490  0.00  0.00    +0.000 C 
BRANCH  18  20
ATOM     20  C   UNL     1       5.178   5.569  15.510  0.00  0.00    +0.000 C 
BRANCH  20  21
ATOM     21  C   UNL     1       6.326   5.275  14.559  0.00  0.00    +0.000 C 
BRANCH  21  22
ATOM     22  C   UNL     1       6.276   3.806  14.148  0.00  0.00    +0.000 C 
BRANCH  22  23
ATOM     23  C   UNL     1       6.505   3.654  12.651  0.00  0.00    +0.000 C 
BRANCH  23  25
ATOM     24  C   UNL     1       5.555   1.819  11.235  0.00  0.00    +0.000 C 
ATOM     25  C   UNL     1       5.254   3.118  11.960  0.00  0.00    +0.000 C 
ENDBRANCH  23  25
ENDBRANCH  22  23
ENDBRANCH  21  22
ENDBRANCH  20  21
ENDBRANCH  18  20
ENDBRANCH  17  19
ENDBRANCH  16  17
ENDBRANCH  15  16
ENDBRANCH  14  15
ENDBRANCH   1  14
TORSDOF 19
ENDMDL
MODEL 3
REMARK VINA RESULT:      -5.6      1.542      3.225
REMARK  Name = 
REMARK  20 active torsions:
REMARK  status: ('A' for Active; 'I' for Inactive)
REMARK    1  A    between atoms: C_1  and  C_2
REMARK    2  A    between atoms: C_2  and  C_3
REMARK    3  A    between atoms: C_3  and  C_4
REMARK    4  A    between atoms: C_4  and  C_5
REMARK    5  A    between atoms: C_5  and  C_6
REMARK    6  A    between atoms: C_6  and  C_7
REMARK    7  A    between atoms: C_8  and  C_9
REMARK    8  A    between atoms: C_9  and  C_10
REMARK    9  A    between atoms: C_10  and  C_11
REMARK   10  A    between atoms: C_11  and  C_12
REMARK   11  A    between atoms: C_12  and  C_13
REMARK   12  A    between atoms: C_13  and  C_14
REMARK   13  A    between atoms: C_14  and  C_15
REMARK   14  A    between atoms: C_15  and  C_16
REMARK   15  A    between atoms: C_16  and  O_18
REMARK   16  A    between atoms: O_18  and  C_19
REMARK   17  A    between atoms: C_19  and  C_20
REMARK   18  A    between atoms: C_20  and  O_21
REMARK   19  A    between atoms: C_20  and  C_22
REMARK   20  A    between atoms: C_22  and  O_23
REMARK                            x       y       z     vdW  Elec       q    Type
REMARK                         _______ _______ _______ _____ _____    ______ ____
ROOT
ATOM      1  C   UNL     1       4.535   4.115  17.917  0.00  0.00    +0.000 C 
ENDROOT
BRANCH   1   2
ATOM      2  C   UNL     1       5.013   5.473  18.415  0.00  0.00    +0.000 C 
BRANCH   2   3
ATOM      3  C   UNL     1       5.359   6.406  17.264  0.00  0.00    +0.000 C 
BRANCH   3   4
ATOM      4  C   UNL     1       6.634   5.960  16.608  0.00  0.00    +0.000 C 
ATOM      5  O   UNL     1       7.684   5.704  17.186  0.00  0.00    +0.000 OA
BRANCH   4   6
ATOM      6  O   UNL     1       6.500   6.032  15.254  0.00  0.00    +0.000 OA
BRANCH   6   7
ATOM      7  C   UNL     1       7.193   4.990  14.544  0.00  0.00    +0.000 C 
BRANCH   7   8
ATOM      8  C   UNL     1       6.178   3.906  14.138  0.00  0.00    +0.000 C 
BRANCH   8   9
ATOM      9  O   UNL     1       4.821   4.316  14.380  0.00  0.00    +0.000 OA
ATOM     10  H   UNL     1       4.401   4.516  13.518  0.00  0.00    +0.000 HD
ENDBRANCH   8   9
BRANCH   8  11
ATOM     11  C   UNL     1       6.289   3.549  12.659  0.00  0.00    +0.000 C 
BRANCH  11  12
ATOM     12  O   UNL     1       4.991   3.351  12.104  0.00  0.00    +0.000 OA
ATOM     13  H   UNL     1       4.795   4.160  11.592  0.00  0.00    +0.000 HD
ENDBRANCH  11  12
ENDBRANCH   8  11
ENDBRANCH   7   8
ENDBRANCH   6   7
ENDBRANCH   4   6
ENDBRANCH   3   4
ENDBRANCH   2   3
ENDBRANCH   1   2
BRANCH   1  14
ATOM     14  C   UNL     1       3.081   4.235  17.488  0.00  0.00    +0.000 C 
BRANCH  14  15
ATOM     15  C   UNL     1       2.426   2.874  17.288  0.00  0.00    +0.000 C 
BRANCH  15  16
ATOM     16  C   UNL     1       2.647   1.959  18.495  0.00  0.00    +0.000 C 
BRANCH  16  17
ATOM     17  C   UNL     1       1.593   2.093  19.599  0.00  0.00    +0.000 C 
BRANCH  17  19
ATOM     18  C   UNL     1       2.086   3.835  21.358  0.00  0.00    +0.000 C 
ATOM     19  C   UNL     1       2.169   2.575  20.902  0.00  0.00    +0.000 C 
BRANCH  18  20
ATOM     20  C   UNL     1       1.359   4.911  20.613  0.00  0.00    +0.000 C 
BRANCH  20  21
ATOM     21  C   UNL     1       2.155   6.202  20.511  0.00  0.00    +0.000 C 
BRANCH  21  22
ATOM     22  C   UNL     1       1.261   7.377  20.896  0.00  0.00    +0.000 C 
BRANCH  22  23
ATOM     23  C   UNL     1       1.657   8.632  20.132  0.00  0.00    +0.000 C 
BRANCH  23  25
ATOM     24  C   UNL     1       1.397   9.169  17.699  0.00  0.00    +0.000 C 
ATOM     25  C   UNL     1       2.103   8.288  18.713  0.00  0.00    +0.000 C 
ENDBRANCH  23  25
ENDBRANCH  22  23
ENDBRANCH  21  22
ENDBRANCH  20  21
ENDBRANCH  18  20
ENDBRANCH  17  19
ENDBRANCH  16  17
ENDBRANCH  15  16
ENDBRANCH  14  15
ENDBRANCH   1  14
TORSDOF 19
ENDMDL
MODEL 4
REMARK VINA RESULT:      -5.6      3.880      6.998
REMARK  Name = 
REMARK  20 active torsions:
REMARK  status: ('A' for Active; 'I' for Inactive)
REMARK    1  A    between atoms: C_1  and  C_2
REMARK    2  A    between atoms: C_2  and  C_3
REMARK    3  A    between atoms: C_3  and  C_4
REMARK    4  A    between atoms: C_4  and  C_5
REMARK    5  A    between atoms: C_5  and  C_6
REMARK    6  A    between atoms: C_6  and  C_7
REMARK    7  A    between atoms: C_8  and  C_9
REMARK    8  A    between atoms: C_9  and  C_10
REMARK    9  A    between atoms: C_10  and  C_11
REMARK   10  A    between atoms: C_11  and  C_12
REMARK   11  A    between atoms: C_12  and  C_13
REMARK   12  A    between atoms: C_13  and  C_14
REMARK   13  A    between atoms: C_14  and  C_15
REMARK   14  A    between atoms: C_15  and  C_16
REMARK   15  A    between atoms: C_16  and  O_18
REMARK   16  A    between atoms: O_18  and  C_19
REMARK   17  A    between atoms: C_19  and  C_20
REMARK   18  A    between atoms: C_20  and  O_21
REMARK   19  A    between atoms: C_20  and  C_22
REMARK   20  A    between atoms: C_22  and  O_23
REMARK                            x       y       z     vdW  Elec       q    Type
REMARK                         _______ _______ _______ _____ _____    ______ ____
ROOT
ATOM      1  C   UNL     1       1.071   4.091  20.443  0.00  0.00    +0.000 C 
ENDROOT
BRANCH   1   2
ATOM      2  C   UNL     1       1.289   5.419  19.731  0.00  0.00    +0.000 C 
BRANCH   2   3
ATOM      3  C   UNL     1       2.133   6.373  20.562  0.00  0.00    +0.000 C 
BRANCH   3   4
ATOM      4  C   UNL     1       1.547   7.754  20.511  0.00  0.00    +0.000 C 
ATOM      5  O   UNL     1       1.656   8.544  19.581  0.00  0.00    +0.000 OA
BRANCH   4   6
ATOM      6  O   UNL     1       1.004   8.063  21.723  0.00  0.00    +0.000 OA
BRANCH   6   7
ATOM      7  C   UNL     1      -0.338   8.577  21.646  0.00  0.00    +0.000 C 
BRANCH   7   8
ATOM      8  C   UNL     1      -0.458   9.796  22.577  0.00  0.00    +0.000 C 
BRANCH   8   9
ATOM      9  O   UNL     1       0.423   9.701  23.710  0.00  0.00    +0.000 OA
ATOM     10  H   UNL     1       0.250   8.850  24.164  0.00  0.00    +0.000 HD
ENDBRANCH   8   9
BRANCH   8  11
ATOM     11  C   UNL     1      -0.131  11.099  21.853  0.00  0.00    +0.000 C 
BRANCH  11  12
ATOM     12  O   UNL     1       1.236  11.105  21.450  0.00  0.00    +0.000 OA
ATOM     13  H   UNL     1       1.278  10.557  20.642  0.00  0.00    +0.000 HD
ENDBRANCH  11  12
ENDBRANCH   8  11
ENDBRANCH   7   8
ENDBRANCH   6   7
ENDBRANCH   4   6
ENDBRANCH   3   4
ENDBRANCH   2   3
ENDBRANCH   1   2
BRANCH   1  14
ATOM     14  C   UNL     1       2.237   3.845  21.387  0.00  0.00    +0.000 C 
BRANCH  14  15
ATOM     15  C   UNL     1       2.888   2.487  21.155  0.00  0.00    +0.000 C 
BRANCH  15  16
ATOM     16  C   UNL     1       3.969   2.558  20.075  0.00  0.00    +0.000 C 
BRANCH  16  17
ATOM     17  C   UNL     1       3.573   1.931  18.733  0.00  0.00    +0.000 C 
BRANCH  17  19
ATOM     18  C   UNL     1       3.570   3.800  17.035  0.00  0.00    +0.000 C 
ATOM     19  C   UNL     1       2.915   2.913  17.801  0.00  0.00    +0.000 C 
BRANCH  18  20
ATOM     20  C   UNL     1       5.065   3.879  16.999  0.00  0.00    +0.000 C 
BRANCH  20  21
ATOM     21  C   UNL     1       5.588   4.619  15.779  0.00  0.00    +0.000 C 
BRANCH  21  22
ATOM     22  C   UNL     1       6.707   5.566  16.205  0.00  0.00    +0.000 C 
BRANCH  22  23
ATOM     23  C   UNL     1       7.315   5.124  17.528  0.00  0.00    +0.000 C 
BRANCH  23  25
ATOM     24  C   UNL     1       7.672   7.602  17.590  0.00  0.00    +0.000 C 
ATOM     25  C   UNL     1       7.631   6.328  18.412  0.00  0.00    +0.000 C 
ENDBRANCH  23  25
ENDBRANCH  22  23
ENDBRANCH  21  22
ENDBRANCH  20  21
ENDBRANCH  18  20
ENDBRANCH  17  19
ENDBRANCH  16  17
ENDBRANCH  15  16
ENDBRANCH  14  15
ENDBRANCH   1  14
TORSDOF 19
ENDMDL
MODEL 5
REMARK VINA RESULT:      -5.5      3.631      7.393
REMARK  Name = 
REMARK  20 active torsions:
REMARK  status: ('A' for Active; 'I' for Inactive)
REMARK    1  A    between atoms: C_1  and  C_2
REMARK    2  A    between atoms: C_2  and  C_3
REMARK    3  A    between atoms: C_3  and  C_4
REMARK    4  A    between atoms: C_4  and  C_5
REMARK    5  A    between atoms: C_5  and  C_6
REMARK    6  A    between atoms: C_6  and  C_7
REMARK    7  A    between atoms: C_8  and  C_9
REMARK    8  A    between atoms: C_9  and  C_10
REMARK    9  A    between atoms: C_10  and  C_11
REMARK   10  A    between atoms: C_11  and  C_12
REMARK   11  A    between atoms: C_12  and  C_13
REMARK   12  A    between atoms: C_13  and  C_14
REMARK   13  A    between atoms: C_14  and  C_15
REMARK   14  A    between atoms: C_15  and  C_16
REMARK   15  A    between atoms: C_16  and  O_18
REMARK   16  A    between atoms: O_18  and  C_19
REMARK   17  A    between atoms: C_19  and  C_20
REMARK   18  A    between atoms: C_20  and  O_21
REMARK   19  A    between atoms: C_20  and  C_22
REMARK   20  A    between atoms: C_22  and  O_23
REMARK                            x       y       z     vdW  Elec       q    Type
REMARK                         _______ _______ _______ _____ _____    ______ ____
ROOT
ATOM      1  C   UNL     1       4.491   5.293  19.785  0.00  0.00    +0.000 C 
ENDROOT
BRANCH   1   2
ATOM      2  C   UNL     1       3.040   5.613  19.454  0.00  0.00    +0.000 C 
BRANCH   2   3
ATOM      3  C   UNL     1       2.146   5.514  20.681  0.00  0.00    +0.000 C 
BRANCH   3   4
ATOM      4  C   UNL     1       1.827   4.075  20.968  0.00  0.00    +0.000 C 
ATOM      5  O   UNL     1       2.242   3.426  21.920  0.00  0.00    +0.000 OA
BRANCH   4   6
ATOM      6  O   UNL     1       1.128   3.547  19.923  0.00  0.00    +0.000 OA
BRANCH   6   7
ATOM      7  C   UNL     1       1.557   2.227  19.544  0.00  0.00    +0.000 C 
BRANCH   7   8
ATOM      8  C   UNL     1       1.999   2.252  18.070  0.00  0.00    +0.000 C 
BRANCH   8   9
ATOM      9  O   UNL     1       1.678   3.500  17.430  0.00  0.00    +0.000 OA
ATOM     10  H   UNL     1       0.749   3.457  17.121  0.00  0.00    +0.000 HD
ENDBRANCH   8   9
BRANCH   8  11
ATOM     11  C   UNL     1       3.502   2.039  17.922  0.00  0.00    +0.000 C 
BRANCH  11  12
ATOM     12  O   UNL     1       3.871   0.769  18.456  0.00  0.00    +0.000 OA
ATOM     13  H   UNL     1       3.411   0.697  19.314  0.00  0.00    +0.000 HD
ENDBRANCH  11  12
ENDBRANCH   8  11
ENDBRANCH   7   8
ENDBRANCH   6   7
ENDBRANCH   4   6
ENDBRANCH   3   4
ENDBRANCH   2   3
ENDBRANCH   1   2
BRANCH   1  14
ATOM     14  C   UNL     1       5.247   5.050  18.488  0.00  0.00    +0.000 C 
BRANCH  14  15
ATOM     15  C   UNL     1       4.535   5.656  17.285  0.00  0.00    +0.000 C 
BRANCH  15  16
ATOM     16  C   UNL     1       5.524   6.281  16.299  0.00  0.00    +0.000 C 
BRANCH  16  17
ATOM     17  C   UNL     1       6.649   5.344  15.845  0.00  0.00    +0.000 C 
BRANCH  17  19
ATOM     18  C   UNL     1       6.103   3.465  14.251  0.00  0.00    +0.000 C 
ATOM     19  C   UNL     1       6.158   3.966  15.495  0.00  0.00    +0.000 C 
BRANCH  18  20
ATOM     20  C   UNL     1       6.576   4.232  13.055  0.00  0.00    +0.000 C 
BRANCH  20  21
ATOM     21  C   UNL     1       6.090   3.640  11.742  0.00  0.00    +0.000 C 
BRANCH  21  22
ATOM     22  C   UNL     1       4.965   2.647  12.023  0.00  0.00    +0.000 C 
BRANCH  22  23
ATOM     23  C   UNL     1       3.710   3.018  11.247  0.00  0.00    +0.000 C 
BRANCH  23  25
ATOM     24  C   UNL     1       2.766   4.462   9.431  0.00  0.00    +0.000 C 
ATOM     25  C   UNL     1       4.036   3.989  10.115  0.00  0.00    +0.000 C 
ENDBRANCH  23  25
ENDBRANCH  22  23
ENDBRANCH  21  22
ENDBRANCH  20  21
ENDBRANCH  18  20
ENDBRANCH  17  19
ENDBRANCH  16  17
ENDBRANCH  15  16
ENDBRANCH  14  15
ENDBRANCH   1  14
TORSDOF 19
ENDMDL
MODEL 6
REMARK VINA RESULT:      -5.5      1.795      4.176
REMARK  Name = 
REMARK  20 active torsions:
REMARK  status: ('A' for Active; 'I' for Inactive)
REMARK    1  A    between atoms: C_1  and  C_2
REMARK    2  A    between atoms: C_2  and  C_3
REMARK    3  A    between atoms: C_3  and  C_4
REMARK    4  A    between atoms: C_4  and  C_5
REMARK    5  A    between atoms: C_5  and  C_6
REMARK    6  A    between atoms: C_6  and  C_7
REMARK    7  A    between atoms: C_8  and  C_9
REMARK    8  A    between atoms: C_9  and  C_10
REMARK    9  A    between atoms: C_10  and  C_11
REMARK   10  A    between atoms: C_11  and  C_12
REMARK   11  A    between atoms: C_12  and  C_13
REMARK   12  A    between atoms: C_13  and  C_14
REMARK   13  A    between atoms: C_14  and  C_15
REMARK   14  A    between atoms: C_15  and  C_16
REMARK   15  A    between atoms: C_16  and  O_18
REMARK   16  A    between atoms: O_18  and  C_19
REMARK   17  A    between atoms: C_19  and  C_20
REMARK   18  A    between atoms: C_20  and  O_21
REMARK   19  A    between atoms: C_20  and  C_22
REMARK   20  A    between atoms: C_22  and  O_23
REMARK                            x       y       z     vdW  Elec       q    Type
REMARK                         _______ _______ _______ _____ _____    ______ ____
ROOT
ATOM      1  C   UNL     1       7.439   5.397  18.004  0.00  0.00    +0.000 C 
ENDROOT
BRANCH   1   2
ATOM      2  C   UNL     1       6.968   6.689  17.350  0.00  0.00    +0.000 C 
BRANCH   2   3
ATOM      3  C   UNL     1       5.974   6.423  16.229  0.00  0.00    +0.000 C 
BRANCH   3   4
ATOM      4  C   UNL     1       6.592   5.523  15.199  0.00  0.00    +0.000 C 
ATOM      5  O   UNL     1       7.743   5.595  14.784  0.00  0.00    +0.000 OA
BRANCH   4   6
ATOM      6  O   UNL     1       5.636   4.705  14.675  0.00  0.00    +0.000 OA
BRANCH   6   7
ATOM      7  C   UNL     1       6.160   3.514  14.062  0.00  0.00    +0.000 C 
BRANCH   7   8
ATOM      8  C   UNL     1       6.038   3.647  12.533  0.00  0.00    +0.000 C 
BRANCH   8   9
ATOM      9  O   UNL     1       7.200   4.262  11.948  0.00  0.00    +0.000 OA
ATOM     10  H   UNL     1       7.803   3.552  11.643  0.00  0.00    +0.000 HD
ENDBRANCH   8   9
BRANCH   8  11
ATOM     11  C   UNL     1       5.852   2.292  11.858  0.00  0.00    +0.000 C 
BRANCH  11  12
ATOM     12  O   UNL     1       7.097   1.827  11.341  0.00  0.00    +0.000 OA
ATOM     13  H   UNL     1       7.307   2.412  10.587  0.00  0.00    +0.000 HD
ENDBRANCH  11  12
ENDBRANCH   8  11
ENDBRANCH   7   8
ENDBRANCH   6   7
ENDBRANCH   4   6
ENDBRANCH   3   4
ENDBRANCH   2   3
ENDBRANCH   1   2
BRANCH   1  14
ATOM     14  C   UNL     1       6.714   5.226  19.330  0.00  0.00    +0.000 C 
BRANCH  14  15
ATOM     15  C   UNL     1       5.202   5.160  19.153  0.00  0.00    +0.000 C 
BRANCH  15  16
ATOM     16  C   UNL     1       4.776   3.894  18.407  0.00  0.00    +0.000 C 
BRANCH  16  17
ATOM     17  C   UNL     1       3.485   4.036  17.594  0.00  0.00    +0.000 C 
BRANCH  17  19
ATOM     18  C   UNL     1       2.165   2.128  18.591  0.00  0.00    +0.000 C 
ATOM     19  C   UNL     1       2.692   2.760  17.529  0.00  0.00    +0.000 C 
BRANCH  18  20
ATOM     20  C   UNL     1       2.283   2.666  19.983  0.00  0.00    +0.000 C 
BRANCH  20  21
ATOM     21  C   UNL     1       1.210   3.691  20.314  0.00  0.00    +0.000 C 
BRANCH  21  22
ATOM     22  C   UNL     1       1.867   4.936  20.902  0.00  0.00    +0.000 C 
BRANCH  22  23
ATOM     23  C   UNL     1       1.264   6.199  20.307  0.00  0.00    +0.000 C 
BRANCH  23  25
ATOM     24  C   UNL     1       2.362   7.386  18.394  0.00  0.00    +0.000 C 
ATOM     25  C   UNL     1       2.356   7.185  19.898  0.00  0.00    +0.000 C 
ENDBRANCH  23  25
ENDBRANCH  22  23
ENDBRANCH  21  22
ENDBRANCH  20  21
ENDBRANCH  18  20
ENDBRANCH  17  19
ENDBRANCH  16  17
ENDBRANCH  15  16
ENDBRANCH  14  15
ENDBRANCH   1  14
TORSDOF 19
ENDMDL
MODEL 7
REMARK VINA RESULT:      -5.5      2.494      4.802
REMARK  Name = 
REMARK  20 active torsions:
REMARK  status: ('A' for Active; 'I' for Inactive)
REMARK    1  A    between atoms: C_1  and  C_2
REMARK    2  A    between atoms: C_2  and  C_3
REMARK    3  A    between atoms: C_3  and  C_4
REMARK    4  A    between atoms: C_4  and  C_5
REMARK    5  A    between atoms: C_5  and  C_6
REMARK    6  A    between atoms: C_6  and  C_7
REMARK    7  A    between atoms: C_8  and  C_9
REMARK    8  A    between atoms: C_9  and  C_10
REMARK    9  A    between atoms: C_10  and  C_11
REMARK   10  A    between atoms: C_11  and  C_12
REMARK   11  A    between atoms: C_12  and  C_13
REMARK   12  A    between atoms: C_13  and  C_14
REMARK   13  A    between atoms: C_14  and  C_15
REMARK   14  A    between atoms: C_15  and  C_16
REMARK   15  A    between atoms: C_16  and  O_18
REMARK   16  A    between atoms: O_18  and  C_19
REMARK   17  A    between atoms: C_19  and  C_20
REMARK   18  A    between atoms: C_20  and  O_21
REMARK   19  A    between atoms: C_20  and  C_22
REMARK   20  A    between atoms: C_22  and  O_23
REMARK                            x       y       z     vdW  Elec       q    Type
REMARK                         _______ _______ _______ _____ _____    ______ ____
ROOT
ATOM      1  C   UNL     1       1.167   3.131  18.787  0.00  0.00    +0.000 C 
ENDROOT
BRANCH   1   2
ATOM      2  C   UNL     1       2.222   2.033  18.795  0.00  0.00    +0.000 C 
BRANCH   2   3
ATOM      3  C   UNL     1       3.587   2.559  18.377  0.00  0.00    +0.000 C 
BRANCH   3   4
ATOM      4  C   UNL     1       4.477   2.688  19.578  0.00  0.00    +0.000 C 
ATOM      5  O   UNL     1       4.212   2.301  20.710  0.00  0.00    +0.000 OA
BRANCH   4   6
ATOM      6  O   UNL     1       5.567   3.442  19.260  0.00  0.00    +0.000 OA
BRANCH   6   7
ATOM      7  C   UNL     1       5.255   4.810  18.939  0.00  0.00    +0.000 C 
BRANCH   7   8
ATOM      8  C   UNL     1       5.917   5.169  17.596  0.00  0.00    +0.000 C 
BRANCH   8   9
ATOM      9  O   UNL     1       5.020   5.878  16.723  0.00  0.00    +0.000 OA
ATOM     10  H   UNL     1       4.143   5.930  17.158  0.00  0.00    +0.000 HD
ENDBRANCH   8   9
BRANCH   8  11
ATOM     11  C   UNL     1       7.151   6.044  17.788  0.00  0.00    +0.000 C 
BRANCH  11  12
ATOM     12  O   UNL     1       7.579   6.570  16.534  0.00  0.00    +0.000 OA
ATOM     13  H   UNL     1       7.371   5.882  15.872  0.00  0.00    +0.000 HD
ENDBRANCH  11  12
ENDBRANCH   8  11
ENDBRANCH   7   8
ENDBRANCH   6   7
ENDBRANCH   4   6
ENDBRANCH   3   4
ENDBRANCH   2   3
ENDBRANCH   1   2
BRANCH   1  14
ATOM     14  C   UNL     1       0.951   3.613  20.213  0.00  0.00    +0.000 C 
BRANCH  14  15
ATOM     15  C   UNL     1       1.588   4.975  20.462  0.00  0.00    +0.000 C 
BRANCH  15  16
ATOM     16  C   UNL     1       1.884   5.707  19.152  0.00  0.00    +0.000 C 
BRANCH  16  17
ATOM     17  C   UNL     1       2.446   7.123  19.324  0.00  0.00    +0.000 C 
BRANCH  17  19
ATOM     18  C   UNL     1       1.686   9.082  17.925  0.00  0.00    +0.000 C 
ATOM     19  C   UNL     1       2.376   7.938  18.062  0.00  0.00    +0.000 C 
BRANCH  18  20
ATOM     20  C   UNL     1       0.928   9.702  19.058  0.00  0.00    +0.000 C 
BRANCH  20  21
ATOM     21  C   UNL     1      -0.030  10.790  18.603  0.00  0.00    +0.000 C 
BRANCH  21  22
ATOM     22  C   UNL     1      -1.246  10.147  17.942  0.00  0.00    +0.000 C 
BRANCH  22  23
ATOM     23  C   UNL     1      -2.419  11.116  17.906  0.00  0.00    +0.000 C 
BRANCH  23  25
ATOM     24  C   UNL     1      -4.681  11.430  16.878  0.00  0.00    +0.000 C 
ATOM     25  C   UNL     1      -3.282  10.881  16.669  0.00  0.00    +0.000 C 
ENDBRANCH  23  25
ENDBRANCH  22  23
ENDBRANCH  21  22
ENDBRANCH  20  21
ENDBRANCH  18  20
ENDBRANCH  17  19
ENDBRANCH  16  17
ENDBRANCH  15  16
ENDBRANCH  14  15
ENDBRANCH   1  14
TORSDOF 19
ENDMDL
MODEL 8
REMARK VINA RESULT:      -5.4      1.085      1.754
REMARK  Name = 
REMARK  20 active torsions:
REMARK  status: ('A' for Active; 'I' for Inactive)
REMARK    1  A    between atoms: C_1  and  C_2
REMARK    2  A    between atoms: C_2  and  C_3
REMARK    3  A    between atoms: C_3  and  C_4
REMARK    4  A    between atoms: C_4  and  C_5
REMARK    5  A    between atoms: C_5  and  C_6
REMARK    6  A    between atoms: C_6  and  C_7
REMARK    7  A    between atoms: C_8  and  C_9
REMARK    8  A    between atoms: C_9  and  C_10
REMARK    9  A    between atoms: C_10  and  C_11
REMARK   10  A    between atoms: C_11  and  C_12
REMARK   11  A    between atoms: C_12  and  C_13
REMARK   12  A    between atoms: C_13  and  C_14
REMARK   13  A    between atoms: C_14  and  C_15
REMARK   14  A    between atoms: C_15  and  C_16
REMARK   15  A    between atoms: C_16  and  O_18
REMARK   16  A    between atoms: O_18  and  C_19
REMARK   17  A    between atoms: C_19  and  C_20
REMARK   18  A    between atoms: C_20  and  O_21
REMARK   19  A    between atoms: C_20  and  C_22
REMARK   20  A    between atoms: C_22  and  O_23
REMARK                            x       y       z     vdW  Elec       q    Type
REMARK                         _______ _______ _______ _____ _____    ______ ____
ROOT
ATOM      1  C   UNL     1       4.214   3.707  17.742  0.00  0.00    +0.000 C 
ENDROOT
BRANCH   1   2
ATOM      2  C   UNL     1       4.266   4.032  16.255  0.00  0.00    +0.000 C 
BRANCH   2   3
ATOM      3  C   UNL     1       5.673   3.888  15.695  0.00  0.00    +0.000 C 
BRANCH   3   4
ATOM      4  C   UNL     1       6.190   5.227  15.254  0.00  0.00    +0.000 C 
ATOM      5  O   UNL     1       5.688   5.939  14.393  0.00  0.00    +0.000 OA
BRANCH   4   6
ATOM      6  O   UNL     1       7.394   5.468  15.845  0.00  0.00    +0.000 OA
BRANCH   6   7
ATOM      7  C   UNL     1       7.302   6.211  17.074  0.00  0.00    +0.000 C 
BRANCH   7   8
ATOM      8  C   UNL     1       7.446   5.236  18.257  0.00  0.00    +0.000 C 
BRANCH   8   9
ATOM      9  O   UNL     1       8.343   4.152  17.958  0.00  0.00    +0.000 OA
ATOM     10  H   UNL     1       8.042   3.360  18.450  0.00  0.00    +0.000 HD
ENDBRANCH   8   9
BRANCH   8  11
ATOM     11  C   UNL     1       7.973   5.933  19.507  0.00  0.00    +0.000 C 
BRANCH  11  12
ATOM     12  O   UNL     1       8.752   5.025  20.282  0.00  0.00    +0.000 OA
ATOM     13  H   UNL     1       8.447   5.133  21.204  0.00  0.00    +0.000 HD
ENDBRANCH  11  12
ENDBRANCH   8  11
ENDBRANCH   7   8
ENDBRANCH   6   7
ENDBRANCH   4   6
ENDBRANCH   3   4
ENDBRANCH   2   3
ENDBRANCH   1   2
BRANCH   1  14
ATOM     14  C   UNL     1       3.630   2.314  17.918  0.00  0.00    +0.000 C 
BRANCH  14  15
ATOM     15  C   UNL     1       2.378   2.322  18.787  0.00  0.00    +0.000 C 
BRANCH  15  16
ATOM     16  C   UNL     1       1.569   3.606  18.599  0.00  0.00    +0.000 C 
BRANCH  16  17
ATOM     17  C   UNL     1       1.105   4.265  19.903  0.00  0.00    +0.000 C 
BRANCH  17  19
ATOM     18  C   UNL     1       2.755   6.173  20.007  0.00  0.00    +0.000 C 
ATOM     19  C   UNL     1       2.180   5.091  20.555  0.00  0.00    +0.000 C 
BRANCH  18  20
ATOM     20  C   UNL     1       2.347   6.706  18.669  0.00  0.00    +0.000 C 
BRANCH  20  21
ATOM     21  C   UNL     1       2.092   8.205  18.682  0.00  0.00    +0.000 C 
BRANCH  21  22
ATOM     22  C   UNL     1       1.343   8.577  19.958  0.00  0.00    +0.000 C 
BRANCH  22  23
ATOM     23  C   UNL     1       0.722   9.961  19.837  0.00  0.00    +0.000 C 
BRANCH  23  25
ATOM     24  C   UNL     1      -1.255  10.201  18.317  0.00  0.00    +0.000 C 
ATOM     25  C   UNL     1       0.260  10.228  18.407  0.00  0.00    +0.000 C 
ENDBRANCH  23  25
ENDBRANCH  22  23
ENDBRANCH  21  22
ENDBRANCH  20  21
ENDBRANCH  18  20
ENDBRANCH  17  19
ENDBRANCH  16  17
ENDBRANCH  15  16
ENDBRANCH  14  15
ENDBRANCH   1  14
TORSDOF 19
ENDMDL
MODEL 9
REMARK VINA RESULT:      -5.4      3.558      6.383
REMARK  Name = 
REMARK  20 active torsions:
REMARK  status: ('A' for Active; 'I' for Inactive)
REMARK    1  A    between atoms: C_1  and  C_2
REMARK    2  A    between atoms: C_2  and  C_3
REMARK    3  A    between atoms: C_3  and  C_4
REMARK    4  A    between atoms: C_4  and  C_5
REMARK    5  A    between atoms: C_5  and  C_6
REMARK    6  A    between atoms: C_6  and  C_7
REMARK    7  A    between atoms: C_8  and  C_9
REMARK    8  A    between atoms: C_9  and  C_10
REMARK    9  A    between atoms: C_10  and  C_11
REMARK   10  A    between atoms: C_11  and  C_12
REMARK   11  A    between atoms: C_12  and  C_13
REMARK   12  A    between atoms: C_13  and  C_14
REMARK   13  A    between atoms: C_14  and  C_15
REMARK   14  A    between atoms: C_15  and  C_16
REMARK   15  A    between atoms: C_16  and  O_18
REMARK   16  A    between atoms: O_18  and  C_19
REMARK   17  A    between atoms: C_19  and  C_20
REMARK   18  A    between atoms: C_20  and  O_21
REMARK   19  A    between atoms: C_20  and  C_22
REMARK   20  A    between atoms: C_22  and  O_23
REMARK                            x       y       z     vdW  Elec       q    Type
REMARK                         _______ _______ _______ _____ _____    ______ ____
ROOT
ATOM      1  C   UNL     1       5.330   6.663  18.033  0.00  0.00    +0.000 C 
ENDROOT
BRANCH   1   2
ATOM      2  C   UNL     1       4.133   7.346  17.385  0.00  0.00    +0.000 C 
BRANCH   2   3
ATOM      3  C   UNL     1       2.857   7.122  18.181  0.00  0.00    +0.000 C 
BRANCH   3   4
ATOM      4  C   UNL     1       2.099   8.411  18.310  0.00  0.00    +0.000 C 
ATOM      5  O   UNL     1       2.071   9.311  17.478  0.00  0.00    +0.000 OA
BRANCH   4   6
ATOM      6  O   UNL     1       1.568   8.505  19.562  0.00  0.00    +0.000 OA
BRANCH   6   7
ATOM      7  C   UNL     1       0.739   9.665  19.757  0.00  0.00    +0.000 C 
BRANCH   7   8
ATOM      8  C   UNL     1      -0.055   9.495  21.065  0.00  0.00    +0.000 C 
BRANCH   8   9
ATOM      9  O   UNL     1      -0.365   8.116  21.335  0.00  0.00    +0.000 OA
ATOM     10  H   UNL     1      -0.665   7.700  20.500  0.00  0.00    +0.000 HD
ENDBRANCH   8   9
BRANCH   8  11
ATOM     11  C   UNL     1       0.711  10.034  22.269  0.00  0.00    +0.000 C 
BRANCH  11  12
ATOM     12  O   UNL     1       1.854   9.221  22.527  0.00  0.00    +0.000 OA
ATOM     13  H   UNL     1       1.506   8.335  22.748  0.00  0.00    +0.000 HD
ENDBRANCH  11  12
ENDBRANCH   8  11
ENDBRANCH   7   8
ENDBRANCH   6   7
ENDBRANCH   4   6
ENDBRANCH   3   4
ENDBRANCH   2   3
ENDBRANCH   1   2
BRANCH   1  14
ATOM     14  C   UNL     1       6.583   7.024  17.251  0.00  0.00    +0.000 C 
BRANCH  14  15
ATOM     15  C   UNL     1       7.295   5.793  16.704  0.00  0.00    +0.000 C 
BRANCH  15  16
ATOM     16  C   UNL     1       6.483   5.117  15.597  0.00  0.00    +0.000 C 
BRANCH  16  17
ATOM     17  C   UNL     1       5.822   3.796  16.005  0.00  0.00    +0.000 C 
BRANCH  17  19
ATOM     18  C   UNL     1       3.589   3.601  17.169  0.00  0.00    +0.000 C 
ATOM     19  C   UNL     1       4.322   3.892  16.082  0.00  0.00    +0.000 C 
BRANCH  18  20
ATOM     20  C   UNL     1       4.209   3.176  18.463  0.00  0.00    +0.000 C 
BRANCH  20  21
ATOM     21  C   UNL     1       3.573   1.922  19.041  0.00  0.00    +0.000 C 
BRANCH  21  22
ATOM     22  C   UNL     1       2.054   2.063  18.998  0.00  0.00    +0.000 C 
BRANCH  22  23
ATOM     23  C   UNL     1       1.524   2.619  20.311  0.00  0.00    +0.000 C 
BRANCH  23  25
ATOM     24  C   UNL     1       1.861   5.031  20.895  0.00  0.00    +0.000 C 
ATOM     25  C   UNL     1       1.002   4.042  20.129  0.00  0.00    +0.000 C 
ENDBRANCH  23  25
ENDBRANCH  22  23
ENDBRANCH  21  22
ENDBRANCH  20  21
ENDBRANCH  18  20
ENDBRANCH  17  19
ENDBRANCH  16  17
ENDBRANCH  15  16
ENDBRANCH  14  15
ENDBRANCH   1  14
TORSDOF 19
ENDMDL
