MODEL 1
REMARK VINA RESULT:      -6.8      0.000      0.000
REMARK  Name = 
REMARK  4 active torsions:
REMARK  status: ('A' for Active; 'I' for Inactive)
REMARK    1  A    between atoms: C_2  and  C_3
REMARK    2  A    between atoms: C_2  and  C_12
REMARK    3  A    between atoms: C_3  and  S_4
REMARK    4  A    between atoms: S_4  and  C_5
REMARK                            x       y       z     vdW  Elec       q    Type
REMARK                         _______ _______ _______ _____ _____    ______ ____
ROOT
ATOM      1  O   UNL     1       5.096   5.451  19.087  0.00  0.00    +0.000 OA
ATOM      2  C   UNL     1       4.146   5.634  18.326  0.00  0.00    +0.000 C 
ENDROOT
BRANCH   2   3
ATOM      3  C   UNL     1       3.212   6.764  18.632  0.00  0.00    +0.000 A 
ATOM      4  C   UNL     1       2.564   6.764  19.877  0.00  0.00    +0.000 A 
ATOM      5  C   UNL     1       1.674   7.784  20.219  0.00  0.00    +0.000 A 
ATOM      6  C   UNL     1       1.424   8.812  19.314  0.00  0.00    +0.000 A 
ATOM      7 CL   UNL     1       0.323  10.065  19.729  0.00  0.00    +0.000 Cl
ATOM      8  C   UNL     1       2.061   8.828  18.074  0.00  0.00    +0.000 A 
ATOM      9  C   UNL     1       2.956   7.806  17.729  0.00  0.00    +0.000 A 
ENDBRANCH   2   3
BRANCH   2  10
ATOM     10  C   UNL     1       3.856   4.774  17.106  0.00  0.00    +0.000 C 
BRANCH  10  11
ATOM     11  S   UNL     1       3.837   2.998  17.535  0.00  0.00    +0.000 S 
BRANCH  11  12
ATOM     12  C   UNL     1       2.967   2.929  19.111  0.00  0.00    +0.000 A 
ATOM     13  C   UNL     1       1.599   3.280  19.050  0.00  0.00    +0.000 A 
ATOM     14  C   UNL     1       0.798   3.260  20.189  0.00  0.00    +0.000 A 
ATOM     15  C   UNL     1       1.342   2.886  21.405  0.00  0.00    +0.000 A 
ATOM     16  C   UNL     1       2.690   2.549  21.468  0.00  0.00    +0.000 A 
ATOM     17  N   UNL     1       3.519   2.567  20.347  0.00  0.00    +0.000 N 
ATOM     18  O   UNL     1       4.744   2.251  20.510  0.00  0.00    +0.000 OA
ENDBRANCH  11  12
ENDBRANCH  10  11
ENDBRANCH   2  10
TORSDOF 4
ENDMDL
MODEL 2
REMARK VINA RESULT:      -6.8      4.063      5.535
REMARK  Name = 
REMARK  4 active torsions:
REMARK  status: ('A' for Active; 'I' for Inactive)
REMARK    1  A    between atoms: C_2  and  C_3
REMARK    2  A    between atoms: C_2  and  C_12
REMARK    3  A    between atoms: C_3  and  S_4
REMARK    4  A    between atoms: S_4  and  C_5
REMARK                            x       y       z     vdW  Elec       q    Type
REMARK                         _______ _______ _______ _____ _____    ______ ____
ROOT
ATOM      1  O   UNL     1       7.578   6.705  16.711  0.00  0.00    +0.000 OA
ATOM      2  C   UNL     1       7.164   5.546  16.734  0.00  0.00    +0.000 C 
ENDROOT
BRANCH   2   3
ATOM      3  C   UNL     1       6.757   4.923  15.434  0.00  0.00    +0.000 A 
ATOM      4  C   UNL     1       5.619   4.103  15.425  0.00  0.00    +0.000 A 
ATOM      5  C   UNL     1       5.193   3.485  14.246  0.00  0.00    +0.000 A 
ATOM      6  C   UNL     1       5.908   3.684  13.068  0.00  0.00    +0.000 A 
ATOM      7 CL   UNL     1       5.391   2.919  11.618  0.00  0.00    +0.000 Cl
ATOM      8  C   UNL     1       7.040   4.497  13.061  0.00  0.00    +0.000 A 
ATOM      9  C   UNL     1       7.468   5.119  14.241  0.00  0.00    +0.000 A 
ENDBRANCH   2   3
BRANCH   2  10
ATOM     10  C   UNL     1       7.025   4.717  18.001  0.00  0.00    +0.000 C 
BRANCH  10  11
ATOM     11  S   UNL     1       5.696   5.363  19.075  0.00  0.00    +0.000 S 
BRANCH  11  12
ATOM     12  C   UNL     1       4.306   4.255  18.780  0.00  0.00    +0.000 A 
ATOM     13  C   UNL     1       3.284   4.788  17.962  0.00  0.00    +0.000 A 
ATOM     14  C   UNL     1       2.155   4.040  17.639  0.00  0.00    +0.000 A 
ATOM     15  C   UNL     1       2.025   2.749  18.121  0.00  0.00    +0.000 A 
ATOM     16  C   UNL     1       3.026   2.226  18.933  0.00  0.00    +0.000 A 
ATOM     17  N   UNL     1       4.164   2.953  19.280  0.00  0.00    +0.000 N 
ATOM     18  O   UNL     1       5.019   2.388  20.039  0.00  0.00    +0.000 OA
ENDBRANCH  11  12
ENDBRANCH  10  11
ENDBRANCH   2  10
TORSDOF 4
ENDMDL
MODEL 3
REMARK VINA RESULT:      -6.7      2.723      4.328
REMARK  Name = 
REMARK  4 active torsions:
REMARK  status: ('A' for Active; 'I' for Inactive)
REMARK    1  A    between atoms: C_2  and  C_3
REMARK    2  A    between atoms: C_2  and  C_12
REMARK    3  A    between atoms: C_3  and  S_4
REMARK    4  A    between atoms: S_4  and  C_5
REMARK                            x       y       z     vdW  Elec       q    Type
REMARK                         _______ _______ _______ _____ _____    ______ ____
ROOT
ATOM      1  O   UNL     1       1.789   3.504  17.118  0.00  0.00    +0.000 OA
ATOM      2  C   UNL     1       2.728   4.057  17.691  0.00  0.00    +0.000 C 
ENDROOT
BRANCH   2   3
ATOM      3  C   UNL     1       2.413   5.199  18.608  0.00  0.00    +0.000 A 
ATOM      4  C   UNL     1       1.923   4.898  19.888  0.00  0.00    +0.000 A 
ATOM      5  C   UNL     1       1.601   5.918  20.787  0.00  0.00    +0.000 A 
ATOM      6  C   UNL     1       1.766   7.247  20.408  0.00  0.00    +0.000 A 
ATOM      7 CL   UNL     1       1.364   8.504  21.509  0.00  0.00    +0.000 Cl
ATOM      8  C   UNL     1       2.253   7.562  19.141  0.00  0.00    +0.000 A 
ATOM      9  C   UNL     1       2.578   6.540  18.237  0.00  0.00    +0.000 A 
ENDBRANCH   2   3
BRANCH   2  10
ATOM     10  C   UNL     1       4.186   3.662  17.511  0.00  0.00    +0.000 C 
BRANCH  10  11
ATOM     11  S   UNL     1       5.154   3.991  19.025  0.00  0.00    +0.000 S 
BRANCH  11  12
ATOM     12  C   UNL     1       6.240   5.355  18.573  0.00  0.00    +0.000 A 
ATOM     13  C   UNL     1       5.870   6.045  17.396  0.00  0.00    +0.000 A 
ATOM     14  C   UNL     1       6.611   7.129  16.932  0.00  0.00    +0.000 A 
ATOM     15  C   UNL     1       7.728   7.548  17.633  0.00  0.00    +0.000 A 
ATOM     16  C   UNL     1       8.099   6.864  18.787  0.00  0.00    +0.000 A 
ATOM     17  N   UNL     1       7.382   5.771  19.271  0.00  0.00    +0.000 N 
ATOM     18  O   UNL     1       7.810   5.205  20.331  0.00  0.00    +0.000 OA
ENDBRANCH  11  12
ENDBRANCH  10  11
ENDBRANCH   2  10
TORSDOF 4
ENDMDL
MODEL 4
REMARK VINA RESULT:      -6.7      3.644      5.005
REMARK  Name = 
REMARK  4 active torsions:
REMARK  status: ('A' for Active; 'I' for Inactive)
REMARK    1  A    between atoms: C_2  and  C_3
REMARK    2  A    between atoms: C_2  and  C_12
REMARK    3  A    between atoms: C_3  and  S_4
REMARK    4  A    between atoms: S_4  and  C_5
REMARK                            x       y       z     vdW  Elec       q    Type
REMARK                         _______ _______ _______ _____ _____    ______ ____
ROOT
ATOM      1  O   UNL     1       5.503   3.619  19.182  0.00  0.00    +0.000 OA
ATOM      2  C   UNL     1       5.377   4.635  18.497  0.00  0.00    +0.000 C 
ENDROOT
BRANCH   2   3
ATOM      3  C   UNL     1       5.746   4.552  17.049  0.00  0.00    +0.000 A 
ATOM      4  C   UNL     1       7.041   4.945  16.677  0.00  0.00    +0.000 A 
ATOM      5  C   UNL     1       7.445   4.901  15.340  0.00  0.00    +0.000 A 
ATOM      6  C   UNL     1       6.551   4.464  14.365  0.00  0.00    +0.000 A 
ATOM      7 CL   UNL     1       7.043   4.416  12.719  0.00  0.00    +0.000 Cl
ATOM      8  C   UNL     1       5.263   4.069  14.719  0.00  0.00    +0.000 A 
ATOM      9  C   UNL     1       4.856   4.111  16.060  0.00  0.00    +0.000 A 
ENDBRANCH   2   3
BRANCH   2  10
ATOM     10  C   UNL     1       4.884   5.968  19.038  0.00  0.00    +0.000 C 
BRANCH  10  11
ATOM     11  S   UNL     1       3.123   6.238  18.635  0.00  0.00    +0.000 S 
BRANCH  11  12
ATOM     12  C   UNL     1       2.282   4.805  19.328  0.00  0.00    +0.000 A 
ATOM     13  C   UNL     1       2.425   4.649  20.725  0.00  0.00    +0.000 A 
ATOM     14  C   UNL     1       1.819   3.592  21.400  0.00  0.00    +0.000 A 
ATOM     15  C   UNL     1       1.057   2.676  20.697  0.00  0.00    +0.000 A 
ATOM     16  C   UNL     1       0.921   2.823  19.320  0.00  0.00    +0.000 A 
ATOM     17  N   UNL     1       1.522   3.866  18.616  0.00  0.00    +0.000 N 
ATOM     18  O   UNL     1       1.346   3.907  17.354  0.00  0.00    +0.000 OA
ENDBRANCH  11  12
ENDBRANCH  10  11
ENDBRANCH   2  10
TORSDOF 4
ENDMDL
MODEL 5
REMARK VINA RESULT:      -6.7      3.655      5.005
REMARK  Name = 
REMARK  4 active torsions:
REMARK  status: ('A' for Active; 'I' for Inactive)
REMARK    1  A    between atoms: C_2  and  C_3
REMARK    2  A    between atoms: C_2  and  C_12
REMARK    3  A    between atoms: C_3  and  S_4
REMARK    4  A    between atoms: S_4  and  C_5
REMARK                            x       y       z     vdW  Elec       q    Type
REMARK                         _______ _______ _______ _____ _____    ______ ____
ROOT
ATOM      1  O   UNL     1       5.525   3.676  19.169  0.00  0.00    +0.000 OA
ATOM      2  C   UNL     1       5.396   4.682  18.471  0.00  0.00    +0.000 C 
ENDROOT
BRANCH   2   3
ATOM      3  C   UNL     1       5.803   4.592  17.033  0.00  0.00    +0.000 A 
ATOM      4  C   UNL     1       4.873   4.079  16.116  0.00  0.00    +0.000 A 
ATOM      5  C   UNL     1       5.195   3.960  14.762  0.00  0.00    +0.000 A 
ATOM      6  C   UNL     1       6.454   4.354  14.317  0.00  0.00    +0.000 A 
ATOM      7 CL   UNL     1       6.856   4.201  12.653  0.00  0.00    +0.000 Cl
ATOM      8  C   UNL     1       7.389   4.866  15.215  0.00  0.00    +0.000 A 
ATOM      9  C   UNL     1       7.067   4.988  16.574  0.00  0.00    +0.000 A 
ENDBRANCH   2   3
BRANCH   2  10
ATOM     10  C   UNL     1       4.864   6.012  18.984  0.00  0.00    +0.000 C 
BRANCH  10  11
ATOM     11  S   UNL     1       3.105   6.237  18.545  0.00  0.00    +0.000 S 
BRANCH  11  12
ATOM     12  C   UNL     1       2.275   4.818  19.283  0.00  0.00    +0.000 A 
ATOM     13  C   UNL     1       2.447   4.690  20.680  0.00  0.00    +0.000 A 
ATOM     14  C   UNL     1       1.853   3.648  21.387  0.00  0.00    +0.000 A 
ATOM     15  C   UNL     1       1.075   2.719  20.718  0.00  0.00    +0.000 A 
ATOM     16  C   UNL     1       0.913   2.839  19.341  0.00  0.00    +0.000 A 
ATOM     17  N   UNL     1       1.501   3.867  18.605  0.00  0.00    +0.000 N 
ATOM     18  O   UNL     1       1.300   3.883  17.346  0.00  0.00    +0.000 OA
ENDBRANCH  11  12
ENDBRANCH  10  11
ENDBRANCH   2  10
TORSDOF 4
ENDMDL
MODEL 6
REMARK VINA RESULT:      -6.6      0.951      1.466
REMARK  Name = 
REMARK  4 active torsions:
REMARK  status: ('A' for Active; 'I' for Inactive)
REMARK    1  A    between atoms: C_2  and  C_3
REMARK    2  A    between atoms: C_2  and  C_12
REMARK    3  A    between atoms: C_3  and  S_4
REMARK    4  A    between atoms: S_4  and  C_5
REMARK                            x       y       z     vdW  Elec       q    Type
REMARK                         _______ _______ _______ _____ _____    ______ ____
ROOT
ATOM      1  O   UNL     1       4.745   6.778  16.188  0.00  0.00    +0.000 OA
ATOM      2  C   UNL     1       4.374   6.288  17.255  0.00  0.00    +0.000 C 
ENDROOT
BRANCH   2   3
ATOM      3  C   UNL     1       3.367   7.050  18.061  0.00  0.00    +0.000 A 
ATOM      4  C   UNL     1       2.779   8.183  17.479  0.00  0.00    +0.000 A 
ATOM      5  C   UNL     1       1.840   8.942  18.182  0.00  0.00    +0.000 A 
ATOM      6  C   UNL     1       1.486   8.571  19.477  0.00  0.00    +0.000 A 
ATOM      7 CL   UNL     1       0.337   9.507  20.347  0.00  0.00    +0.000 Cl
ATOM      8  C   UNL     1       2.060   7.447  20.068  0.00  0.00    +0.000 A 
ATOM      9  C   UNL     1       3.001   6.683  19.364  0.00  0.00    +0.000 A 
ENDBRANCH   2   3
BRANCH   2  10
ATOM     10  C   UNL     1       4.886   4.968  17.809  0.00  0.00    +0.000 C 
BRANCH  10  11
ATOM     11  S   UNL     1       3.740   3.598  17.424  0.00  0.00    +0.000 S 
BRANCH  11  12
ATOM     12  C   UNL     1       2.931   3.238  18.992  0.00  0.00    +0.000 A 
ATOM     13  C   UNL     1       1.550   3.534  19.030  0.00  0.00    +0.000 A 
ATOM     14  C   UNL     1       0.792   3.296  20.174  0.00  0.00    +0.000 A 
ATOM     15  C   UNL     1       1.394   2.756  21.297  0.00  0.00    +0.000 A 
ATOM     16  C   UNL     1       2.755   2.473  21.264  0.00  0.00    +0.000 A 
ATOM     17  N   UNL     1       3.542   2.707  20.136  0.00  0.00    +0.000 N 
ATOM     18  O   UNL     1       4.783   2.423  20.210  0.00  0.00    +0.000 OA
ENDBRANCH  11  12
ENDBRANCH  10  11
ENDBRANCH   2  10
TORSDOF 4
ENDMDL
MODEL 7
REMARK VINA RESULT:      -6.6      1.371      1.661
REMARK  Name = 
REMARK  4 active torsions:
REMARK  status: ('A' for Active; 'I' for Inactive)
REMARK    1  A    between atoms: C_2  and  C_3
REMARK    2  A    between atoms: C_2  and  C_12
REMARK    3  A    between atoms: C_3  and  S_4
REMARK    4  A    between atoms: S_4  and  C_5
REMARK                            x       y       z     vdW  Elec       q    Type
REMARK                         _______ _______ _______ _____ _____    ______ ____
ROOT
ATOM      1  O   UNL     1       5.366   5.206  19.138  0.00  0.00    +0.000 OA
ATOM      2  C   UNL     1       4.476   5.367  18.302  0.00  0.00    +0.000 C 
ENDROOT
BRANCH   2   3
ATOM      3  C   UNL     1       3.527   6.508  18.503  0.00  0.00    +0.000 A 
ATOM      4  C   UNL     1       2.766   6.531  19.681  0.00  0.00    +0.000 A 
ATOM      5  C   UNL     1       1.855   7.563  19.924  0.00  0.00    +0.000 A 
ATOM      6  C   UNL     1       1.700   8.579  18.984  0.00  0.00    +0.000 A 
ATOM      7 CL   UNL     1       0.576   9.845  19.275  0.00  0.00    +0.000 Cl
ATOM      8  C   UNL     1       2.450   8.570  17.809  0.00  0.00    +0.000 A 
ATOM      9  C   UNL     1       3.366   7.537  17.564  0.00  0.00    +0.000 A 
ENDBRANCH   2   3
BRANCH   2  10
ATOM     10  C   UNL     1       4.274   4.470  17.091  0.00  0.00    +0.000 C 
BRANCH  10  11
ATOM     11  S   UNL     1       3.962   2.741  17.591  0.00  0.00    +0.000 S 
BRANCH  11  12
ATOM     12  C   UNL     1       2.811   2.875  18.970  0.00  0.00    +0.000 A 
ATOM     13  C   UNL     1       3.356   2.552  20.233  0.00  0.00    +0.000 A 
ATOM     14  C   UNL     1       2.586   2.623  21.391  0.00  0.00    +0.000 A 
ATOM     15  C   UNL     1       1.263   3.021  21.312  0.00  0.00    +0.000 A 
ATOM     16  C   UNL     1       0.722   3.332  20.069  0.00  0.00    +0.000 A 
ATOM     17  N   UNL     1       1.466   3.263  18.891  0.00  0.00    +0.000 N 
ATOM     18  O   UNL     1       0.876   3.557  17.799  0.00  0.00    +0.000 OA
ENDBRANCH  11  12
ENDBRANCH  10  11
ENDBRANCH   2  10
TORSDOF 4
ENDMDL
MODEL 8
REMARK VINA RESULT:      -6.5      1.612      2.174
REMARK  Name = 
REMARK  4 active torsions:
REMARK  status: ('A' for Active; 'I' for Inactive)
REMARK    1  A    between atoms: C_2  and  C_3
REMARK    2  A    between atoms: C_2  and  C_12
REMARK    3  A    between atoms: C_3  and  S_4
REMARK    4  A    between atoms: S_4  and  C_5
REMARK                            x       y       z     vdW  Elec       q    Type
REMARK                         _______ _______ _______ _____ _____    ______ ____
ROOT
ATOM      1  O   UNL     1       4.482   6.592  16.328  0.00  0.00    +0.000 OA
ATOM      2  C   UNL     1       4.278   6.331  17.514  0.00  0.00    +0.000 C 
ENDROOT
BRANCH   2   3
ATOM      3  C   UNL     1       3.246   7.139  18.240  0.00  0.00    +0.000 A 
ATOM      4  C   UNL     1       2.740   8.283  17.606  0.00  0.00    +0.000 A 
ATOM      5  C   UNL     1       1.783   9.084  18.233  0.00  0.00    +0.000 A 
ATOM      6  C   UNL     1       1.328   8.743  19.504  0.00  0.00    +0.000 A 
ATOM      7 CL   UNL     1       0.156   9.731  20.283  0.00  0.00    +0.000 Cl
ATOM      8  C   UNL     1       1.819   7.609  20.147  0.00  0.00    +0.000 A 
ATOM      9  C   UNL     1       2.779   6.803  19.518  0.00  0.00    +0.000 A 
ENDBRANCH   2   3
BRANCH   2  10
ATOM     10  C   UNL     1       5.020   5.253  18.288  0.00  0.00    +0.000 C 
BRANCH  10  11
ATOM     11  S   UNL     1       4.389   3.588  17.877  0.00  0.00    +0.000 S 
BRANCH  11  12
ATOM     12  C   UNL     1       3.045   3.319  19.045  0.00  0.00    +0.000 A 
ATOM     13  C   UNL     1       3.453   2.929  20.341  0.00  0.00    +0.000 A 
ATOM     14  C   UNL     1       2.523   2.698  21.351  0.00  0.00    +0.000 A 
ATOM     15  C   UNL     1       1.173   2.856  21.091  0.00  0.00    +0.000 A 
ATOM     16  C   UNL     1       0.769   3.232  19.814  0.00  0.00    +0.000 A 
ATOM     17  N   UNL     1       1.676   3.463  18.780  0.00  0.00    +0.000 N 
ATOM     18  O   UNL     1       1.205   3.793  17.641  0.00  0.00    +0.000 OA
ENDBRANCH  11  12
ENDBRANCH  10  11
ENDBRANCH   2  10
TORSDOF 4
ENDMDL
MODEL 9
REMARK VINA RESULT:      -6.5      1.664      1.901
REMARK  Name = 
REMARK  4 active torsions:
REMARK  status: ('A' for Active; 'I' for Inactive)
REMARK    1  A    between atoms: C_2  and  C_3
REMARK    2  A    between atoms: C_2  and  C_12
REMARK    3  A    between atoms: C_3  and  S_4
REMARK    4  A    between atoms: S_4  and  C_5
REMARK                            x       y       z     vdW  Elec       q    Type
REMARK                         _______ _______ _______ _____ _____    ______ ____
ROOT
ATOM      1  O   UNL     1       4.737   6.612  16.203  0.00  0.00    +0.000 OA
ATOM      2  C   UNL     1       4.436   6.269  17.347  0.00  0.00    +0.000 C 
ENDROOT
BRANCH   2   3
ATOM      3  C   UNL     1       3.407   7.079  18.073  0.00  0.00    +0.000 A 
ATOM      4  C   UNL     1       3.001   6.642  19.343  0.00  0.00    +0.000 A 
ATOM      5  C   UNL     1       2.038   7.348  20.068  0.00  0.00    +0.000 A 
ATOM      6  C   UNL     1       1.472   8.497  19.522  0.00  0.00    +0.000 A 
ATOM      7 CL   UNL     1       0.281   9.364  20.409  0.00  0.00    +0.000 Cl
ATOM      8  C   UNL     1       1.865   8.945  18.263  0.00  0.00    +0.000 A 
ATOM      9  C   UNL     1       2.833   8.239  17.534  0.00  0.00    +0.000 A 
ENDBRANCH   2   3
BRANCH   2  10
ATOM     10  C   UNL     1       5.057   5.083  18.069  0.00  0.00    +0.000 C 
BRANCH  10  11
ATOM     11  S   UNL     1       4.231   3.519  17.610  0.00  0.00    +0.000 S 
BRANCH  11  12
ATOM     12  C   UNL     1       2.978   3.286  18.882  0.00  0.00    +0.000 A 
ATOM     13  C   UNL     1       3.481   2.944  20.158  0.00  0.00    +0.000 A 
ATOM     14  C   UNL     1       2.629   2.745  21.241  0.00  0.00    +0.000 A 
ATOM     15  C   UNL     1       1.262   2.887  21.074  0.00  0.00    +0.000 A 
ATOM     16  C   UNL     1       0.764   3.215  19.817  0.00  0.00    +0.000 A 
ATOM     17  N   UNL     1       1.592   3.413  18.713  0.00  0.00    +0.000 N 
ATOM     18  O   UNL     1       1.037   3.699  17.601  0.00  0.00    +0.000 OA
ENDBRANCH  11  12
ENDBRANCH  10  11
ENDBRANCH   2  10
TORSDOF 4
ENDMDL
