MODEL 1
REMARK VINA RESULT:      -7.6      0.000      0.000
REMARK  Name = 
REMARK  6 active torsions:
REMARK  status: ('A' for Active; 'I' for Inactive)
REMARK    1  A    between atoms: C_2  and  C_3
REMARK    2  A    between atoms: C_3  and  O_4
REMARK    3  A    between atoms: O_4  and  C_5
REMARK    4  A    between atoms: C_5  and  C_7
REMARK    5  A    between atoms: N_14  and  C_15
REMARK    6  A    between atoms: C_15  and  C_16
REMARK                            x       y       z     vdW  Elec       q    Type
REMARK                         _______ _______ _______ _____ _____    ______ ____
ROOT
ATOM      1  O   UNL     1       6.813   7.454  16.711  0.00  0.00    +0.000 OA
ATOM      2  C   UNL     1       7.518   7.257  17.698  0.00  0.00    +0.000 C 
ATOM      3  N   UNL     1       8.230   8.254  18.330  0.00  0.00    +0.000 N 
ATOM      4  H   UNL     1       8.694   8.052  19.206  0.00  0.00    +0.000 HD
ENDROOT
BRANCH   2   5
ATOM      5  C   UNL     1       7.655   5.864  18.320  0.00  0.00    +0.000 C 
BRANCH   5   6
ATOM      6  O   UNL     1       6.396   5.374  18.786  0.00  0.00    +0.000 OA
BRANCH   6   7
ATOM      7  C   UNL     1       5.785   4.533  17.919  0.00  0.00    +0.000 C 
ATOM      8  O   UNL     1       6.239   4.157  16.847  0.00  0.00    +0.000 OA
BRANCH   7   9
ATOM      9  C   UNL     1       4.434   4.168  18.406  0.00  0.00    +0.000 A 
ATOM     10  C   UNL     1       4.246   3.324  19.512  0.00  0.00    +0.000 A 
ATOM     11  C   UNL     1       2.950   2.994  19.920  0.00  0.00    +0.000 A 
ATOM     12  C   UNL     1       1.856   3.507  19.229  0.00  0.00    +0.000 A 
ATOM     13  F   UNL     1       0.618   3.191  19.625  0.00  0.00    +0.000 F 
ATOM     14  C   UNL     1       2.031   4.340  18.129  0.00  0.00    +0.000 A 
ATOM     15  C   UNL     1       3.322   4.669  17.712  0.00  0.00    +0.000 A 
ENDBRANCH   7   9
ENDBRANCH   6   7
ENDBRANCH   5   6
ENDBRANCH   2   5
BRANCH   3  16
ATOM     16  C   UNL     1       8.217   9.631  17.875  0.00  0.00    +0.000 C 
BRANCH  16  17
ATOM     17  C   UNL     1       9.313  10.459  18.510  0.00  0.00    +0.000 A 
ATOM     18  C   UNL     1      10.264  11.137  17.729  0.00  0.00    +0.000 A 
ATOM     19  C   UNL     1      11.252  11.921  18.333  0.00  0.00    +0.000 A 
ATOM     20  C   UNL     1      11.287  12.036  19.717  0.00  0.00    +0.000 A 
ATOM     21  F   UNL     1      12.232  12.790  20.296  0.00  0.00    +0.000 F 
ATOM     22  C   UNL     1      10.349  11.386  20.509  0.00  0.00    +0.000 A 
ATOM     23  C   UNL     1       9.363  10.600  19.908  0.00  0.00    +0.000 A 
ENDBRANCH  16  17
ENDBRANCH   3  16
TORSDOF 6
ENDMDL
MODEL 2
REMARK VINA RESULT:      -7.6      5.071      6.756
REMARK  Name = 
REMARK  6 active torsions:
REMARK  status: ('A' for Active; 'I' for Inactive)
REMARK    1  A    between atoms: C_2  and  C_3
REMARK    2  A    between atoms: C_3  and  O_4
REMARK    3  A    between atoms: O_4  and  C_5
REMARK    4  A    between atoms: C_5  and  C_7
REMARK    5  A    between atoms: N_14  and  C_15
REMARK    6  A    between atoms: C_15  and  C_16
REMARK                            x       y       z     vdW  Elec       q    Type
REMARK                         _______ _______ _______ _____ _____    ______ ____
ROOT
ATOM      1  O   UNL     1       1.254   3.557  17.454  0.00  0.00    +0.000 OA
ATOM      2  C   UNL     1       1.728   3.146  18.511  0.00  0.00    +0.000 C 
ATOM      3  N   UNL     1       3.044   2.761  18.650  0.00  0.00    +0.000 N 
ATOM      4  H   UNL     1       3.401   2.547  19.572  0.00  0.00    +0.000 HD
ENDROOT
BRANCH   2   5
ATOM      5  C   UNL     1       0.878   3.037  19.781  0.00  0.00    +0.000 C 
BRANCH   5   6
ATOM      6  O   UNL     1       0.676   4.317  20.385  0.00  0.00    +0.000 OA
BRANCH   6   7
ATOM      7  C   UNL     1       1.827   4.962  20.691  0.00  0.00    +0.000 C 
ATOM      8  O   UNL     1       2.713   4.536  21.418  0.00  0.00    +0.000 OA
BRANCH   7   9
ATOM      9  C   UNL     1       1.852   6.310  20.076  0.00  0.00    +0.000 A 
ATOM     10  C   UNL     1       2.448   6.547  18.827  0.00  0.00    +0.000 A 
ATOM     11  C   UNL     1       2.462   7.841  18.300  0.00  0.00    +0.000 A 
ATOM     12  C   UNL     1       1.883   8.885  19.015  0.00  0.00    +0.000 A 
ATOM     13  F   UNL     1       1.897  10.122  18.505  0.00  0.00    +0.000 F 
ATOM     14  C   UNL     1       1.294   8.663  20.255  0.00  0.00    +0.000 A 
ATOM     15  C   UNL     1       1.282   7.375  20.791  0.00  0.00    +0.000 A 
ENDBRANCH   7   9
ENDBRANCH   6   7
ENDBRANCH   5   6
ENDBRANCH   2   5
BRANCH   3  16
ATOM     16  C   UNL     1       3.989   2.796  17.550  0.00  0.00    +0.000 C 
BRANCH  16  17
ATOM     17  C   UNL     1       4.759   4.096  17.494  0.00  0.00    +0.000 A 
ATOM     18  C   UNL     1       5.570   4.513  18.564  0.00  0.00    +0.000 A 
ATOM     19  C   UNL     1       6.299   5.705  18.482  0.00  0.00    +0.000 A 
ATOM     20  C   UNL     1       6.225   6.477  17.329  0.00  0.00    +0.000 A 
ATOM     21  F   UNL     1       6.926   7.616  17.249  0.00  0.00    +0.000 F 
ATOM     22  C   UNL     1       5.442   6.077  16.254  0.00  0.00    +0.000 A 
ATOM     23  C   UNL     1       4.711   4.889  16.335  0.00  0.00    +0.000 A 
ENDBRANCH  16  17
ENDBRANCH   3  16
TORSDOF 6
ENDMDL
MODEL 3
REMARK VINA RESULT:      -7.6      5.517      7.039
REMARK  Name = 
REMARK  6 active torsions:
REMARK  status: ('A' for Active; 'I' for Inactive)
REMARK    1  A    between atoms: C_2  and  C_3
REMARK    2  A    between atoms: C_3  and  O_4
REMARK    3  A    between atoms: O_4  and  C_5
REMARK    4  A    between atoms: C_5  and  C_7
REMARK    5  A    between atoms: N_14  and  C_15
REMARK    6  A    between atoms: C_15  and  C_16
REMARK                            x       y       z     vdW  Elec       q    Type
REMARK                         _______ _______ _______ _____ _____    ______ ____
ROOT
ATOM      1  O   UNL     1       1.537   2.939  21.283  0.00  0.00    +0.000 OA
ATOM      2  C   UNL     1       1.440   3.257  20.100  0.00  0.00    +0.000 C 
ATOM      3  N   UNL     1       1.567   4.555  19.653  0.00  0.00    +0.000 N 
ATOM      4  H   UNL     1       1.596   4.735  18.658  0.00  0.00    +0.000 HD
ENDROOT
BRANCH   2   5
ATOM      5  C   UNL     1       1.174   2.215  19.008  0.00  0.00    +0.000 C 
BRANCH   5   6
ATOM      6  O   UNL     1       1.995   2.442  17.860  0.00  0.00    +0.000 OA
BRANCH   6   7
ATOM      7  C   UNL     1       3.304   2.162  18.063  0.00  0.00    +0.000 C 
ATOM      8  O   UNL     1       3.758   1.084  18.417  0.00  0.00    +0.000 OA
BRANCH   7   9
ATOM      9  C   UNL     1       4.135   3.373  17.864  0.00  0.00    +0.000 A 
ATOM     10  C   UNL     1       4.191   4.043  16.632  0.00  0.00    +0.000 A 
ATOM     11  C   UNL     1       5.006   5.169  16.491  0.00  0.00    +0.000 A 
ATOM     12  C   UNL     1       5.754   5.620  17.574  0.00  0.00    +0.000 A 
ATOM     13  F   UNL     1       6.531   6.701  17.436  0.00  0.00    +0.000 F 
ATOM     14  C   UNL     1       5.710   4.962  18.799  0.00  0.00    +0.000 A 
ATOM     15  C   UNL     1       4.904   3.833  18.945  0.00  0.00    +0.000 A 
ENDBRANCH   7   9
ENDBRANCH   6   7
ENDBRANCH   5   6
ENDBRANCH   2   5
BRANCH   3  16
ATOM     16  C   UNL     1       1.817   5.668  20.548  0.00  0.00    +0.000 C 
BRANCH  16  17
ATOM     17  C   UNL     1       1.907   6.988  19.816  0.00  0.00    +0.000 A 
ATOM     18  C   UNL     1       2.511   7.083  18.550  0.00  0.00    +0.000 A 
ATOM     19  C   UNL     1       2.559   8.307  17.874  0.00  0.00    +0.000 A 
ATOM     20  C   UNL     1       1.997   9.436  18.458  0.00  0.00    +0.000 A 
ATOM     21  F   UNL     1       2.041  10.608  17.809  0.00  0.00    +0.000 F 
ATOM     22  C   UNL     1       1.384   9.363  19.701  0.00  0.00    +0.000 A 
ATOM     23  C   UNL     1       1.337   8.143  20.380  0.00  0.00    +0.000 A 
ENDBRANCH  16  17
ENDBRANCH   3  16
TORSDOF 6
ENDMDL
MODEL 4
REMARK VINA RESULT:      -7.6      5.190      8.207
REMARK  Name = 
REMARK  6 active torsions:
REMARK  status: ('A' for Active; 'I' for Inactive)
REMARK    1  A    between atoms: C_2  and  C_3
REMARK    2  A    between atoms: C_3  and  O_4
REMARK    3  A    between atoms: O_4  and  C_5
REMARK    4  A    between atoms: C_5  and  C_7
REMARK    5  A    between atoms: N_14  and  C_15
REMARK    6  A    between atoms: C_15  and  C_16
REMARK                            x       y       z     vdW  Elec       q    Type
REMARK                         _______ _______ _______ _____ _____    ______ ____
ROOT
ATOM      1  O   UNL     1       7.189   5.421  20.225  0.00  0.00    +0.000 OA
ATOM      2  C   UNL     1       6.911   5.149  19.059  0.00  0.00    +0.000 C 
ATOM      3  N   UNL     1       5.624   5.166  18.565  0.00  0.00    +0.000 N 
ATOM      4  H   UNL     1       5.475   5.050  17.570  0.00  0.00    +0.000 HD
ENDROOT
BRANCH   2   5
ATOM      5  C   UNL     1       7.995   4.773  18.043  0.00  0.00    +0.000 C 
BRANCH   5   6
ATOM      6  O   UNL     1       7.424   4.283  16.828  0.00  0.00    +0.000 OA
BRANCH   6   7
ATOM      7  C   UNL     1       7.252   5.237  15.884  0.00  0.00    +0.000 C 
ATOM      8  O   UNL     1       7.450   6.434  16.033  0.00  0.00    +0.000 OA
BRANCH   7   9
ATOM      9  C   UNL     1       6.718   4.647  14.633  0.00  0.00    +0.000 A 
ATOM     10  C   UNL     1       7.467   4.615  13.447  0.00  0.00    +0.000 A 
ATOM     11  C   UNL     1       6.909   4.064  12.290  0.00  0.00    +0.000 A 
ATOM     12  C   UNL     1       5.616   3.551  12.322  0.00  0.00    +0.000 A 
ATOM     13  F   UNL     1       5.087   3.023  11.213  0.00  0.00    +0.000 F 
ATOM     14  C   UNL     1       4.863   3.582  13.491  0.00  0.00    +0.000 A 
ATOM     15  C   UNL     1       5.411   4.136  14.649  0.00  0.00    +0.000 A 
ENDBRANCH   7   9
ENDBRANCH   6   7
ENDBRANCH   5   6
ENDBRANCH   2   5
BRANCH   3  16
ATOM     16  C   UNL     1       4.476   5.497  19.386  0.00  0.00    +0.000 C 
BRANCH  16  17
ATOM     17  C   UNL     1       3.318   4.550  19.167  0.00  0.00    +0.000 A 
ATOM     18  C   UNL     1       2.844   3.722  20.200  0.00  0.00    +0.000 A 
ATOM     19  C   UNL     1       1.752   2.874  19.987  0.00  0.00    +0.000 A 
ATOM     20  C   UNL     1       1.127   2.856  18.746  0.00  0.00    +0.000 A 
ATOM     21  F   UNL     1       0.080   2.045  18.544  0.00  0.00    +0.000 F 
ATOM     22  C   UNL     1       1.569   3.675  17.716  0.00  0.00    +0.000 A 
ATOM     23  C   UNL     1       2.662   4.521  17.925  0.00  0.00    +0.000 A 
ENDBRANCH  16  17
ENDBRANCH   3  16
TORSDOF 6
ENDMDL
MODEL 5
REMARK VINA RESULT:      -7.5      4.899      6.019
REMARK  Name = 
REMARK  6 active torsions:
REMARK  status: ('A' for Active; 'I' for Inactive)
REMARK    1  A    between atoms: C_2  and  C_3
REMARK    2  A    between atoms: C_3  and  O_4
REMARK    3  A    between atoms: O_4  and  C_5
REMARK    4  A    between atoms: C_5  and  C_7
REMARK    5  A    between atoms: N_14  and  C_15
REMARK    6  A    between atoms: C_15  and  C_16
REMARK                            x       y       z     vdW  Elec       q    Type
REMARK                         _______ _______ _______ _____ _____    ______ ____
ROOT
ATOM      1  O   UNL     1       4.959   6.960  15.509  0.00  0.00    +0.000 OA
ATOM      2  C   UNL     1       5.078   6.726  16.709  0.00  0.00    +0.000 C 
ATOM      3  N   UNL     1       4.165   7.142  17.654  0.00  0.00    +0.000 N 
ATOM      4  H   UNL     1       4.256   6.815  18.608  0.00  0.00    +0.000 HD
ENDROOT
BRANCH   2   5
ATOM      5  C   UNL     1       6.266   5.930  17.257  0.00  0.00    +0.000 C 
BRANCH   5   6
ATOM      6  O   UNL     1       5.912   4.567  17.506  0.00  0.00    +0.000 OA
BRANCH   6   7
ATOM      7  C   UNL     1       5.443   4.346  18.756  0.00  0.00    +0.000 C 
ATOM      8  O   UNL     1       6.050   4.563  19.795  0.00  0.00    +0.000 OA
BRANCH   7   9
ATOM      9  C   UNL     1       4.096   3.730  18.710  0.00  0.00    +0.000 A 
ATOM     10  C   UNL     1       3.712   2.859  17.678  0.00  0.00    +0.000 A 
ATOM     11  C   UNL     1       2.423   2.320  17.670  0.00  0.00    +0.000 A 
ATOM     12  C   UNL     1       1.530   2.648  18.686  0.00  0.00    +0.000 A 
ATOM     13  F   UNL     1       0.298   2.126  18.676  0.00  0.00    +0.000 F 
ATOM     14  C   UNL     1       1.899   3.513  19.711  0.00  0.00    +0.000 A 
ATOM     15  C   UNL     1       3.182   4.060  19.722  0.00  0.00    +0.000 A 
ENDBRANCH   7   9
ENDBRANCH   6   7
ENDBRANCH   5   6
ENDBRANCH   2   5
BRANCH   3  16
ATOM     16  C   UNL     1       2.982   7.909  17.313  0.00  0.00    +0.000 C 
BRANCH  16  17
ATOM     17  C   UNL     1       2.182   8.309  18.533  0.00  0.00    +0.000 A 
ATOM     18  C   UNL     1       1.400   9.477  18.544  0.00  0.00    +0.000 A 
ATOM     19  C   UNL     1       0.644   9.816  19.672  0.00  0.00    +0.000 A 
ATOM     20  C   UNL     1       0.662   8.986  20.786  0.00  0.00    +0.000 A 
ATOM     21  F   UNL     1      -0.065   9.309  21.864  0.00  0.00    +0.000 F 
ATOM     22  C   UNL     1       1.416   7.820  20.792  0.00  0.00    +0.000 A 
ATOM     23  C   UNL     1       2.175   7.481  19.669  0.00  0.00    +0.000 A 
ENDBRANCH  16  17
ENDBRANCH   3  16
TORSDOF 6
ENDMDL
MODEL 6
REMARK VINA RESULT:      -7.5      4.012      6.953
REMARK  Name = 
REMARK  6 active torsions:
REMARK  status: ('A' for Active; 'I' for Inactive)
REMARK    1  A    between atoms: C_2  and  C_3
REMARK    2  A    between atoms: C_3  and  O_4
REMARK    3  A    between atoms: O_4  and  C_5
REMARK    4  A    between atoms: C_5  and  C_7
REMARK    5  A    between atoms: N_14  and  C_15
REMARK    6  A    between atoms: C_15  and  C_16
REMARK                            x       y       z     vdW  Elec       q    Type
REMARK                         _______ _______ _______ _____ _____    ______ ____
ROOT
ATOM      1  O   UNL     1       4.239   3.297  19.901  0.00  0.00    +0.000 OA
ATOM      2  C   UNL     1       3.835   3.766  18.839  0.00  0.00    +0.000 C 
ATOM      3  N   UNL     1       3.120   4.941  18.755  0.00  0.00    +0.000 N 
ATOM      4  H   UNL     1       2.921   5.335  17.844  0.00  0.00    +0.000 HD
ENDROOT
BRANCH   2   5
ATOM      5  C   UNL     1       4.109   3.072  17.501  0.00  0.00    +0.000 C 
BRANCH   5   6
ATOM      6  O   UNL     1       4.363   4.021  16.463  0.00  0.00    +0.000 OA
BRANCH   6   7
ATOM      7  C   UNL     1       5.652   4.043  16.050  0.00  0.00    +0.000 C 
ATOM      8  O   UNL     1       6.145   3.308  15.207  0.00  0.00    +0.000 OA
BRANCH   7   9
ATOM      9  C   UNL     1       6.430   5.048  16.813  0.00  0.00    +0.000 A 
ATOM     10  C   UNL     1       7.397   4.677  17.761  0.00  0.00    +0.000 A 
ATOM     11  C   UNL     1       8.089   5.664  18.468  0.00  0.00    +0.000 A 
ATOM     12  C   UNL     1       7.817   7.007  18.226  0.00  0.00    +0.000 A 
ATOM     13  F   UNL     1       8.485   7.948  18.903  0.00  0.00    +0.000 F 
ATOM     14  C   UNL     1       6.858   7.386  17.293  0.00  0.00    +0.000 A 
ATOM     15  C   UNL     1       6.158   6.406  16.587  0.00  0.00    +0.000 A 
ENDBRANCH   7   9
ENDBRANCH   6   7
ENDBRANCH   5   6
ENDBRANCH   2   5
BRANCH   3  16
ATOM     16  C   UNL     1       2.769   5.727  19.923  0.00  0.00    +0.000 C 
BRANCH  16  17
ATOM     17  C   UNL     1       2.257   7.103  19.559  0.00  0.00    +0.000 A 
ATOM     18  C   UNL     1       2.390   7.612  18.255  0.00  0.00    +0.000 A 
ATOM     19  C   UNL     1       1.884   8.875  17.930  0.00  0.00    +0.000 A 
ATOM     20  C   UNL     1       1.238   9.628  18.903  0.00  0.00    +0.000 A 
ATOM     21  F   UNL     1       0.752  10.837  18.590  0.00  0.00    +0.000 F 
ATOM     22  C   UNL     1       1.083   9.139  20.193  0.00  0.00    +0.000 A 
ATOM     23  C   UNL     1       1.590   7.880  20.521  0.00  0.00    +0.000 A 
ENDBRANCH  16  17
ENDBRANCH   3  16
TORSDOF 6
ENDMDL
MODEL 7
REMARK VINA RESULT:      -7.4      4.056      7.029
REMARK  Name = 
REMARK  6 active torsions:
REMARK  status: ('A' for Active; 'I' for Inactive)
REMARK    1  A    between atoms: C_2  and  C_3
REMARK    2  A    between atoms: C_3  and  O_4
REMARK    3  A    between atoms: O_4  and  C_5
REMARK    4  A    between atoms: C_5  and  C_7
REMARK    5  A    between atoms: N_14  and  C_15
REMARK    6  A    between atoms: C_15  and  C_16
REMARK                            x       y       z     vdW  Elec       q    Type
REMARK                         _______ _______ _______ _____ _____    ______ ____
ROOT
ATOM      1  O   UNL     1       3.247   2.975  20.146  0.00  0.00    +0.000 OA
ATOM      2  C   UNL     1       3.508   3.621  19.133  0.00  0.00    +0.000 C 
ATOM      3  N   UNL     1       3.271   4.974  19.018  0.00  0.00    +0.000 N 
ATOM      4  H   UNL     1       3.618   5.469  18.206  0.00  0.00    +0.000 HD
ENDROOT
BRANCH   2   5
ATOM      5  C   UNL     1       4.138   2.961  17.902  0.00  0.00    +0.000 C 
BRANCH   5   6
ATOM      6  O   UNL     1       4.183   3.862  16.793  0.00  0.00    +0.000 OA
BRANCH   6   7
ATOM      7  C   UNL     1       5.410   3.976  16.234  0.00  0.00    +0.000 C 
ATOM      8  O   UNL     1       5.847   3.287  15.322  0.00  0.00    +0.000 OA
BRANCH   7   9
ATOM      9  C   UNL     1       6.207   5.018  16.924  0.00  0.00    +0.000 A 
ATOM     10  C   UNL     1       5.954   6.387  16.744  0.00  0.00    +0.000 A 
ATOM     11  C   UNL     1       6.747   7.330  17.404  0.00  0.00    +0.000 A 
ATOM     12  C   UNL     1       7.780   6.906  18.234  0.00  0.00    +0.000 A 
ATOM     13  F   UNL     1       8.534   7.813  18.865  0.00  0.00    +0.000 F 
ATOM     14  C   UNL     1       8.042   5.552  18.416  0.00  0.00    +0.000 A 
ATOM     15  C   UNL     1       7.258   4.604  17.756  0.00  0.00    +0.000 A 
ENDBRANCH   7   9
ENDBRANCH   6   7
ENDBRANCH   5   6
ENDBRANCH   2   5
BRANCH   3  16
ATOM     16  C   UNL     1       2.679   5.757  20.085  0.00  0.00    +0.000 C 
BRANCH  16  17
ATOM     17  C   UNL     1       2.225   7.121  19.615  0.00  0.00    +0.000 A 
ATOM     18  C   UNL     1       2.472   7.563  18.303  0.00  0.00    +0.000 A 
ATOM     19  C   UNL     1       2.018   8.816  17.878  0.00  0.00    +0.000 A 
ATOM     20  C   UNL     1       1.312   9.627  18.758  0.00  0.00    +0.000 A 
ATOM     21  F   UNL     1       0.876  10.826  18.349  0.00  0.00    +0.000 F 
ATOM     22  C   UNL     1       1.045   9.205  20.054  0.00  0.00    +0.000 A 
ATOM     23  C   UNL     1       1.499   7.955  20.483  0.00  0.00    +0.000 A 
ENDBRANCH  16  17
ENDBRANCH   3  16
TORSDOF 6
ENDMDL
MODEL 8
REMARK VINA RESULT:      -7.4      1.701      2.232
REMARK  Name = 
REMARK  6 active torsions:
REMARK  status: ('A' for Active; 'I' for Inactive)
REMARK    1  A    between atoms: C_2  and  C_3
REMARK    2  A    between atoms: C_3  and  O_4
REMARK    3  A    between atoms: O_4  and  C_5
REMARK    4  A    between atoms: C_5  and  C_7
REMARK    5  A    between atoms: N_14  and  C_15
REMARK    6  A    between atoms: C_15  and  C_16
REMARK                            x       y       z     vdW  Elec       q    Type
REMARK                         _______ _______ _______ _____ _____    ______ ____
ROOT
ATOM      1  O   UNL     1       8.448   7.062  18.962  0.00  0.00    +0.000 OA
ATOM      2  C   UNL     1       7.927   7.802  18.131  0.00  0.00    +0.000 C 
ATOM      3  N   UNL     1       8.215   9.147  18.030  0.00  0.00    +0.000 N 
ATOM      4  H   UNL     1       7.844   9.675  17.250  0.00  0.00    +0.000 HD
ENDROOT
BRANCH   2   5
ATOM      5  C   UNL     1       6.905   7.277  17.117  0.00  0.00    +0.000 C 
BRANCH   5   6
ATOM      6  O   UNL     1       7.396   6.122  16.432  0.00  0.00    +0.000 OA
BRANCH   6   7
ATOM      7  C   UNL     1       7.294   4.979  17.150  0.00  0.00    +0.000 C 
ATOM      8  O   UNL     1       8.202   4.191  17.371  0.00  0.00    +0.000 OA
BRANCH   7   9
ATOM      9  C   UNL     1       5.895   4.759  17.589  0.00  0.00    +0.000 A 
ATOM     10  C   UNL     1       5.485   5.002  18.909  0.00  0.00    +0.000 A 
ATOM     11  C   UNL     1       4.158   4.760  19.278  0.00  0.00    +0.000 A 
ATOM     12  C   UNL     1       3.255   4.282  18.333  0.00  0.00    +0.000 A 
ATOM     13  F   UNL     1       1.985   4.055  18.690  0.00  0.00    +0.000 F 
ATOM     14  C   UNL     1       3.652   4.034  17.024  0.00  0.00    +0.000 A 
ATOM     15  C   UNL     1       4.976   4.267  16.650  0.00  0.00    +0.000 A 
ENDBRANCH   7   9
ENDBRANCH   6   7
ENDBRANCH   5   6
ENDBRANCH   2   5
BRANCH   3  16
ATOM     16  C   UNL     1       9.157   9.812  18.909  0.00  0.00    +0.000 C 
BRANCH  16  17
ATOM     17  C   UNL     1       9.686  11.100  18.319  0.00  0.00    +0.000 A 
ATOM     18  C   UNL     1       8.819  12.123  17.900  0.00  0.00    +0.000 A 
ATOM     19  C   UNL     1       9.328  13.320  17.384  0.00  0.00    +0.000 A 
ATOM     20  C   UNL     1      10.702  13.500  17.293  0.00  0.00    +0.000 A 
ATOM     21  F   UNL     1      11.189  14.647  16.801  0.00  0.00    +0.000 F 
ATOM     22  C   UNL     1      11.578  12.508  17.715  0.00  0.00    +0.000 A 
ATOM     23  C   UNL     1      11.072  11.311  18.228  0.00  0.00    +0.000 A 
ENDBRANCH  16  17
ENDBRANCH   3  16
TORSDOF 6
ENDMDL
MODEL 9
REMARK VINA RESULT:      -7.4      3.951      5.472
REMARK  Name = 
REMARK  6 active torsions:
REMARK  status: ('A' for Active; 'I' for Inactive)
REMARK    1  A    between atoms: C_2  and  C_3
REMARK    2  A    between atoms: C_3  and  O_4
REMARK    3  A    between atoms: O_4  and  C_5
REMARK    4  A    between atoms: C_5  and  C_7
REMARK    5  A    between atoms: N_14  and  C_15
REMARK    6  A    between atoms: C_15  and  C_16
REMARK                            x       y       z     vdW  Elec       q    Type
REMARK                         _______ _______ _______ _____ _____    ______ ____
ROOT
ATOM      1  O   UNL     1       3.712   1.835  18.283  0.00  0.00    +0.000 OA
ATOM      2  C   UNL     1       4.083   2.543  19.217  0.00  0.00    +0.000 C 
ATOM      3  N   UNL     1       5.055   3.512  19.091  0.00  0.00    +0.000 N 
ATOM      4  H   UNL     1       5.230   4.141  19.865  0.00  0.00    +0.000 HD
ENDROOT
BRANCH   2   5
ATOM      5  C   UNL     1       3.474   2.408  20.617  0.00  0.00    +0.000 C 
BRANCH   5   6
ATOM      6  O   UNL     1       2.844   3.622  21.032  0.00  0.00    +0.000 OA
BRANCH   6   7
ATOM      7  C   UNL     1       1.769   3.961  20.282  0.00  0.00    +0.000 C 
ATOM      8  O   UNL     1       0.805   3.245  20.051  0.00  0.00    +0.000 OA
BRANCH   7   9
ATOM      9  C   UNL     1       1.938   5.316  19.705  0.00  0.00    +0.000 A 
ATOM     10  C   UNL     1       2.262   5.513  18.354  0.00  0.00    +0.000 A 
ATOM     11  C   UNL     1       2.429   6.811  17.864  0.00  0.00    +0.000 A 
ATOM     12  C   UNL     1       2.273   7.898  18.718  0.00  0.00    +0.000 A 
ATOM     13  F   UNL     1       2.432   9.139  18.244  0.00  0.00    +0.000 F 
ATOM     14  C   UNL     1       1.957   7.714  20.060  0.00  0.00    +0.000 A 
ATOM     15  C   UNL     1       1.794   6.421  20.558  0.00  0.00    +0.000 A 
ENDBRANCH   7   9
ENDBRANCH   6   7
ENDBRANCH   5   6
ENDBRANCH   2   5
BRANCH   3  16
ATOM     16  C   UNL     1       5.739   3.775  17.840  0.00  0.00    +0.000 C 
BRANCH  16  17
ATOM     17  C   UNL     1       6.437   5.117  17.834  0.00  0.00    +0.000 A 
ATOM     18  C   UNL     1       6.008   6.161  16.997  0.00  0.00    +0.000 A 
ATOM     19  C   UNL     1       6.647   7.405  17.027  0.00  0.00    +0.000 A 
ATOM     20  C   UNL     1       7.710   7.610  17.899  0.00  0.00    +0.000 A 
ATOM     21  F   UNL     1       8.320   8.803  17.929  0.00  0.00    +0.000 F 
ATOM     22  C   UNL     1       8.141   6.598  18.745  0.00  0.00    +0.000 A 
ATOM     23  C   UNL     1       7.507   5.353  18.714  0.00  0.00    +0.000 A 
ENDBRANCH  16  17
ENDBRANCH   3  16
TORSDOF 6
ENDMDL
