MODEL 1
REMARK VINA RESULT:      -7.5      0.000      0.000
REMARK  Name = 
REMARK  8 active torsions:
REMARK  status: ('A' for Active; 'I' for Inactive)
REMARK    1  A    between atoms: C_1  and  C_2
REMARK    2  A    between atoms: C_2  and  C_3
REMARK    3  A    between atoms: C_3  and  C_4
REMARK    4  A    between atoms: C_3  and  N_19
REMARK    5  A    between atoms: C_6  and  C_7
REMARK    6  A    between atoms: C_7  and  C_8
REMARK    7  A    between atoms: C_8  and  C_9
REMARK    8  A    between atoms: C_8  and  C_10
REMARK                            x       y       z     vdW  Elec       q    Type
REMARK                         _______ _______ _______ _____ _____    ______ ____
ROOT
ATOM      1  C   UNL     1       4.904   6.015  17.795  0.00  0.00    +0.000 A 
ATOM      2  N   UNL     1       4.696   7.319  17.696  0.00  0.00    +0.000 NA
ATOM      3  C   UNL     1       3.331   7.430  17.739  0.00  0.00    +0.000 A 
ATOM      4  N   UNL     1       2.677   6.268  17.813  0.00  0.00    +0.000 NA
ATOM      5  N   UNL     1       3.689   5.374  17.983  0.00  0.00    +0.000 N 
ATOM      6  C   UNL     1       3.432   4.033  18.382  0.00  0.00    +0.000 A 
ATOM      7  C   UNL     1       2.195   3.467  18.085  0.00  0.00    +0.000 A 
ATOM      8  C   UNL     1       1.957   2.152  18.477  0.00  0.00    +0.000 A 
ATOM      9  C   UNL     1       2.935   1.459  19.181  0.00  0.00    +0.000 A 
ATOM     10  C   UNL     1       4.125   2.109  19.461  0.00  0.00    +0.000 A 
ATOM     11  N   UNL     1       4.396   3.371  19.074  0.00  0.00    +0.000 NA
ENDROOT
BRANCH   1  12
ATOM     12  C   UNL     1       6.195   5.271  17.587  0.00  0.00    +0.000 C 
BRANCH  12  13
ATOM     13  N   UNL     1       6.305   4.911  16.164  0.00  0.00    +0.000 N 
ATOM     14  C   UNL     1       5.555   3.999  15.470  0.00  0.00    +0.000 A 
ATOM     15  C   UNL     1       6.017   4.025  14.175  0.00  0.00    +0.000 A 
ATOM     16  C   UNL     1       7.062   4.964  14.186  0.00  0.00    +0.000 A 
ATOM     17  N   UNL     1       7.246   5.504  15.392  0.00  0.00    +0.000 NA
ENDBRANCH  12  13
BRANCH  12  19
ATOM     18  C   UNL     1       7.842   5.678  19.489  0.00  0.00    +0.000 C 
ATOM     19  C   UNL     1       7.442   6.035  18.062  0.00  0.00    +0.000 C 
ENDBRANCH  12  19
ENDBRANCH   1  12
BRANCH   3  20
ATOM     20  C   UNL     1       2.610   8.734  17.720  0.00  0.00    +0.000 C 
BRANCH  20  21
ATOM     21  C   UNL     1       1.295   8.749  18.514  0.00  0.00    +0.000 C 
ATOM     22  C   UNL     1       1.529   8.655  20.023  0.00  0.00    +0.000 C 
ATOM     23  C   UNL     1       0.509  10.028  18.201  0.00  0.00    +0.000 C 
ENDBRANCH  20  21
ENDBRANCH   3  20
TORSDOF 5
ENDMDL
MODEL 2
REMARK VINA RESULT:      -7.3      1.426      4.954
REMARK  Name = 
REMARK  8 active torsions:
REMARK  status: ('A' for Active; 'I' for Inactive)
REMARK    1  A    between atoms: C_1  and  C_2
REMARK    2  A    between atoms: C_2  and  C_3
REMARK    3  A    between atoms: C_3  and  C_4
REMARK    4  A    between atoms: C_3  and  N_19
REMARK    5  A    between atoms: C_6  and  C_7
REMARK    6  A    between atoms: C_7  and  C_8
REMARK    7  A    between atoms: C_8  and  C_9
REMARK    8  A    between atoms: C_8  and  C_10
REMARK                            x       y       z     vdW  Elec       q    Type
REMARK                         _______ _______ _______ _____ _____    ______ ____
ROOT
ATOM      1  C   UNL     1       4.130   5.460  17.856  0.00  0.00    +0.000 A 
ATOM      2  N   UNL     1       4.281   4.156  18.028  0.00  0.00    +0.000 NA
ATOM      3  C   UNL     1       3.502   3.885  19.122  0.00  0.00    +0.000 A 
ATOM      4  N   UNL     1       2.913   4.951  19.668  0.00  0.00    +0.000 NA
ATOM      5  N   UNL     1       3.209   5.936  18.777  0.00  0.00    +0.000 N 
ATOM      6  C   UNL     1       2.548   7.195  18.819  0.00  0.00    +0.000 A 
ATOM      7  C   UNL     1       2.023   7.640  20.029  0.00  0.00    +0.000 A 
ATOM      8  C   UNL     1       1.383   8.876  20.060  0.00  0.00    +0.000 A 
ATOM      9  C   UNL     1       1.251   9.608  18.885  0.00  0.00    +0.000 A 
ATOM     10  C   UNL     1       1.775   9.077  17.719  0.00  0.00    +0.000 A 
ATOM     11  N   UNL     1       2.423   7.896  17.662  0.00  0.00    +0.000 NA
ENDROOT
BRANCH   1  12
ATOM     12  C   UNL     1       4.912   6.363  16.942  0.00  0.00    +0.000 C 
BRANCH  12  13
ATOM     13  N   UNL     1       6.212   6.653  17.569  0.00  0.00    +0.000 N 
ATOM     14  C   UNL     1       6.860   5.925  18.531  0.00  0.00    +0.000 A 
ATOM     15  C   UNL     1       8.040   6.582  18.784  0.00  0.00    +0.000 A 
ATOM     16  C   UNL     1       8.009   7.709  17.947  0.00  0.00    +0.000 A 
ATOM     17  N   UNL     1       6.899   7.762  17.207  0.00  0.00    +0.000 NA
ENDBRANCH  12  13
BRANCH  12  19
ATOM     18  C   UNL     1       6.355   4.968  15.373  0.00  0.00    +0.000 C 
ATOM     19  C   UNL     1       5.095   5.811  15.520  0.00  0.00    +0.000 C 
ENDBRANCH  12  19
ENDBRANCH   1  12
BRANCH   3  20
ATOM     20  C   UNL     1       3.303   2.513  19.672  0.00  0.00    +0.000 C 
BRANCH  20  21
ATOM     21  C   UNL     1       1.834   2.125  19.905  0.00  0.00    +0.000 C 
ATOM     22  C   UNL     1       1.270   2.744  21.186  0.00  0.00    +0.000 C 
ATOM     23  C   UNL     1       0.981   2.565  18.710  0.00  0.00    +0.000 C 
ENDBRANCH  20  21
ENDBRANCH   3  20
TORSDOF 5
ENDMDL
MODEL 3
REMARK VINA RESULT:      -7.3      1.683      5.249
REMARK  Name = 
REMARK  8 active torsions:
REMARK  status: ('A' for Active; 'I' for Inactive)
REMARK    1  A    between atoms: C_1  and  C_2
REMARK    2  A    between atoms: C_2  and  C_3
REMARK    3  A    between atoms: C_3  and  C_4
REMARK    4  A    between atoms: C_3  and  N_19
REMARK    5  A    between atoms: C_6  and  C_7
REMARK    6  A    between atoms: C_7  and  C_8
REMARK    7  A    between atoms: C_8  and  C_9
REMARK    8  A    between atoms: C_8  and  C_10
REMARK                            x       y       z     vdW  Elec       q    Type
REMARK                         _______ _______ _______ _____ _____    ______ ____
ROOT
ATOM      1  C   UNL     1       5.134   5.406  16.146  0.00  0.00    +0.000 A 
ATOM      2  N   UNL     1       5.766   5.553  14.992  0.00  0.00    +0.000 NA
ATOM      3  C   UNL     1       5.833   4.277  14.498  0.00  0.00    +0.000 A 
ATOM      4  N   UNL     1       5.321   3.339  15.299  0.00  0.00    +0.000 NA
ATOM      5  N   UNL     1       4.755   4.080  16.290  0.00  0.00    +0.000 N 
ATOM      6  C   UNL     1       3.855   3.499  17.226  0.00  0.00    +0.000 A 
ATOM      7  C   UNL     1       3.950   2.136  17.496  0.00  0.00    +0.000 A 
ATOM      8  C   UNL     1       3.066   1.579  18.417  0.00  0.00    +0.000 A 
ATOM      9  C   UNL     1       2.098   2.382  19.008  0.00  0.00    +0.000 A 
ATOM     10  C   UNL     1       2.054   3.721  18.659  0.00  0.00    +0.000 A 
ATOM     11  N   UNL     1       2.910   4.296  17.791  0.00  0.00    +0.000 NA
ENDROOT
BRANCH   1  12
ATOM     12  C   UNL     1       4.961   6.428  17.237  0.00  0.00    +0.000 C 
BRANCH  12  13
ATOM     13  N   UNL     1       6.293   6.889  17.662  0.00  0.00    +0.000 N 
ATOM     14  C   UNL     1       7.159   6.270  18.525  0.00  0.00    +0.000 A 
ATOM     15  C   UNL     1       8.273   7.071  18.595  0.00  0.00    +0.000 A 
ATOM     16  C   UNL     1       7.983   8.163  17.760  0.00  0.00    +0.000 A 
ATOM     17  N   UNL     1       6.779   8.061  17.192  0.00  0.00    +0.000 NA
ENDBRANCH  12  13
BRANCH  12  19
ATOM     18  C   UNL     1       2.946   7.858  17.857  0.00  0.00    +0.000 C 
ATOM     19  C   UNL     1       4.063   7.613  16.850  0.00  0.00    +0.000 C 
ENDBRANCH  12  19
ENDBRANCH   1  12
BRANCH   3  20
ATOM     20  C   UNL     1       6.416   3.938  13.168  0.00  0.00    +0.000 C 
BRANCH  20  21
ATOM     21  C   UNL     1       5.646   2.860  12.389  0.00  0.00    +0.000 C 
ATOM     22  C   UNL     1       4.481   3.446  11.589  0.00  0.00    +0.000 C 
ATOM     23  C   UNL     1       6.596   2.124  11.437  0.00  0.00    +0.000 C 
ENDBRANCH  20  21
ENDBRANCH   3  20
TORSDOF 5
ENDMDL
MODEL 4
REMARK VINA RESULT:      -7.0      1.394      5.107
REMARK  Name = 
REMARK  8 active torsions:
REMARK  status: ('A' for Active; 'I' for Inactive)
REMARK    1  A    between atoms: C_1  and  C_2
REMARK    2  A    between atoms: C_2  and  C_3
REMARK    3  A    between atoms: C_3  and  C_4
REMARK    4  A    between atoms: C_3  and  N_19
REMARK    5  A    between atoms: C_6  and  C_7
REMARK    6  A    between atoms: C_7  and  C_8
REMARK    7  A    between atoms: C_8  and  C_9
REMARK    8  A    between atoms: C_8  and  C_10
REMARK                            x       y       z     vdW  Elec       q    Type
REMARK                         _______ _______ _______ _____ _____    ______ ____
ROOT
ATOM      1  C   UNL     1       3.751   5.812  17.404  0.00  0.00    +0.000 A 
ATOM      2  N   UNL     1       3.675   4.494  17.297  0.00  0.00    +0.000 NA
ATOM      3  C   UNL     1       2.693   4.156  18.190  0.00  0.00    +0.000 A 
ATOM      4  N   UNL     1       2.185   5.181  18.879  0.00  0.00    +0.000 NA
ATOM      5  N   UNL     1       2.769   6.253  18.279  0.00  0.00    +0.000 N 
ATOM      6  C   UNL     1       2.305   7.577  18.515  0.00  0.00    +0.000 A 
ATOM      7  C   UNL     1       1.656   7.860  19.714  0.00  0.00    +0.000 A 
ATOM      8  C   UNL     1       1.210   9.160  19.936  0.00  0.00    +0.000 A 
ATOM      9  C   UNL     1       1.387  10.122  18.949  0.00  0.00    +0.000 A 
ATOM     10  C   UNL     1       2.015   9.748  17.773  0.00  0.00    +0.000 A 
ATOM     11  N   UNL     1       2.481   8.505  17.538  0.00  0.00    +0.000 NA
ENDROOT
BRANCH   1  12
ATOM     12  C   UNL     1       4.800   6.723  16.828  0.00  0.00    +0.000 C 
BRANCH  12  13
ATOM     13  N   UNL     1       6.034   6.574  17.617  0.00  0.00    +0.000 N 
ATOM     14  C   UNL     1       6.305   5.641  18.582  0.00  0.00    +0.000 A 
ATOM     15  C   UNL     1       7.584   5.896  19.018  0.00  0.00    +0.000 A 
ATOM     16  C   UNL     1       7.998   7.015  18.277  0.00  0.00    +0.000 A 
ATOM     17  N   UNL     1       7.060   7.436  17.425  0.00  0.00    +0.000 NA
ENDBRANCH  12  13
BRANCH  12  19
ATOM     18  C   UNL     1       5.853   5.222  15.058  0.00  0.00    +0.000 C 
ATOM     19  C   UNL     1       5.070   6.500  15.331  0.00  0.00    +0.000 C 
ENDBRANCH  12  19
ENDBRANCH   1  12
BRANCH   3  20
ATOM     20  C   UNL     1       2.203   2.761  18.386  0.00  0.00    +0.000 C 
BRANCH  20  21
ATOM     21  C   UNL     1       2.600   2.127  19.728  0.00  0.00    +0.000 C 
ATOM     22  C   UNL     1       4.038   2.466  20.125  0.00  0.00    +0.000 C 
ATOM     23  C   UNL     1       1.645   2.597  20.832  0.00  0.00    +0.000 C 
ENDBRANCH  20  21
ENDBRANCH   3  20
TORSDOF 5
ENDMDL
MODEL 5
REMARK VINA RESULT:      -6.9      0.833      1.175
REMARK  Name = 
REMARK  8 active torsions:
REMARK  status: ('A' for Active; 'I' for Inactive)
REMARK    1  A    between atoms: C_1  and  C_2
REMARK    2  A    between atoms: C_2  and  C_3
REMARK    3  A    between atoms: C_3  and  C_4
REMARK    4  A    between atoms: C_3  and  N_19
REMARK    5  A    between atoms: C_6  and  C_7
REMARK    6  A    between atoms: C_7  and  C_8
REMARK    7  A    between atoms: C_8  and  C_9
REMARK    8  A    between atoms: C_8  and  C_10
REMARK                            x       y       z     vdW  Elec       q    Type
REMARK                         _______ _______ _______ _____ _____    ______ ____
ROOT
ATOM      1  C   UNL     1       4.367   6.465  17.860  0.00  0.00    +0.000 A 
ATOM      2  N   UNL     1       3.983   7.732  17.812  0.00  0.00    +0.000 NA
ATOM      3  C   UNL     1       2.616   7.654  17.814  0.00  0.00    +0.000 A 
ATOM      4  N   UNL     1       2.126   6.411  17.814  0.00  0.00    +0.000 NA
ATOM      5  N   UNL     1       3.246   5.656  17.979  0.00  0.00    +0.000 N 
ATOM      6  C   UNL     1       3.166   4.275  18.309  0.00  0.00    +0.000 A 
ATOM      7  C   UNL     1       2.028   3.561  17.946  0.00  0.00    +0.000 A 
ATOM      8  C   UNL     1       1.962   2.208  18.271  0.00  0.00    +0.000 A 
ATOM      9  C   UNL     1       3.006   1.622  18.976  0.00  0.00    +0.000 A 
ATOM     10  C   UNL     1       4.087   2.413  19.325  0.00  0.00    +0.000 A 
ATOM     11  N   UNL     1       4.193   3.718  19.003  0.00  0.00    +0.000 NA
ENDROOT
BRANCH   1  12
ATOM     12  C   UNL     1       5.753   5.916  17.664  0.00  0.00    +0.000 C 
BRANCH  12  13
ATOM     13  N   UNL     1       5.809   5.241  16.356  0.00  0.00    +0.000 N 
ATOM     14  C   UNL     1       5.361   5.711  15.151  0.00  0.00    +0.000 A 
ATOM     15  C   UNL     1       5.647   4.736  14.225  0.00  0.00    +0.000 A 
ATOM     16  C   UNL     1       6.246   3.703  14.966  0.00  0.00    +0.000 A 
ATOM     17  N   UNL     1       6.345   4.002  16.264  0.00  0.00    +0.000 NA
ENDBRANCH  12  13
BRANCH  12  19
ATOM     18  C   UNL     1       7.990   6.521  18.722  0.00  0.00    +0.000 C 
ATOM     19  C   UNL     1       6.868   6.966  17.793  0.00  0.00    +0.000 C 
ENDBRANCH  12  19
ENDBRANCH   1  12
BRANCH   3  20
ATOM     20  C   UNL     1       1.722   8.847  17.828  0.00  0.00    +0.000 C 
BRANCH  20  21
ATOM     21  C   UNL     1       1.417   9.400  19.229  0.00  0.00    +0.000 C 
ATOM     22  C   UNL     1       0.037  10.057  19.303  0.00  0.00    +0.000 C 
ATOM     23  C   UNL     1       1.498   8.274  20.266  0.00  0.00    +0.000 C 
ENDBRANCH  20  21
ENDBRANCH   3  20
TORSDOF 5
ENDMDL
MODEL 6
REMARK VINA RESULT:      -6.8      1.720      6.267
REMARK  Name = 
REMARK  8 active torsions:
REMARK  status: ('A' for Active; 'I' for Inactive)
REMARK    1  A    between atoms: C_1  and  C_2
REMARK    2  A    between atoms: C_2  and  C_3
REMARK    3  A    between atoms: C_3  and  C_4
REMARK    4  A    between atoms: C_3  and  N_19
REMARK    5  A    between atoms: C_6  and  C_7
REMARK    6  A    between atoms: C_7  and  C_8
REMARK    7  A    between atoms: C_8  and  C_9
REMARK    8  A    between atoms: C_8  and  C_10
REMARK                            x       y       z     vdW  Elec       q    Type
REMARK                         _______ _______ _______ _____ _____    ______ ____
ROOT
ATOM      1  C   UNL     1       5.294   4.020  16.333  0.00  0.00    +0.000 A 
ATOM      2  N   UNL     1       5.092   3.545  15.113  0.00  0.00    +0.000 NA
ATOM      3  C   UNL     1       5.848   4.367  14.320  0.00  0.00    +0.000 A 
ATOM      4  N   UNL     1       6.472   5.353  14.969  0.00  0.00    +0.000 NA
ATOM      5  N   UNL     1       6.223   5.048  16.271  0.00  0.00    +0.000 N 
ATOM      6  C   UNL     1       6.931   5.684  17.329  0.00  0.00    +0.000 A 
ATOM      7  C   UNL     1       7.460   6.954  17.117  0.00  0.00    +0.000 A 
ATOM      8  C   UNL     1       8.147   7.568  18.161  0.00  0.00    +0.000 A 
ATOM      9  C   UNL     1       8.318   6.889  19.361  0.00  0.00    +0.000 A 
ATOM     10  C   UNL     1       7.786   5.616  19.476  0.00  0.00    +0.000 A 
ATOM     11  N   UNL     1       7.094   5.004  18.494  0.00  0.00    +0.000 NA
ENDROOT
BRANCH   1  12
ATOM     12  C   UNL     1       4.556   3.661  17.593  0.00  0.00    +0.000 C 
BRANCH  12  13
ATOM     13  N   UNL     1       3.876   4.865  18.098  0.00  0.00    +0.000 N 
ATOM     14  C   UNL     1       3.402   5.926  17.374  0.00  0.00    +0.000 A 
ATOM     15  C   UNL     1       2.837   6.791  18.280  0.00  0.00    +0.000 A 
ATOM     16  C   UNL     1       3.037   6.182  19.530  0.00  0.00    +0.000 A 
ATOM     17  N   UNL     1       3.672   5.011  19.428  0.00  0.00    +0.000 NA
ENDBRANCH  12  13
BRANCH  12  19
ATOM     18  C   UNL     1       3.635   1.501  18.585  0.00  0.00    +0.000 C 
ATOM     19  C   UNL     1       3.568   2.494  17.431  0.00  0.00    +0.000 C 
ENDBRANCH  12  19
ENDBRANCH   1  12
BRANCH   3  20
ATOM     20  C   UNL     1       5.990   4.187  12.846  0.00  0.00    +0.000 C 
BRANCH  20  21
ATOM     21  C   UNL     1       5.273   2.951  12.281  0.00  0.00    +0.000 C 
ATOM     22  C   UNL     1       4.119   3.327  11.350  0.00  0.00    +0.000 C 
ATOM     23  C   UNL     1       6.271   2.070  11.522  0.00  0.00    +0.000 C 
ENDBRANCH  20  21
ENDBRANCH   3  20
TORSDOF 5
ENDMDL
MODEL 7
REMARK VINA RESULT:      -6.5      1.300      1.466
REMARK  Name = 
REMARK  8 active torsions:
REMARK  status: ('A' for Active; 'I' for Inactive)
REMARK    1  A    between atoms: C_1  and  C_2
REMARK    2  A    between atoms: C_2  and  C_3
REMARK    3  A    between atoms: C_3  and  C_4
REMARK    4  A    between atoms: C_3  and  N_19
REMARK    5  A    between atoms: C_6  and  C_7
REMARK    6  A    between atoms: C_7  and  C_8
REMARK    7  A    between atoms: C_8  and  C_9
REMARK    8  A    between atoms: C_8  and  C_10
REMARK                            x       y       z     vdW  Elec       q    Type
REMARK                         _______ _______ _______ _____ _____    ______ ____
ROOT
ATOM      1  C   UNL     1       4.120   6.227  18.155  0.00  0.00    +0.000 A 
ATOM      2  N   UNL     1       4.050   7.502  17.802  0.00  0.00    +0.000 NA
ATOM      3  C   UNL     1       2.717   7.794  17.919  0.00  0.00    +0.000 A 
ATOM      4  N   UNL     1       1.947   6.764  18.278  0.00  0.00    +0.000 NA
ATOM      5  N   UNL     1       2.864   5.798  18.558  0.00  0.00    +0.000 N 
ATOM      6  C   UNL     1       2.499   4.607  19.244  0.00  0.00    +0.000 A 
ATOM      7  C   UNL     1       1.184   4.157  19.159  0.00  0.00    +0.000 A 
ATOM      8  C   UNL     1       0.839   2.988  19.831  0.00  0.00    +0.000 A 
ATOM      9  C   UNL     1       1.796   2.327  20.592  0.00  0.00    +0.000 A 
ATOM     10  C   UNL     1       3.073   2.861  20.647  0.00  0.00    +0.000 A 
ATOM     11  N   UNL     1       3.445   3.976  19.987  0.00  0.00    +0.000 NA
ENDROOT
BRANCH   1  12
ATOM     12  C   UNL     1       5.294   5.297  18.014  0.00  0.00    +0.000 C 
BRANCH  12  13
ATOM     13  N   UNL     1       5.462   4.965  16.589  0.00  0.00    +0.000 N 
ATOM     14  C   UNL     1       5.643   5.830  15.543  0.00  0.00    +0.000 A 
ATOM     15  C   UNL     1       5.765   5.052  14.416  0.00  0.00    +0.000 A 
ATOM     16  C   UNL     1       5.621   3.732  14.874  0.00  0.00    +0.000 A 
ATOM     17  N   UNL     1       5.433   3.671  16.195  0.00  0.00    +0.000 NA
ENDBRANCH  12  13
BRANCH  12  19
ATOM     18  C   UNL     1       7.810   4.982  18.266  0.00  0.00    +0.000 C 
ATOM     19  C   UNL     1       6.601   5.842  18.613  0.00  0.00    +0.000 C 
ENDBRANCH  12  19
ENDBRANCH   1  12
BRANCH   3  20
ATOM     20  C   UNL     1       2.148   9.151  17.681  0.00  0.00    +0.000 C 
BRANCH  20  21
ATOM     21  C   UNL     1       0.976   9.524  18.603  0.00  0.00    +0.000 C 
ATOM     22  C   UNL     1       1.258  10.792  19.412  0.00  0.00    +0.000 C 
ATOM     23  C   UNL     1      -0.299   9.723  17.775  0.00  0.00    +0.000 C 
ENDBRANCH  20  21
ENDBRANCH   3  20
TORSDOF 5
ENDMDL
MODEL 8
REMARK VINA RESULT:      -6.5      1.728      5.545
REMARK  Name = 
REMARK  8 active torsions:
REMARK  status: ('A' for Active; 'I' for Inactive)
REMARK    1  A    between atoms: C_1  and  C_2
REMARK    2  A    between atoms: C_2  and  C_3
REMARK    3  A    between atoms: C_3  and  C_4
REMARK    4  A    between atoms: C_3  and  N_19
REMARK    5  A    between atoms: C_6  and  C_7
REMARK    6  A    between atoms: C_7  and  C_8
REMARK    7  A    between atoms: C_8  and  C_9
REMARK    8  A    between atoms: C_8  and  C_10
REMARK                            x       y       z     vdW  Elec       q    Type
REMARK                         _______ _______ _______ _____ _____    ______ ____
ROOT
ATOM      1  C   UNL     1       3.656   5.728  18.533  0.00  0.00    +0.000 A 
ATOM      2  N   UNL     1       4.821   5.333  18.042  0.00  0.00    +0.000 NA
ATOM      3  C   UNL     1       5.232   6.402  17.291  0.00  0.00    +0.000 A 
ATOM      4  N   UNL     1       4.370   7.421  17.249  0.00  0.00    +0.000 NA
ATOM      5  N   UNL     1       3.425   7.042  18.151  0.00  0.00    +0.000 N 
ATOM      6  C   UNL     1       2.450   7.959  18.632  0.00  0.00    +0.000 A 
ATOM      7  C   UNL     1       2.094   9.043  17.834  0.00  0.00    +0.000 A 
ATOM      8  C   UNL     1       1.135   9.932  18.312  0.00  0.00    +0.000 A 
ATOM      9  C   UNL     1       0.592   9.737  19.577  0.00  0.00    +0.000 A 
ATOM     10  C   UNL     1       1.025   8.650  20.317  0.00  0.00    +0.000 A 
ATOM     11  N   UNL     1       1.933   7.758  19.872  0.00  0.00    +0.000 NA
ENDROOT
BRANCH   1  12
ATOM     12  C   UNL     1       2.632   4.896  19.255  0.00  0.00    +0.000 C 
BRANCH  12  13
ATOM     13  N   UNL     1       2.735   3.507  18.778  0.00  0.00    +0.000 N 
ATOM     14  C   UNL     1       3.706   2.588  19.075  0.00  0.00    +0.000 A 
ATOM     15  C   UNL     1       3.365   1.436  18.409  0.00  0.00    +0.000 A 
ATOM     16  C   UNL     1       2.186   1.758  17.716  0.00  0.00    +0.000 A 
ATOM     17  N   UNL     1       1.798   3.018  17.933  0.00  0.00    +0.000 NA
ENDBRANCH  12  13
BRANCH  12  19
ATOM     18  C   UNL     1       1.958   3.852  21.479  0.00  0.00    +0.000 C 
ATOM     19  C   UNL     1       2.737   4.964  20.787  0.00  0.00    +0.000 C 
ENDBRANCH  12  19
ENDBRANCH   1  12
BRANCH   3  20
ATOM     20  C   UNL     1       6.540   6.453  16.577  0.00  0.00    +0.000 C 
BRANCH  20  21
ATOM     21  C   UNL     1       7.718   6.939  17.436  0.00  0.00    +0.000 C 
ATOM     22  C   UNL     1       7.666   8.447  17.689  0.00  0.00    +0.000 C 
ATOM     23  C   UNL     1       7.727   6.199  18.778  0.00  0.00    +0.000 C 
ENDBRANCH  20  21
ENDBRANCH   3  20
TORSDOF 5
ENDMDL
MODEL 9
REMARK VINA RESULT:      -6.4      1.625      5.125
REMARK  Name = 
REMARK  8 active torsions:
REMARK  status: ('A' for Active; 'I' for Inactive)
REMARK    1  A    between atoms: C_1  and  C_2
REMARK    2  A    between atoms: C_2  and  C_3
REMARK    3  A    between atoms: C_3  and  C_4
REMARK    4  A    between atoms: C_3  and  N_19
REMARK    5  A    between atoms: C_6  and  C_7
REMARK    6  A    between atoms: C_7  and  C_8
REMARK    7  A    between atoms: C_8  and  C_9
REMARK    8  A    between atoms: C_8  and  C_10
REMARK                            x       y       z     vdW  Elec       q    Type
REMARK                         _______ _______ _______ _____ _____    ______ ____
ROOT
ATOM      1  C   UNL     1       5.009   5.159  16.516  0.00  0.00    +0.000 A 
ATOM      2  N   UNL     1       5.747   5.118  15.416  0.00  0.00    +0.000 NA
ATOM      3  C   UNL     1       5.664   3.808  15.024  0.00  0.00    +0.000 A 
ATOM      4  N   UNL     1       4.956   3.023  15.840  0.00  0.00    +0.000 NA
ATOM      5  N   UNL     1       4.428   3.916  16.720  0.00  0.00    +0.000 N 
ATOM      6  C   UNL     1       3.380   3.550  17.609  0.00  0.00    +0.000 A 
ATOM      7  C   UNL     1       3.251   2.215  17.983  0.00  0.00    +0.000 A 
ATOM      8  C   UNL     1       2.224   1.868  18.857  0.00  0.00    +0.000 A 
ATOM      9  C   UNL     1       1.340   2.847  19.298  0.00  0.00    +0.000 A 
ATOM     10  C   UNL     1       1.523   4.144  18.852  0.00  0.00    +0.000 A 
ATOM     11  N   UNL     1       2.522   4.517  18.026  0.00  0.00    +0.000 NA
ENDROOT
BRANCH   1  12
ATOM     12  C   UNL     1       4.904   6.283  17.510  0.00  0.00    +0.000 C 
BRANCH  12  13
ATOM     13  N   UNL     1       6.260   6.643  17.957  0.00  0.00    +0.000 N 
ATOM     14  C   UNL     1       7.006   7.728  17.581  0.00  0.00    +0.000 A 
ATOM     15  C   UNL     1       8.190   7.641  18.274  0.00  0.00    +0.000 A 
ATOM     16  C   UNL     1       8.079   6.460  19.027  0.00  0.00    +0.000 A 
ATOM     17  N   UNL     1       6.909   5.845  18.837  0.00  0.00    +0.000 NA
ENDBRANCH  12  13
BRANCH  12  19
ATOM     18  C   UNL     1       2.970   7.903  17.870  0.00  0.00    +0.000 C 
ATOM     19  C   UNL     1       4.149   7.515  16.986  0.00  0.00    +0.000 C 
ENDBRANCH  12  19
ENDBRANCH   1  12
BRANCH   3  20
ATOM     20  C   UNL     1       6.294   3.279  13.781  0.00  0.00    +0.000 C 
BRANCH  20  21
ATOM     21  C   UNL     1       5.909   4.032  12.498  0.00  0.00    +0.000 C 
ATOM     22  C   UNL     1       7.117   4.292  11.596  0.00  0.00    +0.000 C 
ATOM     23  C   UNL     1       4.856   3.235  11.720  0.00  0.00    +0.000 C 
ENDBRANCH  20  21
ENDBRANCH   3  20
TORSDOF 5
ENDMDL
