MODEL 1
REMARK VINA RESULT:      -8.1      0.000      0.000
REMARK  Name = 
REMARK  4 active torsions:
REMARK  status: ('A' for Active; 'I' for Inactive)
REMARK    1  A    between atoms: C_1  and  C_2
REMARK    2  A    between atoms: C_2  and  C_4
REMARK    3  A    between atoms: N_6  and  C_7
REMARK    4  A    between atoms: C_7  and  C_8
REMARK                            x       y       z     vdW  Elec       q    Type
REMARK                         _______ _______ _______ _____ _____    ______ ____
ROOT
ATOM      1  C   UNL     1       6.386   5.078  16.401  0.00  0.00    +0.000 C 
ATOM      2  C   UNL     1       5.187   5.620  16.681  0.00  0.00    +0.000 C 
ATOM      3  N   UNL     1       4.661   5.806  17.955  0.00  0.00    +0.000 N 
ATOM      4  C   UNL     1       5.251   5.033  19.050  0.00  0.00    +0.000 C 
ATOM      5  C   UNL     1       6.763   5.119  18.961  0.00  0.00    +0.000 C 
ATOM      6  C   UNL     1       7.243   4.745  17.575  0.00  0.00    +0.000 C 
ATOM      7  O   UNL     1       8.359   4.244  17.425  0.00  0.00    +0.000 OA
ENDROOT
BRANCH   1   9
ATOM      8  C   UNL     1       5.903   3.913  14.143  0.00  0.00    +0.000 C 
ATOM      9  C   UNL     1       6.749   4.840  14.973  0.00  0.00    +0.000 C 
ATOM     10  O   UNL     1       7.716   5.417  14.467  0.00  0.00    +0.000 OA
ENDBRANCH   1   9
BRANCH   3  11
ATOM     11  C   UNL     1       3.297   6.305  18.176  0.00  0.00    +0.000 C 
BRANCH  11  12
ATOM     12  C   UNL     1       2.385   5.225  18.715  0.00  0.00    +0.000 A 
ATOM     13  C   UNL     1       1.972   4.164  17.896  0.00  0.00    +0.000 A 
ATOM     14  C   UNL     1       1.185   3.130  18.410  0.00  0.00    +0.000 A 
ATOM     15  C   UNL     1       0.795   3.148  19.747  0.00  0.00    +0.000 A 
ATOM     16  C   UNL     1       1.175   4.209  20.567  0.00  0.00    +0.000 A 
ATOM     17  C   UNL     1       1.960   5.245  20.053  0.00  0.00    +0.000 A 
ENDBRANCH  11  12
ENDBRANCH   3  11
TORSDOF 3
ENDMDL
MODEL 2
REMARK VINA RESULT:      -8.0      0.125      1.176
REMARK  Name = 
REMARK  4 active torsions:
REMARK  status: ('A' for Active; 'I' for Inactive)
REMARK    1  A    between atoms: C_1  and  C_2
REMARK    2  A    between atoms: C_2  and  C_4
REMARK    3  A    between atoms: N_6  and  C_7
REMARK    4  A    between atoms: C_7  and  C_8
REMARK                            x       y       z     vdW  Elec       q    Type
REMARK                         _______ _______ _______ _____ _____    ______ ____
ROOT
ATOM      1  C   UNL     1       6.371   5.038  16.338  0.00  0.00    +0.000 C 
ATOM      2  C   UNL     1       5.153   5.537  16.619  0.00  0.00    +0.000 C 
ATOM      3  N   UNL     1       4.616   5.691  17.893  0.00  0.00    +0.000 N 
ATOM      4  C   UNL     1       5.226   4.925  18.982  0.00  0.00    +0.000 C 
ATOM      5  C   UNL     1       6.735   5.061  18.900  0.00  0.00    +0.000 C 
ATOM      6  C   UNL     1       7.233   4.719  17.512  0.00  0.00    +0.000 C 
ATOM      7  O   UNL     1       8.365   4.256  17.363  0.00  0.00    +0.000 OA
ENDROOT
BRANCH   1   9
ATOM      8  C   UNL     1       5.913   3.914  14.054  0.00  0.00    +0.000 C 
ATOM      9  C   UNL     1       6.748   4.828  14.910  0.00  0.00    +0.000 C 
ATOM     10  O   UNL     1       7.716   5.418  14.423  0.00  0.00    +0.000 OA
ENDBRANCH   1   9
BRANCH   3  11
ATOM     11  C   UNL     1       3.235   6.143  18.112  0.00  0.00    +0.000 C 
BRANCH  11  12
ATOM     12  C   UNL     1       2.376   5.050  18.708  0.00  0.00    +0.000 A 
ATOM     13  C   UNL     1       1.966   5.112  20.049  0.00  0.00    +0.000 A 
ATOM     14  C   UNL     1       1.118   4.140  20.582  0.00  0.00    +0.000 A 
ATOM     15  C   UNL     1       0.674   3.087  19.785  0.00  0.00    +0.000 A 
ATOM     16  C   UNL     1       1.094   2.995  18.459  0.00  0.00    +0.000 A 
ATOM     17  C   UNL     1       1.945   3.967  17.925  0.00  0.00    +0.000 A 
ENDBRANCH  11  12
ENDBRANCH   3  11
TORSDOF 3
ENDMDL
MODEL 3
REMARK VINA RESULT:      -7.6      1.268      2.614
REMARK  Name = 
REMARK  4 active torsions:
REMARK  status: ('A' for Active; 'I' for Inactive)
REMARK    1  A    between atoms: C_1  and  C_2
REMARK    2  A    between atoms: C_2  and  C_4
REMARK    3  A    between atoms: N_6  and  C_7
REMARK    4  A    between atoms: C_7  and  C_8
REMARK                            x       y       z     vdW  Elec       q    Type
REMARK                         _______ _______ _______ _____ _____    ______ ____
ROOT
ATOM      1  C   UNL     1       6.642   5.396  18.070  0.00  0.00    +0.000 C 
ATOM      2  C   UNL     1       5.350   5.661  18.334  0.00  0.00    +0.000 C 
ATOM      3  N   UNL     1       4.266   5.252  17.563  0.00  0.00    +0.000 N 
ATOM      4  C   UNL     1       4.533   4.842  16.183  0.00  0.00    +0.000 C 
ATOM      5  C   UNL     1       5.723   3.901  16.167  0.00  0.00    +0.000 C 
ATOM      6  C   UNL     1       6.901   4.508  16.899  0.00  0.00    +0.000 C 
ATOM      7  O   UNL     1       8.050   4.206  16.572  0.00  0.00    +0.000 OA
ENDROOT
BRANCH   1   9
ATOM      8  C   UNL     1       8.239   7.366  18.576  0.00  0.00    +0.000 C 
ATOM      9  C   UNL     1       7.692   6.010  18.934  0.00  0.00    +0.000 C 
ATOM     10  O   UNL     1       8.089   5.429  19.948  0.00  0.00    +0.000 OA
ENDBRANCH   1   9
BRANCH   3  11
ATOM     11  C   UNL     1       2.890   5.675  17.859  0.00  0.00    +0.000 C 
BRANCH  11  12
ATOM     12  C   UNL     1       2.196   4.712  18.796  0.00  0.00    +0.000 A 
ATOM     13  C   UNL     1       1.494   3.606  18.294  0.00  0.00    +0.000 A 
ATOM     14  C   UNL     1       0.910   2.679  19.159  0.00  0.00    +0.000 A 
ATOM     15  C   UNL     1       1.012   2.849  20.538  0.00  0.00    +0.000 A 
ATOM     16  C   UNL     1       1.683   3.957  21.053  0.00  0.00    +0.000 A 
ATOM     17  C   UNL     1       2.266   4.887  20.188  0.00  0.00    +0.000 A 
ENDBRANCH  11  12
ENDBRANCH   3  11
TORSDOF 3
ENDMDL
MODEL 4
REMARK VINA RESULT:      -7.5      1.482      2.697
REMARK  Name = 
REMARK  4 active torsions:
REMARK  status: ('A' for Active; 'I' for Inactive)
REMARK    1  A    between atoms: C_1  and  C_2
REMARK    2  A    between atoms: C_2  and  C_4
REMARK    3  A    between atoms: N_6  and  C_7
REMARK    4  A    between atoms: C_7  and  C_8
REMARK                            x       y       z     vdW  Elec       q    Type
REMARK                         _______ _______ _______ _____ _____    ______ ____
ROOT
ATOM      1  C   UNL     1       6.579   5.820  17.657  0.00  0.00    +0.000 C 
ATOM      2  C   UNL     1       5.293   6.014  18.001  0.00  0.00    +0.000 C 
ATOM      3  N   UNL     1       4.205   5.308  17.498  0.00  0.00    +0.000 N 
ATOM      4  C   UNL     1       4.396   4.576  16.244  0.00  0.00    +0.000 C 
ATOM      5  C   UNL     1       5.691   3.789  16.321  0.00  0.00    +0.000 C 
ATOM      6  C   UNL     1       6.842   4.685  16.726  0.00  0.00    +0.000 C 
ATOM      7  O   UNL     1       7.986   4.425  16.349  0.00  0.00    +0.000 OA
ENDROOT
BRANCH   1   9
ATOM      8  C   UNL     1       7.789   8.105  17.582  0.00  0.00    +0.000 C 
ATOM      9  C   UNL     1       7.615   6.745  18.203  0.00  0.00    +0.000 C 
ATOM     10  O   UNL     1       8.304   6.414  19.171  0.00  0.00    +0.000 OA
ENDBRANCH   1   9
BRANCH   3  11
ATOM     11  C   UNL     1       2.819   5.653  17.843  0.00  0.00    +0.000 C 
BRANCH  11  12
ATOM     12  C   UNL     1       2.247   4.709  18.877  0.00  0.00    +0.000 A 
ATOM     13  C   UNL     1       2.398   4.973  20.247  0.00  0.00    +0.000 A 
ATOM     14  C   UNL     1       1.813   4.139  21.203  0.00  0.00    +0.000 A 
ATOM     15  C   UNL     1       1.077   3.026  20.803  0.00  0.00    +0.000 A 
ATOM     16  C   UNL     1       0.940   2.735  19.447  0.00  0.00    +0.000 A 
ATOM     17  C   UNL     1       1.527   3.568  18.489  0.00  0.00    +0.000 A 
ENDBRANCH  11  12
ENDBRANCH   3  11
TORSDOF 3
ENDMDL
MODEL 5
REMARK VINA RESULT:      -7.4      1.068      2.772
REMARK  Name = 
REMARK  4 active torsions:
REMARK  status: ('A' for Active; 'I' for Inactive)
REMARK    1  A    between atoms: C_1  and  C_2
REMARK    2  A    between atoms: C_2  and  C_4
REMARK    3  A    between atoms: N_6  and  C_7
REMARK    4  A    between atoms: C_7  and  C_8
REMARK                            x       y       z     vdW  Elec       q    Type
REMARK                         _______ _______ _______ _____ _____    ______ ____
ROOT
ATOM      1  C   UNL     1       6.505   5.519  17.640  0.00  0.00    +0.000 C 
ATOM      2  C   UNL     1       5.366   5.692  18.334  0.00  0.00    +0.000 C 
ATOM      3  N   UNL     1       4.192   6.247  17.836  0.00  0.00    +0.000 N 
ATOM      4  C   UNL     1       4.287   7.048  16.613  0.00  0.00    +0.000 C 
ATOM      5  C   UNL     1       5.124   6.298  15.594  0.00  0.00    +0.000 C 
ATOM      6  C   UNL     1       6.449   5.874  16.192  0.00  0.00    +0.000 C 
ATOM      7  O   UNL     1       7.439   5.753  15.469  0.00  0.00    +0.000 OA
ENDROOT
BRANCH   1   9
ATOM      8  C   UNL     1       8.092   5.630  19.679  0.00  0.00    +0.000 C 
ATOM      9  C   UNL     1       7.713   5.017  18.358  0.00  0.00    +0.000 C 
ATOM     10  O   UNL     1       8.381   4.090  17.891  0.00  0.00    +0.000 OA
ENDBRANCH   1   9
BRANCH   3  11
ATOM     11  C   UNL     1       3.022   6.504  18.689  0.00  0.00    +0.000 C 
BRANCH  11  12
ATOM     12  C   UNL     1       2.306   5.224  19.057  0.00  0.00    +0.000 A 
ATOM     13  C   UNL     1       2.009   4.931  20.397  0.00  0.00    +0.000 A 
ATOM     14  C   UNL     1       1.288   3.783  20.734  0.00  0.00    +0.000 A 
ATOM     15  C   UNL     1       0.862   2.908  19.738  0.00  0.00    +0.000 A 
ATOM     16  C   UNL     1       1.173   3.170  18.404  0.00  0.00    +0.000 A 
ATOM     17  C   UNL     1       1.897   4.317  18.066  0.00  0.00    +0.000 A 
ENDBRANCH  11  12
ENDBRANCH   3  11
TORSDOF 3
ENDMDL
MODEL 6
REMARK VINA RESULT:      -7.4      1.554      1.890
REMARK  Name = 
REMARK  4 active torsions:
REMARK  status: ('A' for Active; 'I' for Inactive)
REMARK    1  A    between atoms: C_1  and  C_2
REMARK    2  A    between atoms: C_2  and  C_4
REMARK    3  A    between atoms: N_6  and  C_7
REMARK    4  A    between atoms: C_7  and  C_8
REMARK                            x       y       z     vdW  Elec       q    Type
REMARK                         _______ _______ _______ _____ _____    ______ ____
ROOT
ATOM      1  C   UNL     1       6.271   4.833  15.777  0.00  0.00    +0.000 C 
ATOM      2  C   UNL     1       5.323   3.944  16.122  0.00  0.00    +0.000 C 
ATOM      3  N   UNL     1       4.770   3.802  17.391  0.00  0.00    +0.000 N 
ATOM      4  C   UNL     1       5.511   4.371  18.519  0.00  0.00    +0.000 C 
ATOM      5  C   UNL     1       5.950   5.779  18.164  0.00  0.00    +0.000 C 
ATOM      6  C   UNL     1       6.680   5.798  16.838  0.00  0.00    +0.000 C 
ATOM      7  O   UNL     1       7.542   6.652  16.623  0.00  0.00    +0.000 OA
ENDROOT
BRANCH   1   9
ATOM      8  C   UNL     1       6.209   3.867  13.378  0.00  0.00    +0.000 C 
ATOM      9  C   UNL     1       6.842   4.774  14.400  0.00  0.00    +0.000 C 
ATOM     10  O   UNL     1       7.805   5.480  14.088  0.00  0.00    +0.000 OA
ENDBRANCH   1   9
BRANCH   3  11
ATOM     11  C   UNL     1       3.815   2.733  17.716  0.00  0.00    +0.000 C 
BRANCH  11  12
ATOM     12  C   UNL     1       3.012   3.056  18.956  0.00  0.00    +0.000 A 
ATOM     13  C   UNL     1       1.886   3.890  18.881  0.00  0.00    +0.000 A 
ATOM     14  C   UNL     1       1.104   4.135  20.012  0.00  0.00    +0.000 A 
ATOM     15  C   UNL     1       1.441   3.558  21.233  0.00  0.00    +0.000 A 
ATOM     16  C   UNL     1       2.572   2.749  21.331  0.00  0.00    +0.000 A 
ATOM     17  C   UNL     1       3.357   2.505  20.200  0.00  0.00    +0.000 A 
ENDBRANCH  11  12
ENDBRANCH   3  11
TORSDOF 3
ENDMDL
MODEL 7
REMARK VINA RESULT:      -7.4      1.529      2.374
REMARK  Name = 
REMARK  4 active torsions:
REMARK  status: ('A' for Active; 'I' for Inactive)
REMARK    1  A    between atoms: C_1  and  C_2
REMARK    2  A    between atoms: C_2  and  C_4
REMARK    3  A    between atoms: N_6  and  C_7
REMARK    4  A    between atoms: C_7  and  C_8
REMARK                            x       y       z     vdW  Elec       q    Type
REMARK                         _______ _______ _______ _____ _____    ______ ____
ROOT
ATOM      1  C   UNL     1       6.388   5.950  17.390  0.00  0.00    +0.000 C 
ATOM      2  C   UNL     1       5.128   6.146  17.817  0.00  0.00    +0.000 C 
ATOM      3  N   UNL     1       4.039   5.330  17.527  0.00  0.00    +0.000 N 
ATOM      4  C   UNL     1       4.161   4.419  16.387  0.00  0.00    +0.000 C 
ATOM      5  C   UNL     1       5.497   3.704  16.464  0.00  0.00    +0.000 C 
ATOM      6  C   UNL     1       6.631   4.695  16.622  0.00  0.00    +0.000 C 
ATOM      7  O   UNL     1       7.750   4.422  16.186  0.00  0.00    +0.000 OA
ENDROOT
BRANCH   1   9
ATOM      8  C   UNL     1       8.251   6.855  18.939  0.00  0.00    +0.000 C 
ATOM      9  C   UNL     1       7.418   6.987  17.693  0.00  0.00    +0.000 C 
ATOM     10  O   UNL     1       7.607   7.929  16.919  0.00  0.00    +0.000 OA
ENDBRANCH   1   9
BRANCH   3  11
ATOM     11  C   UNL     1       2.671   5.671  17.941  0.00  0.00    +0.000 C 
BRANCH  11  12
ATOM     12  C   UNL     1       2.155   4.729  19.005  0.00  0.00    +0.000 A 
ATOM     13  C   UNL     1       1.330   3.646  18.662  0.00  0.00    +0.000 A 
ATOM     14  C   UNL     1       0.908   2.736  19.634  0.00  0.00    +0.000 A 
ATOM     15  C   UNL     1       1.296   2.900  20.961  0.00  0.00    +0.000 A 
ATOM     16  C   UNL     1       2.092   3.985  21.323  0.00  0.00    +0.000 A 
ATOM     17  C   UNL     1       2.514   4.898  20.352  0.00  0.00    +0.000 A 
ENDBRANCH  11  12
ENDBRANCH   3  11
TORSDOF 3
ENDMDL
MODEL 8
REMARK VINA RESULT:      -7.3      1.634      2.341
REMARK  Name = 
REMARK  4 active torsions:
REMARK  status: ('A' for Active; 'I' for Inactive)
REMARK    1  A    between atoms: C_1  and  C_2
REMARK    2  A    between atoms: C_2  and  C_4
REMARK    3  A    between atoms: N_6  and  C_7
REMARK    4  A    between atoms: C_7  and  C_8
REMARK                            x       y       z     vdW  Elec       q    Type
REMARK                         _______ _______ _______ _____ _____    ______ ____
ROOT
ATOM      1  C   UNL     1       5.617   5.188  16.428  0.00  0.00    +0.000 C 
ATOM      2  C   UNL     1       4.556   4.381  16.606  0.00  0.00    +0.000 C 
ATOM      3  N   UNL     1       3.385   4.719  17.275  0.00  0.00    +0.000 N 
ATOM      4  C   UNL     1       3.429   5.873  18.176  0.00  0.00    +0.000 C 
ATOM      5  C   UNL     1       4.123   7.025  17.473  0.00  0.00    +0.000 C 
ATOM      6  C   UNL     1       5.461   6.589  16.916  0.00  0.00    +0.000 C 
ATOM      7  O   UNL     1       6.375   7.408  16.801  0.00  0.00    +0.000 OA
ENDROOT
BRANCH   1   9
ATOM      8  C   UNL     1       6.840   4.343  14.311  0.00  0.00    +0.000 C 
ATOM      9  C   UNL     1       6.845   4.630  15.789  0.00  0.00    +0.000 C 
ATOM     10  O   UNL     1       7.864   4.430  16.456  0.00  0.00    +0.000 OA
ENDBRANCH   1   9
BRANCH   3  11
ATOM     11  C   UNL     1       2.313   3.744  17.523  0.00  0.00    +0.000 C 
BRANCH  11  12
ATOM     12  C   UNL     1       2.266   3.320  18.974  0.00  0.00    +0.000 A 
ATOM     13  C   UNL     1       3.394   2.758  19.591  0.00  0.00    +0.000 A 
ATOM     14  C   UNL     1       3.374   2.428  20.948  0.00  0.00    +0.000 A 
ATOM     15  C   UNL     1       2.225   2.646  21.704  0.00  0.00    +0.000 A 
ATOM     16  C   UNL     1       1.087   3.178  21.099  0.00  0.00    +0.000 A 
ATOM     17  C   UNL     1       1.105   3.507  19.741  0.00  0.00    +0.000 A 
ENDBRANCH  11  12
ENDBRANCH   3  11
TORSDOF 3
ENDMDL
MODEL 9
REMARK VINA RESULT:      -7.3      1.545      1.975
REMARK  Name = 
REMARK  4 active torsions:
REMARK  status: ('A' for Active; 'I' for Inactive)
REMARK    1  A    between atoms: C_1  and  C_2
REMARK    2  A    between atoms: C_2  and  C_4
REMARK    3  A    between atoms: N_6  and  C_7
REMARK    4  A    between atoms: C_7  and  C_8
REMARK                            x       y       z     vdW  Elec       q    Type
REMARK                         _______ _______ _______ _____ _____    ______ ____
ROOT
ATOM      1  C   UNL     1       6.292   4.842  15.753  0.00  0.00    +0.000 C 
ATOM      2  C   UNL     1       5.349   3.947  16.095  0.00  0.00    +0.000 C 
ATOM      3  N   UNL     1       4.792   3.803  17.362  0.00  0.00    +0.000 N 
ATOM      4  C   UNL     1       5.524   4.379  18.492  0.00  0.00    +0.000 C 
ATOM      5  C   UNL     1       5.954   5.790  18.137  0.00  0.00    +0.000 C 
ATOM      6  C   UNL     1       6.689   5.812  16.814  0.00  0.00    +0.000 C 
ATOM      7  O   UNL     1       7.546   6.673  16.601  0.00  0.00    +0.000 OA
ENDROOT
BRANCH   1   9
ATOM      8  C   UNL     1       6.276   3.840  13.369  0.00  0.00    +0.000 C 
ATOM      9  C   UNL     1       6.870   4.785  14.378  0.00  0.00    +0.000 C 
ATOM     10  O   UNL     1       7.805   5.524  14.058  0.00  0.00    +0.000 OA
ENDBRANCH   1   9
BRANCH   3  11
ATOM     11  C   UNL     1       3.845   2.727  17.684  0.00  0.00    +0.000 C 
BRANCH  11  12
ATOM     12  C   UNL     1       3.018   3.055  18.908  0.00  0.00    +0.000 A 
ATOM     13  C   UNL     1       3.299   2.452  20.143  0.00  0.00    +0.000 A 
ATOM     14  C   UNL     1       2.581   2.804  21.289  0.00  0.00    +0.000 A 
ATOM     15  C   UNL     1       1.568   3.756  21.213  0.00  0.00    +0.000 A 
ATOM     16  C   UNL     1       1.258   4.345  19.988  0.00  0.00    +0.000 A 
ATOM     17  C   UNL     1       1.975   3.992  18.841  0.00  0.00    +0.000 A 
ENDBRANCH  11  12
ENDBRANCH   3  11
TORSDOF 3
ENDMDL
