MODEL 1
REMARK VINA RESULT:      -9.4      0.000      0.000
REMARK  Name = 
REMARK  4 active torsions:
REMARK  status: ('A' for Active; 'I' for Inactive)
REMARK    1  A    between atoms: C_1  and  N_2
REMARK    2  A    between atoms: N_9  and  C_10
REMARK    3  A    between atoms: C_10  and  C_11
REMARK    4  A    between atoms: N_25  and  C_26
REMARK                            x       y       z     vdW  Elec       q    Type
REMARK                         _______ _______ _______ _____ _____    ______ ____
ROOT
ATOM      1  C   UNL     1       0.761   2.955  19.717  0.00  0.00    +0.000 C 
ATOM      2  N   UNL     1       2.157   2.989  19.287  0.00  0.00    +0.000 NA
ATOM      3  C   UNL     1       2.725   4.348  19.468  0.00  0.00    +0.000 C 
ATOM      4  C   UNL     1       4.178   4.476  18.940  0.00  0.00    +0.000 C 
ATOM      5  N   UNL     1       4.216   4.047  17.539  0.00  0.00    +0.000 N 
ATOM      6  C   UNL     1       5.227   4.503  16.719  0.00  0.00    +0.000 A 
ATOM      7  N   UNL     1       6.045   5.473  17.180  0.00  0.00    +0.000 NA
ATOM      8  C   UNL     1       7.035   5.988  16.412  0.00  0.00    +0.000 A 
ATOM      9  N   UNL     1       7.936   6.938  16.927  0.00  0.00    +0.000 N 
ATOM     10  C   UNL     1       7.183   5.468  15.116  0.00  0.00    +0.000 A 
ATOM     11  N   UNL     1       8.095   5.736  14.125  0.00  0.00    +0.000 NA
ATOM     12  C   UNL     1       7.707   4.984  13.118  0.00  0.00    +0.000 A 
ATOM     13  N   UNL     1       6.566   4.248  13.385  0.00  0.00    +0.000 N 
ATOM     14  C   UNL     1       6.267   4.522  14.714  0.00  0.00    +0.000 A 
ATOM     15  N   UNL     1       5.290   4.001  15.477  0.00  0.00    +0.000 NA
ATOM     16  C   UNL     1       3.710   2.688  17.325  0.00  0.00    +0.000 C 
ATOM     17  C   UNL     1       2.264   2.596  17.862  0.00  0.00    +0.000 C 
ATOM     18  H   UNL     1       8.698   6.387  17.318  0.00  0.00    +0.000 HD
ENDROOT
BRANCH  13  19
ATOM     19  C   UNL     1       5.866   3.423  12.463  0.00  0.00    +0.000 A 
ATOM     20  C   UNL     1       4.586   3.768  12.008  0.00  0.00    +0.000 A 
ATOM     21  C   UNL     1       3.911   2.928  11.125  0.00  0.00    +0.000 A 
ATOM     22  C   UNL     1       4.534   1.762  10.717  0.00  0.00    +0.000 A 
ATOM     23  N   UNL     1       5.762   1.396  11.132  0.00  0.00    +0.000 NA
ATOM     24  C   UNL     1       6.401   2.226  11.994  0.00  0.00    +0.000 A 
ENDBRANCH  13  19
BRANCH   9  25
ATOM     25  C   UNL     1       7.361   7.798  17.960  0.00  0.00    +0.000 C 
BRANCH  25  26
ATOM     26  C   UNL     1       8.153   9.050  18.186  0.00  0.00    +0.000 A 
ATOM     27  N   UNL     1       8.113  10.151  17.462  0.00  0.00    +0.000 NA
ATOM     28  C   UNL     1       8.994  11.017  18.051  0.00  0.00    +0.000 A 
ATOM     29  C   UNL     1       9.342  12.320  17.675  0.00  0.00    +0.000 A 
ATOM     30  C   UNL     1      10.288  12.989  18.452  0.00  0.00    +0.000 A 
ATOM     31  F   UNL     1      10.644  14.235  18.104  0.00  0.00    +0.000 F 
ATOM     32  C   UNL     1      10.864  12.391  19.568  0.00  0.00    +0.000 A 
ATOM     33  F   UNL     1      11.773  13.066  20.287  0.00  0.00    +0.000 F 
ATOM     34  C   UNL     1      10.523  11.096  19.967  0.00  0.00    +0.000 A 
ATOM     35  C   UNL     1       9.582  10.438  19.173  0.00  0.00    +0.000 A 
ATOM     36  N   UNL     1       9.020   9.188  19.243  0.00  0.00    +0.000 N 
ATOM     37  H   UNL     1       9.190   8.484  19.951  0.00  0.00    +0.000 HD
ENDBRANCH  25  26
ENDBRANCH   9  25
TORSDOF 3
ENDMDL
MODEL 2
REMARK VINA RESULT:      -9.0      0.141      1.187
REMARK  Name = 
REMARK  4 active torsions:
REMARK  status: ('A' for Active; 'I' for Inactive)
REMARK    1  A    between atoms: C_1  and  N_2
REMARK    2  A    between atoms: N_9  and  C_10
REMARK    3  A    between atoms: C_10  and  C_11
REMARK    4  A    between atoms: N_25  and  C_26
REMARK                            x       y       z     vdW  Elec       q    Type
REMARK                         _______ _______ _______ _____ _____    ______ ____
ROOT
ATOM      1  C   UNL     1       0.903   2.827  19.699  0.00  0.00    +0.000 C 
ATOM      2  N   UNL     1       2.297   2.909  19.269  0.00  0.00    +0.000 NA
ATOM      3  C   UNL     1       2.811   4.292  19.431  0.00  0.00    +0.000 C 
ATOM      4  C   UNL     1       4.258   4.470  18.902  0.00  0.00    +0.000 C 
ATOM      5  N   UNL     1       4.314   4.023  17.506  0.00  0.00    +0.000 N 
ATOM      6  C   UNL     1       5.306   4.507  16.680  0.00  0.00    +0.000 A 
ATOM      7  N   UNL     1       6.085   5.514  17.128  0.00  0.00    +0.000 NA
ATOM      8  C   UNL     1       7.055   6.057  16.353  0.00  0.00    +0.000 A 
ATOM      9  N   UNL     1       7.917   7.050  16.855  0.00  0.00    +0.000 N 
ATOM     10  C   UNL     1       7.224   5.526  15.065  0.00  0.00    +0.000 A 
ATOM     11  N   UNL     1       8.125   5.816  14.069  0.00  0.00    +0.000 NA
ATOM     12  C   UNL     1       7.768   5.035  13.073  0.00  0.00    +0.000 A 
ATOM     13  N   UNL     1       6.656   4.259  13.350  0.00  0.00    +0.000 N 
ATOM     14  C   UNL     1       6.346   4.539  14.675  0.00  0.00    +0.000 A 
ATOM     15  N   UNL     1       5.390   3.991  15.446  0.00  0.00    +0.000 NA
ATOM     16  C   UNL     1       3.862   2.642  17.311  0.00  0.00    +0.000 C 
ATOM     17  C   UNL     1       2.420   2.501  17.850  0.00  0.00    +0.000 C 
ATOM     18  H   UNL     1       8.700   6.534  17.254  0.00  0.00    +0.000 HD
ENDROOT
BRANCH  13  19
ATOM     19  C   UNL     1       5.991   3.393  12.440  0.00  0.00    +0.000 A 
ATOM     20  C   UNL     1       4.695   3.677  11.987  0.00  0.00    +0.000 A 
ATOM     21  C   UNL     1       4.054   2.800  11.115  0.00  0.00    +0.000 A 
ATOM     22  C   UNL     1       4.726   1.658  10.717  0.00  0.00    +0.000 A 
ATOM     23  N   UNL     1       5.971   1.350  11.130  0.00  0.00    +0.000 NA
ATOM     24  C   UNL     1       6.575   2.217  11.981  0.00  0.00    +0.000 A 
ENDBRANCH  13  19
BRANCH   9  25
ATOM     25  C   UNL     1       7.308   7.900  17.876  0.00  0.00    +0.000 C 
BRANCH  25  26
ATOM     26  C   UNL     1       8.130   9.113  18.192  0.00  0.00    +0.000 A 
ATOM     27  N   UNL     1       9.005   9.241  19.170  0.00  0.00    +0.000 NA
ATOM     28  C   UNL     1       9.506  10.509  19.058  0.00  0.00    +0.000 A 
ATOM     29  C   UNL     1      10.457  11.161  19.853  0.00  0.00    +0.000 A 
ATOM     30  C   UNL     1      10.788  12.476  19.525  0.00  0.00    +0.000 A 
ATOM     31  F   UNL     1      11.689  13.122  20.280  0.00  0.00    +0.000 F 
ATOM     32  C   UNL     1      10.201  13.122  18.441  0.00  0.00    +0.000 A 
ATOM     33  F   UNL     1      10.542  14.388  18.161  0.00  0.00    +0.000 F 
ATOM     34  C   UNL     1       9.259  12.487  17.629  0.00  0.00    +0.000 A 
ATOM     35  C   UNL     1       8.933  11.175  17.977  0.00  0.00    +0.000 A 
ATOM     36  N   UNL     1       8.067  10.259  17.436  0.00  0.00    +0.000 N 
ATOM     37  H   UNL     1       7.488  10.381  16.614  0.00  0.00    +0.000 HD
ENDBRANCH  25  26
ENDBRANCH   9  25
TORSDOF 3
ENDMDL
MODEL 3
REMARK VINA RESULT:      -8.4      8.649     12.956
REMARK  Name = 
REMARK  4 active torsions:
REMARK  status: ('A' for Active; 'I' for Inactive)
REMARK    1  A    between atoms: C_1  and  N_2
REMARK    2  A    between atoms: N_9  and  C_10
REMARK    3  A    between atoms: C_10  and  C_11
REMARK    4  A    between atoms: N_25  and  C_26
REMARK                            x       y       z     vdW  Elec       q    Type
REMARK                         _______ _______ _______ _____ _____    ______ ____
ROOT
ATOM      1  C   UNL     1       2.960  17.064  17.214  0.00  0.00    +0.000 C 
ATOM      2  N   UNL     1       2.944  16.102  18.314  0.00  0.00    +0.000 NA
ATOM      3  C   UNL     1       2.806  14.718  17.795  0.00  0.00    +0.000 C 
ATOM      4  C   UNL     1       2.687  13.655  18.918  0.00  0.00    +0.000 C 
ATOM      5  N   UNL     1       1.579  14.022  19.806  0.00  0.00    +0.000 N 
ATOM      6  C   UNL     1       0.964  13.044  20.559  0.00  0.00    +0.000 A 
ATOM      7  N   UNL     1       1.278  11.753  20.322  0.00  0.00    +0.000 NA
ATOM      8  C   UNL     1       0.685  10.744  21.005  0.00  0.00    +0.000 A 
ATOM      9  N   UNL     1       1.076   9.406  20.812  0.00  0.00    +0.000 N 
ATOM     10  C   UNL     1      -0.267  11.093  21.975  0.00  0.00    +0.000 A 
ATOM     11  N   UNL     1      -1.000  10.330  22.851  0.00  0.00    +0.000 NA
ATOM     12  C   UNL     1      -1.760  11.200  23.479  0.00  0.00    +0.000 A 
ATOM     13  N   UNL     1      -1.586  12.502  23.044  0.00  0.00    +0.000 N 
ATOM     14  C   UNL     1      -0.563  12.432  22.107  0.00  0.00    +0.000 A 
ATOM     15  N   UNL     1       0.032  13.436  21.439  0.00  0.00    +0.000 NA
ATOM     16  C   UNL     1       1.704  15.364  20.381  0.00  0.00    +0.000 C 
ATOM     17  C   UNL     1       1.822  16.396  19.236  0.00  0.00    +0.000 C 
ATOM     18  H   UNL     1       1.824   9.255  21.488  0.00  0.00    +0.000 HD
ENDROOT
BRANCH  13  19
ATOM     19  C   UNL     1      -2.331  13.635  23.472  0.00  0.00    +0.000 A 
ATOM     20  C   UNL     1      -1.803  14.540  24.404  0.00  0.00    +0.000 A 
ATOM     21  C   UNL     1      -2.564  15.628  24.826  0.00  0.00    +0.000 A 
ATOM     22  C   UNL     1      -3.835  15.785  24.304  0.00  0.00    +0.000 A 
ATOM     23  N   UNL     1      -4.377  14.938  23.408  0.00  0.00    +0.000 NA
ATOM     24  C   UNL     1      -3.621  13.883  23.013  0.00  0.00    +0.000 A 
ENDBRANCH  13  19
BRANCH   9  25
ATOM     25  C   UNL     1       1.561   9.121  19.462  0.00  0.00    +0.000 C 
BRANCH  25  26
ATOM     26  C   UNL     1       2.030   7.708  19.296  0.00  0.00    +0.000 A 
ATOM     27  N   UNL     1       2.510   7.159  18.197  0.00  0.00    +0.000 NA
ATOM     28  C   UNL     1       2.810   5.866  18.526  0.00  0.00    +0.000 A 
ATOM     29  C   UNL     1       3.336   4.846  17.724  0.00  0.00    +0.000 A 
ATOM     30  C   UNL     1       3.540   3.597  18.311  0.00  0.00    +0.000 A 
ATOM     31  F   UNL     1       4.033   2.602  17.558  0.00  0.00    +0.000 F 
ATOM     32  C   UNL     1       3.239   3.368  19.651  0.00  0.00    +0.000 A 
ATOM     33  F   UNL     1       3.444   2.152  20.177  0.00  0.00    +0.000 F 
ATOM     34  C   UNL     1       2.724   4.374  20.471  0.00  0.00    +0.000 A 
ATOM     35  C   UNL     1       2.518   5.615  19.865  0.00  0.00    +0.000 A 
ATOM     36  N   UNL     1       2.032   6.808  20.334  0.00  0.00    +0.000 N 
ATOM     37  H   UNL     1       1.738   7.014  21.281  0.00  0.00    +0.000 HD
ENDBRANCH  25  26
ENDBRANCH   9  25
TORSDOF 3
ENDMDL
MODEL 4
REMARK VINA RESULT:      -8.2      8.635     12.977
REMARK  Name = 
REMARK  4 active torsions:
REMARK  status: ('A' for Active; 'I' for Inactive)
REMARK    1  A    between atoms: C_1  and  N_2
REMARK    2  A    between atoms: N_9  and  C_10
REMARK    3  A    between atoms: C_10  and  C_11
REMARK    4  A    between atoms: N_25  and  C_26
REMARK                            x       y       z     vdW  Elec       q    Type
REMARK                         _______ _______ _______ _____ _____    ______ ____
ROOT
ATOM      1  C   UNL     1       2.994  16.970  17.190  0.00  0.00    +0.000 C 
ATOM      2  N   UNL     1       2.965  16.025  18.304  0.00  0.00    +0.000 NA
ATOM      3  C   UNL     1       2.834  14.634  17.804  0.00  0.00    +0.000 C 
ATOM      4  C   UNL     1       2.701  13.588  18.941  0.00  0.00    +0.000 C 
ATOM      5  N   UNL     1       1.581  13.968  19.809  0.00  0.00    +0.000 N 
ATOM      6  C   UNL     1       0.957  13.001  20.569  0.00  0.00    +0.000 A 
ATOM      7  N   UNL     1       1.274  11.707  20.356  0.00  0.00    +0.000 NA
ATOM      8  C   UNL     1       0.672  10.707  21.046  0.00  0.00    +0.000 A 
ATOM      9  N   UNL     1       1.068   9.367  20.879  0.00  0.00    +0.000 N 
ATOM     10  C   UNL     1      -0.292  11.071  21.998  0.00  0.00    +0.000 A 
ATOM     11  N   UNL     1      -1.037  10.320  22.875  0.00  0.00    +0.000 NA
ATOM     12  C   UNL     1      -1.806  11.199  23.480  0.00  0.00    +0.000 A 
ATOM     13  N   UNL     1      -1.627  12.495  23.028  0.00  0.00    +0.000 N 
ATOM     14  C   UNL     1      -0.591  12.411  22.105  0.00  0.00    +0.000 A 
ATOM     15  N   UNL     1       0.012  13.406  21.430  0.00  0.00    +0.000 NA
ATOM     16  C   UNL     1       1.698  15.319  20.365  0.00  0.00    +0.000 C 
ATOM     17  C   UNL     1       1.830  16.333  19.206  0.00  0.00    +0.000 C 
ATOM     18  H   UNL     1       1.806   9.227  21.567  0.00  0.00    +0.000 HD
ENDROOT
BRANCH  13  19
ATOM     19  C   UNL     1      -2.378  13.634  23.428  0.00  0.00    +0.000 A 
ATOM     20  C   UNL     1      -1.825  14.606  24.273  0.00  0.00    +0.000 A 
ATOM     21  C   UNL     1      -2.591  15.699  24.671  0.00  0.00    +0.000 A 
ATOM     22  C   UNL     1      -3.893  15.794  24.213  0.00  0.00    +0.000 A 
ATOM     23  N   UNL     1      -4.460  14.881  23.401  0.00  0.00    +0.000 NA
ATOM     24  C   UNL     1      -3.697  13.823  23.027  0.00  0.00    +0.000 A 
ENDBRANCH  13  19
BRANCH   9  25
ATOM     25  C   UNL     1       1.570   9.062  19.540  0.00  0.00    +0.000 C 
BRANCH  25  26
ATOM     26  C   UNL     1       2.034   7.644  19.400  0.00  0.00    +0.000 A 
ATOM     27  N   UNL     1       1.986   6.702  20.321  0.00  0.00    +0.000 NA
ATOM     28  C   UNL     1       2.509   5.581  19.736  0.00  0.00    +0.000 A 
ATOM     29  C   UNL     1       2.701   4.305  20.280  0.00  0.00    +0.000 A 
ATOM     30  C   UNL     1       3.273   3.330  19.462  0.00  0.00    +0.000 A 
ATOM     31  F   UNL     1       3.476   2.103  19.965  0.00  0.00    +0.000 F 
ATOM     32  C   UNL     1       3.637   3.608  18.148  0.00  0.00    +0.000 A 
ATOM     33  F   UNL     1       4.189   2.645  17.395  0.00  0.00    +0.000 F 
ATOM     34  C   UNL     1       3.445   4.871  17.584  0.00  0.00    +0.000 A 
ATOM     35  C   UNL     1       2.879   5.837  18.418  0.00  0.00    +0.000 A 
ATOM     36  N   UNL     1       2.556   7.156  18.226  0.00  0.00    +0.000 N 
ATOM     37  H   UNL     1       2.660   7.689  17.371  0.00  0.00    +0.000 HD
ENDBRANCH  25  26
ENDBRANCH   9  25
TORSDOF 3
ENDMDL
MODEL 5
REMARK VINA RESULT:      -8.2      8.132     12.434
REMARK  Name = 
REMARK  4 active torsions:
REMARK  status: ('A' for Active; 'I' for Inactive)
REMARK    1  A    between atoms: C_1  and  N_2
REMARK    2  A    between atoms: N_9  and  C_10
REMARK    3  A    between atoms: C_10  and  C_11
REMARK    4  A    between atoms: N_25  and  C_26
REMARK                            x       y       z     vdW  Elec       q    Type
REMARK                         _______ _______ _______ _____ _____    ______ ____
ROOT
ATOM      1  C   UNL     1       2.822  17.121  17.167  0.00  0.00    +0.000 C 
ATOM      2  N   UNL     1       2.918  16.042  18.148  0.00  0.00    +0.000 NA
ATOM      3  C   UNL     1       2.771  14.722  17.486  0.00  0.00    +0.000 C 
ATOM      4  C   UNL     1       2.768  13.536  18.486  0.00  0.00    +0.000 C 
ATOM      5  N   UNL     1       1.727  13.765  19.493  0.00  0.00    +0.000 N 
ATOM      6  C   UNL     1       1.199  12.689  20.175  0.00  0.00    +0.000 A 
ATOM      7  N   UNL     1       1.523  11.444  19.769  0.00  0.00    +0.000 NA
ATOM      8  C   UNL     1       1.010  10.346  20.376  0.00  0.00    +0.000 A 
ATOM      9  N   UNL     1       1.416   9.052  20.001  0.00  0.00    +0.000 N 
ATOM     10  C   UNL     1       0.132  10.553  21.451  0.00  0.00    +0.000 A 
ATOM     11  N   UNL     1      -0.510   9.673  22.287  0.00  0.00    +0.000 NA
ATOM     12  C   UNL     1      -1.237  10.442  23.068  0.00  0.00    +0.000 A 
ATOM     13  N   UNL     1      -1.129  11.790  22.773  0.00  0.00    +0.000 N 
ATOM     14  C   UNL     1      -0.184  11.858  21.757  0.00  0.00    +0.000 A 
ATOM     15  N   UNL     1       0.331  12.950  21.164  0.00  0.00    +0.000 NA
ATOM     16  C   UNL     1       1.867  15.038  20.207  0.00  0.00    +0.000 C 
ATOM     17  C   UNL     1       1.868  16.195  19.182  0.00  0.00    +0.000 C 
ATOM     18  H   UNL     1       2.219   8.850  20.595  0.00  0.00    +0.000 HD
ENDROOT
BRANCH  13  19
ATOM     19  C   UNL     1      -1.863  12.843  23.384  0.00  0.00    +0.000 A 
ATOM     20  C   UNL     1      -1.233  14.029  23.783  0.00  0.00    +0.000 A 
ATOM     21  C   UNL     1      -1.970  15.036  24.402  0.00  0.00    +0.000 A 
ATOM     22  C   UNL     1      -3.323  14.830  24.608  0.00  0.00    +0.000 A 
ATOM     23  N   UNL     1      -3.964  13.705  24.240  0.00  0.00    +0.000 NA
ATOM     24  C   UNL     1      -3.227  12.736  23.641  0.00  0.00    +0.000 A 
ENDBRANCH  13  19
BRANCH   9  25
ATOM     25  C   UNL     1       1.796   8.936  18.594  0.00  0.00    +0.000 C 
BRANCH  25  26
ATOM     26  C   UNL     1       2.427   7.617  18.266  0.00  0.00    +0.000 A 
ATOM     27  N   UNL     1       2.012   6.425  18.650  0.00  0.00    +0.000 NA
ATOM     28  C   UNL     1       2.892   5.530  18.104  0.00  0.00    +0.000 A 
ATOM     29  C   UNL     1       2.917   4.134  18.211  0.00  0.00    +0.000 A 
ATOM     30  C   UNL     1       3.943   3.451  17.558  0.00  0.00    +0.000 A 
ATOM     31  F   UNL     1       3.992   2.114  17.656  0.00  0.00    +0.000 F 
ATOM     32  C   UNL     1       4.907   4.128  16.817  0.00  0.00    +0.000 A 
ATOM     33  F   UNL     1       5.880   3.435  16.208  0.00  0.00    +0.000 F 
ATOM     34  C   UNL     1       4.894   5.518  16.689  0.00  0.00    +0.000 A 
ATOM     35  C   UNL     1       3.866   6.187  17.357  0.00  0.00    +0.000 A 
ATOM     36  N   UNL     1       3.541   7.514  17.467  0.00  0.00    +0.000 N 
ATOM     37  H   UNL     1       4.016   8.295  17.031  0.00  0.00    +0.000 HD
ENDBRANCH  25  26
ENDBRANCH   9  25
TORSDOF 3
ENDMDL
MODEL 6
REMARK VINA RESULT:      -8.2      8.057     12.368
REMARK  Name = 
REMARK  4 active torsions:
REMARK  status: ('A' for Active; 'I' for Inactive)
REMARK    1  A    between atoms: C_1  and  N_2
REMARK    2  A    between atoms: N_9  and  C_10
REMARK    3  A    between atoms: C_10  and  C_11
REMARK    4  A    between atoms: N_25  and  C_26
REMARK                            x       y       z     vdW  Elec       q    Type
REMARK                         _______ _______ _______ _____ _____    ______ ____
ROOT
ATOM      1  C   UNL     1       2.937  17.145  17.400  0.00  0.00    +0.000 C 
ATOM      2  N   UNL     1       3.015  16.030  18.342  0.00  0.00    +0.000 NA
ATOM      3  C   UNL     1       2.871  14.736  17.631  0.00  0.00    +0.000 C 
ATOM      4  C   UNL     1       2.849  13.515  18.587  0.00  0.00    +0.000 C 
ATOM      5  N   UNL     1       1.796  13.712  19.588  0.00  0.00    +0.000 N 
ATOM      6  C   UNL     1       1.254  12.614  20.223  0.00  0.00    +0.000 A 
ATOM      7  N   UNL     1       1.578  11.383  19.776  0.00  0.00    +0.000 NA
ATOM      8  C   UNL     1       1.052  10.266  20.336  0.00  0.00    +0.000 A 
ATOM      9  N   UNL     1       1.458   8.984  19.920  0.00  0.00    +0.000 N 
ATOM     10  C   UNL     1       0.161  10.438  21.406  0.00  0.00    +0.000 A 
ATOM     11  N   UNL     1      -0.496   9.532  22.201  0.00  0.00    +0.000 NA
ATOM     12  C   UNL     1      -1.231  10.275  22.999  0.00  0.00    +0.000 A 
ATOM     13  N   UNL     1      -1.113  11.632  22.755  0.00  0.00    +0.000 N 
ATOM     14  C   UNL     1      -0.154  11.733  21.755  0.00  0.00    +0.000 A 
ATOM     15  N   UNL     1       0.374  12.843  21.209  0.00  0.00    +0.000 NA
ATOM     16  C   UNL     1       1.932  14.957  20.349  0.00  0.00    +0.000 C 
ATOM     17  C   UNL     1       1.952  16.150  19.367  0.00  0.00    +0.000 C 
ATOM     18  H   UNL     1       2.252   8.758  20.517  0.00  0.00    +0.000 HD
ENDROOT
BRANCH  13  19
ATOM     19  C   UNL     1      -1.851  12.666  23.393  0.00  0.00    +0.000 A 
ATOM     20  C   UNL     1      -1.247  13.886  23.730  0.00  0.00    +0.000 A 
ATOM     21  C   UNL     1      -1.986  14.873  24.378  0.00  0.00    +0.000 A 
ATOM     22  C   UNL     1      -3.312  14.616  24.675  0.00  0.00    +0.000 A 
ATOM     23  N   UNL     1      -3.928  13.457  24.369  0.00  0.00    +0.000 NA
ATOM     24  C   UNL     1      -3.190  12.508  23.740  0.00  0.00    +0.000 A 
ENDBRANCH  13  19
BRANCH   9  25
ATOM     25  C   UNL     1       1.857   8.917  18.515  0.00  0.00    +0.000 C 
BRANCH  25  26
ATOM     26  C   UNL     1       2.529   7.627  18.159  0.00  0.00    +0.000 A 
ATOM     27  N   UNL     1       3.589   7.475  17.389  0.00  0.00    +0.000 NA
ATOM     28  C   UNL     1       3.840   6.130  17.362  0.00  0.00    +0.000 A 
ATOM     29  C   UNL     1       4.845   5.429  16.683  0.00  0.00    +0.000 A 
ATOM     30  C   UNL     1       4.873   4.040  16.818  0.00  0.00    +0.000 A 
ATOM     31  F   UNL     1       5.820   3.348  16.167  0.00  0.00    +0.000 F 
ATOM     32  C   UNL     1       3.941   3.370  17.604  0.00  0.00    +0.000 A 
ATOM     33  F   UNL     1       3.998   2.033  17.704  0.00  0.00    +0.000 F 
ATOM     34  C   UNL     1       2.938   4.050  18.297  0.00  0.00    +0.000 A 
ATOM     35  C   UNL     1       2.919   5.438  18.145  0.00  0.00    +0.000 A 
ATOM     36  N   UNL     1       2.102   6.417  18.650  0.00  0.00    +0.000 N 
ATOM     37  H   UNL     1       1.325   6.290  19.287  0.00  0.00    +0.000 HD
ENDBRANCH  25  26
ENDBRANCH   9  25
TORSDOF 3
ENDMDL
MODEL 7
REMARK VINA RESULT:      -8.0      8.961     11.847
REMARK  Name = 
REMARK  4 active torsions:
REMARK  status: ('A' for Active; 'I' for Inactive)
REMARK    1  A    between atoms: C_1  and  N_2
REMARK    2  A    between atoms: N_9  and  C_10
REMARK    3  A    between atoms: C_10  and  C_11
REMARK    4  A    between atoms: N_25  and  C_26
REMARK                            x       y       z     vdW  Elec       q    Type
REMARK                         _______ _______ _______ _____ _____    ______ ____
ROOT
ATOM      1  C   UNL     1       1.217  16.703  22.435  0.00  0.00    +0.000 C 
ATOM      2  N   UNL     1       0.659  15.364  22.255  0.00  0.00    +0.000 NA
ATOM      3  C   UNL     1       1.479  14.584  21.294  0.00  0.00    +0.000 C 
ATOM      4  C   UNL     1       0.886  13.184  20.985  0.00  0.00    +0.000 C 
ATOM      5  N   UNL     1      -0.498  13.343  20.525  0.00  0.00    +0.000 N 
ATOM      6  C   UNL     1      -1.070  12.357  19.750  0.00  0.00    +0.000 A 
ATOM      7  N   UNL     1      -0.284  11.363  19.285  0.00  0.00    +0.000 NA
ATOM      8  C   UNL     1      -0.778  10.383  18.490  0.00  0.00    +0.000 A 
ATOM      9  N   UNL     1       0.027   9.305  18.078  0.00  0.00    +0.000 N 
ATOM     10  C   UNL     1      -2.144  10.437  18.173  0.00  0.00    +0.000 A 
ATOM     11  N   UNL     1      -2.946   9.593  17.444  0.00  0.00    +0.000 NA
ATOM     12  C   UNL     1      -4.121  10.182  17.446  0.00  0.00    +0.000 A 
ATOM     13  N   UNL     1      -4.133  11.391  18.120  0.00  0.00    +0.000 N 
ATOM     14  C   UNL     1      -2.853  11.519  18.646  0.00  0.00    +0.000 A 
ATOM     15  N   UNL     1      -2.368  12.487  19.444  0.00  0.00    +0.000 NA
ATOM     16  C   UNL     1      -1.353  14.065  21.471  0.00  0.00    +0.000 C 
ATOM     17  C   UNL     1      -0.733  15.452  21.757  0.00  0.00    +0.000 C 
ATOM     18  H   UNL     1      -0.090   8.601  18.805  0.00  0.00    +0.000 HD
ENDROOT
BRANCH  13  19
ATOM     19  C   UNL     1      -5.231  12.290  18.209  0.00  0.00    +0.000 A 
ATOM     20  C   UNL     1      -5.947  12.675  17.067  0.00  0.00    +0.000 A 
ATOM     21  C   UNL     1      -7.002  13.577  17.178  0.00  0.00    +0.000 A 
ATOM     22  C   UNL     1      -7.316  14.074  18.431  0.00  0.00    +0.000 A 
ATOM     23  N   UNL     1      -6.651  13.729  19.551  0.00  0.00    +0.000 NA
ATOM     24  C   UNL     1      -5.625  12.851  19.420  0.00  0.00    +0.000 A 
ENDBRANCH  13  19
BRANCH   9  25
ATOM     25  C   UNL     1       1.442   9.645  17.938  0.00  0.00    +0.000 C 
BRANCH  25  26
ATOM     26  C   UNL     1       2.341   8.448  18.016  0.00  0.00    +0.000 A 
ATOM     27  N   UNL     1       3.305   8.128  17.175  0.00  0.00    +0.000 NA
ATOM     28  C   UNL     1       3.850   6.969  17.657  0.00  0.00    +0.000 A 
ATOM     29  C   UNL     1       4.896   6.197  17.135  0.00  0.00    +0.000 A 
ATOM     30  C   UNL     1       5.254   5.038  17.824  0.00  0.00    +0.000 A 
ATOM     31  F   UNL     1       6.246   4.279  17.337  0.00  0.00    +0.000 F 
ATOM     32  C   UNL     1       4.601   4.659  18.993  0.00  0.00    +0.000 A 
ATOM     33  F   UNL     1       4.972   3.535  19.623  0.00  0.00    +0.000 F 
ATOM     34  C   UNL     1       3.563   5.419  19.535  0.00  0.00    +0.000 A 
ATOM     35  C   UNL     1       3.212   6.572  18.829  0.00  0.00    +0.000 A 
ATOM     36  N   UNL     1       2.262   7.537  19.042  0.00  0.00    +0.000 N 
ATOM     37  H   UNL     1       1.618   7.595  19.821  0.00  0.00    +0.000 HD
ENDBRANCH  25  26
ENDBRANCH   9  25
TORSDOF 3
ENDMDL
MODEL 8
REMARK VINA RESULT:      -7.9      5.196     12.638
REMARK  Name = 
REMARK  4 active torsions:
REMARK  status: ('A' for Active; 'I' for Inactive)
REMARK    1  A    between atoms: C_1  and  N_2
REMARK    2  A    between atoms: N_9  and  C_10
REMARK    3  A    between atoms: C_10  and  C_11
REMARK    4  A    between atoms: N_25  and  C_26
REMARK                            x       y       z     vdW  Elec       q    Type
REMARK                         _______ _______ _______ _____ _____    ______ ____
ROOT
ATOM      1  C   UNL     1      11.817  17.932  17.265  0.00  0.00    +0.000 C 
ATOM      2  N   UNL     1      11.902  16.796  18.180  0.00  0.00    +0.000 NA
ATOM      3  C   UNL     1      11.255  15.599  17.587  0.00  0.00    +0.000 C 
ATOM      4  C   UNL     1      11.227  14.382  18.548  0.00  0.00    +0.000 C 
ATOM      5  N   UNL     1      10.591  14.784  19.807  0.00  0.00    +0.000 N 
ATOM      6  C   UNL     1      10.016  13.822  20.610  0.00  0.00    +0.000 A 
ATOM      7  N   UNL     1       9.895  12.566  20.130  0.00  0.00    +0.000 NA
ATOM      8  C   UNL     1       9.309  11.584  20.856  0.00  0.00    +0.000 A 
ATOM      9  N   UNL     1       9.260  10.259  20.383  0.00  0.00    +0.000 N 
ATOM     10  C   UNL     1       8.837  11.921  22.134  0.00  0.00    +0.000 A 
ATOM     11  N   UNL     1       8.247  11.164  23.118  0.00  0.00    +0.000 NA
ATOM     12  C   UNL     1       7.976  12.029  24.071  0.00  0.00    +0.000 A 
ATOM     13  N   UNL     1       8.334  13.329  23.757  0.00  0.00    +0.000 N 
ATOM     14  C   UNL     1       8.953  13.239  22.516  0.00  0.00    +0.000 A 
ATOM     15  N   UNL     1       9.544  14.213  21.802  0.00  0.00    +0.000 NA
ATOM     16  C   UNL     1      11.234  15.932  20.451  0.00  0.00    +0.000 C 
ATOM     17  C   UNL     1      11.246  17.124  19.467  0.00  0.00    +0.000 C 
ATOM     18  H   UNL     1      10.117   9.830  20.728  0.00  0.00    +0.000 HD
ENDROOT
BRANCH  13  19
ATOM     19  C   UNL     1       8.081  14.482  24.548  0.00  0.00    +0.000 A 
ATOM     20  C   UNL     1       6.978  15.308  24.293  0.00  0.00    +0.000 A 
ATOM     21  C   UNL     1       6.767  16.447  25.067  0.00  0.00    +0.000 A 
ATOM     22  C   UNL     1       7.665  16.732  26.079  0.00  0.00    +0.000 A 
ATOM     23  N   UNL     1       8.737  15.964  26.355  0.00  0.00    +0.000 NA
ATOM     24  C   UNL     1       8.925  14.861  25.587  0.00  0.00    +0.000 A 
ENDBRANCH  13  19
BRANCH   9  25
ATOM     25  C   UNL     1       9.202  10.154  18.926  0.00  0.00    +0.000 C 
BRANCH  25  26
ATOM     26  C   UNL     1       8.447   8.948  18.457  0.00  0.00    +0.000 A 
ATOM     27  N   UNL     1       7.584   8.895  17.461  0.00  0.00    +0.000 NA
ATOM     28  C   UNL     1       7.162   7.594  17.403  0.00  0.00    +0.000 A 
ATOM     29  C   UNL     1       6.237   7.001  16.535  0.00  0.00    +0.000 A 
ATOM     30  C   UNL     1       5.974   5.640  16.698  0.00  0.00    +0.000 A 
ATOM     31  F   UNL     1       5.083   5.053  15.885  0.00  0.00    +0.000 F 
ATOM     32  C   UNL     1       6.610   4.892  17.683  0.00  0.00    +0.000 A 
ATOM     33  F   UNL     1       6.326   3.587  17.811  0.00  0.00    +0.000 F 
ATOM     34  C   UNL     1       7.543   5.462  18.552  0.00  0.00    +0.000 A 
ATOM     35  C   UNL     1       7.788   6.826  18.381  0.00  0.00    +0.000 A 
ATOM     36  N   UNL     1       8.610   7.710  19.032  0.00  0.00    +0.000 N 
ATOM     37  H   UNL     1       9.245   7.503  19.793  0.00  0.00    +0.000 HD
ENDBRANCH  25  26
ENDBRANCH   9  25
TORSDOF 3
ENDMDL
MODEL 9
REMARK VINA RESULT:      -7.8      8.760     11.758
REMARK  Name = 
REMARK  4 active torsions:
REMARK  status: ('A' for Active; 'I' for Inactive)
REMARK    1  A    between atoms: C_1  and  N_2
REMARK    2  A    between atoms: N_9  and  C_10
REMARK    3  A    between atoms: C_10  and  C_11
REMARK    4  A    between atoms: N_25  and  C_26
REMARK                            x       y       z     vdW  Elec       q    Type
REMARK                         _______ _______ _______ _____ _____    ______ ____
ROOT
ATOM      1  C   UNL     1       1.810  16.350  22.505  0.00  0.00    +0.000 C 
ATOM      2  N   UNL     1       1.191  15.040  22.308  0.00  0.00    +0.000 NA
ATOM      3  C   UNL     1       1.930  14.264  21.282  0.00  0.00    +0.000 C 
ATOM      4  C   UNL     1       1.267  12.900  20.956  0.00  0.00    +0.000 C 
ATOM      5  N   UNL     1      -0.130  13.128  20.571  0.00  0.00    +0.000 N 
ATOM      6  C   UNL     1      -0.778  12.193  19.792  0.00  0.00    +0.000 A 
ATOM      7  N   UNL     1      -0.056  11.187  19.256  0.00  0.00    +0.000 NA
ATOM      8  C   UNL     1      -0.628  10.255  18.454  0.00  0.00    +0.000 A 
ATOM      9  N   UNL     1       0.113   9.163  17.966  0.00  0.00    +0.000 N 
ATOM     10  C   UNL     1      -2.004  10.374  18.207  0.00  0.00    +0.000 A 
ATOM     11  N   UNL     1      -2.874   9.587  17.491  0.00  0.00    +0.000 NA
ATOM     12  C   UNL     1      -4.023  10.221  17.572  0.00  0.00    +0.000 A 
ATOM     13  N   UNL     1      -3.953  11.405  18.285  0.00  0.00    +0.000 N 
ATOM     14  C   UNL     1      -2.645  11.465  18.751  0.00  0.00    +0.000 A 
ATOM     15  N   UNL     1      -2.083  12.384  19.556  0.00  0.00    +0.000 NA
ATOM     16  C   UNL     1      -0.908  13.849  21.582  0.00  0.00    +0.000 C 
ATOM     17  C   UNL     1      -0.220  15.200  21.883  0.00  0.00    +0.000 C 
ATOM     18  H   UNL     1       0.002   8.438  18.674  0.00  0.00    +0.000 HD
ENDROOT
BRANCH  13  19
ATOM     19  C   UNL     1      -5.008  12.342  18.459  0.00  0.00    +0.000 A 
ATOM     20  C   UNL     1      -5.285  12.895  19.717  0.00  0.00    +0.000 A 
ATOM     21  C   UNL     1      -6.341  13.792  19.866  0.00  0.00    +0.000 A 
ATOM     22  C   UNL     1      -7.094  14.114  18.751  0.00  0.00    +0.000 A 
ATOM     23  N   UNL     1      -6.859  13.604  17.527  0.00  0.00    +0.000 NA
ATOM     24  C   UNL     1      -5.829  12.730  17.405  0.00  0.00    +0.000 A 
ENDBRANCH  13  19
BRANCH   9  25
ATOM     25  C   UNL     1       1.532   9.452  17.768  0.00  0.00    +0.000 C 
BRANCH  25  26
ATOM     26  C   UNL     1       2.410   8.263  18.013  0.00  0.00    +0.000 A 
ATOM     27  N   UNL     1       2.223   7.314  18.910  0.00  0.00    +0.000 NA
ATOM     28  C   UNL     1       3.269   6.446  18.758  0.00  0.00    +0.000 A 
ATOM     29  C   UNL     1       3.560   5.274  19.467  0.00  0.00    +0.000 A 
ATOM     30  C   UNL     1       4.711   4.569  19.115  0.00  0.00    +0.000 A 
ATOM     31  F   UNL     1       5.014   3.450  19.789  0.00  0.00    +0.000 F 
ATOM     32  C   UNL     1       5.543   5.007  18.090  0.00  0.00    +0.000 A 
ATOM     33  F   UNL     1       6.644   4.304  17.784  0.00  0.00    +0.000 F 
ATOM     34  C   UNL     1       5.267   6.167  17.363  0.00  0.00    +0.000 A 
ATOM     35  C   UNL     1       4.116   6.865  17.734  0.00  0.00    +0.000 A 
ATOM     36  N   UNL     1       3.539   8.019  17.269  0.00  0.00    +0.000 N 
ATOM     37  H   UNL     1       3.865   8.595  16.503  0.00  0.00    +0.000 HD
ENDBRANCH  25  26
ENDBRANCH   9  25
TORSDOF 3
ENDMDL
