MODEL 1
REMARK VINA RESULT:      -6.7      0.000      0.000
REMARK  Name = 
REMARK  11 active torsions:
REMARK  status: ('A' for Active; 'I' for Inactive)
REMARK    1  A    between atoms: C_1  and  C_2
REMARK    2  A    between atoms: C_2  and  C_3
REMARK    3  A    between atoms: C_3  and  C_4
REMARK    4  A    between atoms: C_4  and  C_5
REMARK    5  A    between atoms: C_5  and  C_6
REMARK    6  A    between atoms: C_6  and  C_7
REMARK    7  A    between atoms: C_10  and  C_11
REMARK    8  A    between atoms: C_18  and  O_19
REMARK    9  A    between atoms: O_19  and  C_20
REMARK   10  A    between atoms: C_20  and  C_21
REMARK   11  A    between atoms: C_28  and  O_29
REMARK                            x       y       z     vdW  Elec       q    Type
REMARK                         _______ _______ _______ _____ _____    ______ ____
ROOT
ATOM      1  C   UNL     1       0.776  14.471  20.629  0.00  0.00    +0.000 C 
ATOM      2  N   UNL     1       0.748  15.324  19.629  0.00  0.00    +0.000 NA
ATOM      3  S   UNL     1       2.148  15.271  18.821  0.00  0.00    +0.000 S 
ATOM      4  O   UNL     1       2.264  16.456  17.995  0.00  0.00    +0.000 OA
ATOM      5  O   UNL     1       2.310  13.941  18.239  0.00  0.00    +0.000 OA
ATOM      6  C   UNL     1       3.363  15.368  20.051  0.00  0.00    +0.000 A 
ATOM      7  C   UNL     1       4.692  15.278  19.680  0.00  0.00    +0.000 A 
ATOM      8  C   UNL     1       5.641  15.224  20.673  0.00  0.00    +0.000 A 
ATOM      9  C   UNL     1       5.292  15.573  21.976  0.00  0.00    +0.000 A 
ATOM     10  C   UNL     1       3.926  15.637  22.341  0.00  0.00    +0.000 A 
ATOM     11  C   UNL     1       2.936  15.362  21.381  0.00  0.00    +0.000 A 
ATOM     12  N   UNL     1       1.672  14.765  21.683  0.00  0.00    +0.000 N 
ATOM     13  H   UNL     1       1.288  15.004  22.596  0.00  0.00    +0.000 HD
ENDROOT
BRANCH   1  17
ATOM     14  C   UNL     1       0.199  10.555  19.621  0.00  0.00    +0.000 C 
ATOM     15  C   UNL     1       0.815  11.812  20.303  0.00  0.00    +0.000 C 
ATOM     16  O   UNL     1       1.908  11.753  20.875  0.00  0.00    +0.000 OA
ATOM     17  C   UNL     1       0.087  13.114  20.305  0.00  0.00    +0.000 C 
ATOM     18  C   UNL     1      -1.174  13.119  19.785  0.00  0.00    +0.000 C 
ATOM     19  C   UNL     1      -1.798  11.987  19.060  0.00  0.00    +0.000 A 
ATOM     20  C   UNL     1      -3.057  12.118  18.432  0.00  0.00    +0.000 A 
ATOM     21  C   UNL     1      -3.647  11.067  17.726  0.00  0.00    +0.000 A 
ATOM     22  C   UNL     1      -3.006   9.847  17.625  0.00  0.00    +0.000 A 
ATOM     23  C   UNL     1      -1.758   9.694  18.218  0.00  0.00    +0.000 A 
ATOM     24  C   UNL     1      -1.143  10.763  18.935  0.00  0.00    +0.000 A 
BRANCH  18  25
ATOM     25  O   UNL     1      -2.001  14.233  19.787  0.00  0.00    +0.000 OA
ATOM     26  H   UNL     1      -2.709  14.111  20.450  0.00  0.00    +0.000 HD
ENDBRANCH  18  25
BRANCH  14  27
ATOM     27  C   UNL     1       1.238  10.067  18.558  0.00  0.00    +0.000 C 
BRANCH  27  29
ATOM     28  C   UNL     1       2.667   8.132  17.723  0.00  0.00    +0.000 C 
ATOM     29  C   UNL     1       1.805   8.662  18.859  0.00  0.00    +0.000 C 
ENDBRANCH  27  29
ENDBRANCH  14  27
BRANCH  14  30
ATOM     30  C   UNL     1      -0.035   9.479  20.737  0.00  0.00    +0.000 C 
BRANCH  30  31
ATOM     31  C   UNL     1      -0.654  10.066  22.028  0.00  0.00    +0.000 C 
ATOM     32  C   UNL     1      -0.077   9.458  23.294  0.00  0.00    +0.000 C 
ENDBRANCH  30  31
ENDBRANCH  14  30
ENDBRANCH   1  17
BRANCH   8  33
ATOM     33  O   UNL     1       6.844  14.746  20.263  0.00  0.00    +0.000 OA
BRANCH  33  34
ATOM     34  C   UNL     1       7.161  14.898  18.889  0.00  0.00    +0.000 C 
BRANCH  34  35
ATOM     35  C   UNL     1       8.133  14.034  18.041  0.00  0.00    +0.000 C 
ATOM     36  N   UNL     1       7.627  13.156  17.136  0.00  0.00    +0.000 N 
ATOM     37  O   UNL     1       9.353  14.154  18.144  0.00  0.00    +0.000 OA
ATOM     38  H   UNL     1       6.640  13.026  16.965  0.00  0.00    +0.000 HD
ATOM     39  H   UNL     1       8.284  12.599  16.602  0.00  0.00    +0.000 HD
ENDBRANCH  34  35
ENDBRANCH  33  34
ENDBRANCH   8  33
TORSDOF 9
ENDMDL
MODEL 2
REMARK VINA RESULT:      -6.5      4.647      7.740
REMARK  Name = 
REMARK  11 active torsions:
REMARK  status: ('A' for Active; 'I' for Inactive)
REMARK    1  A    between atoms: C_1  and  C_2
REMARK    2  A    between atoms: C_2  and  C_3
REMARK    3  A    between atoms: C_3  and  C_4
REMARK    4  A    between atoms: C_4  and  C_5
REMARK    5  A    between atoms: C_5  and  C_6
REMARK    6  A    between atoms: C_6  and  C_7
REMARK    7  A    between atoms: C_10  and  C_11
REMARK    8  A    between atoms: C_18  and  O_19
REMARK    9  A    between atoms: O_19  and  C_20
REMARK   10  A    between atoms: C_20  and  C_21
REMARK   11  A    between atoms: C_28  and  O_29
REMARK                            x       y       z     vdW  Elec       q    Type
REMARK                         _______ _______ _______ _____ _____    ______ ____
ROOT
ATOM      1  C   UNL     1      -1.892  12.914  23.530  0.00  0.00    +0.000 C 
ATOM      2  N   UNL     1      -0.816  13.671  23.547  0.00  0.00    +0.000 NA
ATOM      3  S   UNL     1      -0.170  13.743  22.066  0.00  0.00    +0.000 S 
ATOM      4  O   UNL     1       1.190  14.230  22.165  0.00  0.00    +0.000 OA
ATOM      5  O   UNL     1      -1.124  14.382  21.163  0.00  0.00    +0.000 OA
ATOM      6  C   UNL     1      -0.100  12.094  21.542  0.00  0.00    +0.000 A 
ATOM      7  C   UNL     1       0.351  11.822  20.263  0.00  0.00    +0.000 A 
ATOM      8  C   UNL     1       0.279  10.525  19.812  0.00  0.00    +0.000 A 
ATOM      9  C   UNL     1       0.066   9.492  20.723  0.00  0.00    +0.000 A 
ATOM     10  C   UNL     1      -0.417   9.790  22.018  0.00  0.00    +0.000 A 
ATOM     11  C   UNL     1      -0.664  11.127  22.378  0.00  0.00    +0.000 A 
ATOM     12  N   UNL     1      -1.688  11.535  23.290  0.00  0.00    +0.000 N 
ATOM     13  H   UNL     1      -1.885  10.876  24.042  0.00  0.00    +0.000 HD
ENDROOT
BRANCH   1  17
ATOM     14  C   UNL     1      -5.212  14.726  21.990  0.00  0.00    +0.000 C 
ATOM     15  C   UNL     1      -4.118  13.645  22.231  0.00  0.00    +0.000 C 
ATOM     16  O   UNL     1      -3.986  12.691  21.458  0.00  0.00    +0.000 OA
ATOM     17  C   UNL     1      -3.216  13.723  23.417  0.00  0.00    +0.000 C 
ATOM     18  C   UNL     1      -3.469  14.709  24.324  0.00  0.00    +0.000 C 
ATOM     19  C   UNL     1      -4.443  15.810  24.132  0.00  0.00    +0.000 A 
ATOM     20  C   UNL     1      -4.548  16.871  25.059  0.00  0.00    +0.000 A 
ATOM     21  C   UNL     1      -5.444  17.927  24.879  0.00  0.00    +0.000 A 
ATOM     22  C   UNL     1      -6.271  17.960  23.772  0.00  0.00    +0.000 A 
ATOM     23  C   UNL     1      -6.177  16.939  22.834  0.00  0.00    +0.000 A 
ATOM     24  C   UNL     1      -5.260  15.860  23.003  0.00  0.00    +0.000 A 
BRANCH  18  25
ATOM     25  O   UNL     1      -2.767  14.859  25.511  0.00  0.00    +0.000 OA
ATOM     26  H   UNL     1      -3.306  14.520  26.253  0.00  0.00    +0.000 HD
ENDBRANCH  18  25
BRANCH  14  27
ATOM     27  C   UNL     1      -4.944  15.329  20.572  0.00  0.00    +0.000 C 
BRANCH  27  29
ATOM     28  C   UNL     1      -4.165  17.623  19.789  0.00  0.00    +0.000 C 
ATOM     29  C   UNL     1      -3.796  16.361  20.554  0.00  0.00    +0.000 C 
ENDBRANCH  27  29
ENDBRANCH  14  27
BRANCH  14  30
ATOM     30  C   UNL     1      -6.606  14.011  22.060  0.00  0.00    +0.000 C 
BRANCH  30  31
ATOM     31  C   UNL     1      -6.845  13.274  23.399  0.00  0.00    +0.000 C 
ATOM     32  C   UNL     1      -7.855  12.146  23.286  0.00  0.00    +0.000 C 
ENDBRANCH  30  31
ENDBRANCH  14  30
ENDBRANCH   1  17
BRANCH   8  33
ATOM     33  O   UNL     1       0.357  10.405  18.462  0.00  0.00    +0.000 OA
BRANCH  33  34
ATOM     34  C   UNL     1      -0.814   9.976  17.786  0.00  0.00    +0.000 C 
BRANCH  34  35
ATOM     35  C   UNL     1      -2.127  10.775  17.567  0.00  0.00    +0.000 C 
ATOM     36  N   UNL     1      -2.083  11.961  16.905  0.00  0.00    +0.000 N 
ATOM     37  O   UNL     1      -3.213  10.339  17.947  0.00  0.00    +0.000 OA
ATOM     38  H   UNL     1      -1.239  12.367  16.529  0.00  0.00    +0.000 HD
ATOM     39  H   UNL     1      -2.954  12.465  16.784  0.00  0.00    +0.000 HD
ENDBRANCH  34  35
ENDBRANCH  33  34
ENDBRANCH   8  33
TORSDOF 9
ENDMDL
MODEL 3
REMARK VINA RESULT:      -6.4      4.211      7.990
REMARK  Name = 
REMARK  11 active torsions:
REMARK  status: ('A' for Active; 'I' for Inactive)
REMARK    1  A    between atoms: C_1  and  C_2
REMARK    2  A    between atoms: C_2  and  C_3
REMARK    3  A    between atoms: C_3  and  C_4
REMARK    4  A    between atoms: C_4  and  C_5
REMARK    5  A    between atoms: C_5  and  C_6
REMARK    6  A    between atoms: C_6  and  C_7
REMARK    7  A    between atoms: C_10  and  C_11
REMARK    8  A    between atoms: C_18  and  O_19
REMARK    9  A    between atoms: O_19  and  C_20
REMARK   10  A    between atoms: C_20  and  C_21
REMARK   11  A    between atoms: C_28  and  O_29
REMARK                            x       y       z     vdW  Elec       q    Type
REMARK                         _______ _______ _______ _____ _____    ______ ____
ROOT
ATOM      1  C   UNL     1      -2.428  13.380  22.393  0.00  0.00    +0.000 C 
ATOM      2  N   UNL     1      -3.476  12.620  22.625  0.00  0.00    +0.000 NA
ATOM      3  S   UNL     1      -4.551  12.784  21.428  0.00  0.00    +0.000 S 
ATOM      4  O   UNL     1      -5.833  12.274  21.869  0.00  0.00    +0.000 OA
ATOM      5  O   UNL     1      -3.951  12.309  20.184  0.00  0.00    +0.000 OA
ATOM      6  C   UNL     1      -4.711  14.495  21.218  0.00  0.00    +0.000 A 
ATOM      7  C   UNL     1      -5.523  14.966  20.204  0.00  0.00    +0.000 A 
ATOM      8  C   UNL     1      -5.540  16.321  19.962  0.00  0.00    +0.000 A 
ATOM      9  C   UNL     1      -5.012  17.194  20.911  0.00  0.00    +0.000 A 
ATOM     10  C   UNL     1      -4.165  16.694  21.927  0.00  0.00    +0.000 A 
ATOM     11  C   UNL     1      -3.875  15.319  21.977  0.00  0.00    +0.000 A 
ATOM     12  N   UNL     1      -2.638  14.777  22.448  0.00  0.00    +0.000 N 
ATOM     13  H   UNL     1      -2.190  15.307  23.194  0.00  0.00    +0.000 HD
ENDROOT
BRANCH   1  17
ATOM     14  C   UNL     1       0.289  12.022  19.662  0.00  0.00    +0.000 C 
ATOM     15  C   UNL     1      -0.625  13.009  20.446  0.00  0.00    +0.000 C 
ATOM     16  O   UNL     1      -0.844  14.147  20.019  0.00  0.00    +0.000 OA
ATOM     17  C   UNL     1      -1.239  12.613  21.747  0.00  0.00    +0.000 C 
ATOM     18  C   UNL     1      -0.874  11.403  22.260  0.00  0.00    +0.000 C 
ATOM     19  C   UNL     1      -0.068  10.385  21.545  0.00  0.00    +0.000 A 
ATOM     20  C   UNL     1       0.151   9.101  22.092  0.00  0.00    +0.000 A 
ATOM     21  C   UNL     1       0.889   8.124  21.419  0.00  0.00    +0.000 A 
ATOM     22  C   UNL     1       1.438   8.394  20.180  0.00  0.00    +0.000 A 
ATOM     23  C   UNL     1       1.224   9.642  19.609  0.00  0.00    +0.000 A 
ATOM     24  C   UNL     1       0.465  10.645  20.283  0.00  0.00    +0.000 A 
BRANCH  18  25
ATOM     25  O   UNL     1      -1.300  10.932  23.494  0.00  0.00    +0.000 OA
ATOM     26  H   UNL     1      -1.417   9.962  23.449  0.00  0.00    +0.000 HD
ENDBRANCH  18  25
BRANCH  14  27
ATOM     27  C   UNL     1      -0.344  11.856  18.241  0.00  0.00    +0.000 C 
BRANCH  27  29
ATOM     28  C   UNL     1      -2.354  11.014  16.924  0.00  0.00    +0.000 C 
ATOM     29  C   UNL     1      -1.571  10.918  18.225  0.00  0.00    +0.000 C 
ENDBRANCH  27  29
ENDBRANCH  14  27
BRANCH  14  30
ATOM     30  C   UNL     1       1.719  12.661  19.586  0.00  0.00    +0.000 C 
BRANCH  30  31
ATOM     31  C   UNL     1       2.004  13.353  18.231  0.00  0.00    +0.000 C 
ATOM     32  C   UNL     1       2.280  14.840  18.369  0.00  0.00    +0.000 C 
ENDBRANCH  30  31
ENDBRANCH  14  30
ENDBRANCH   1  17
BRANCH   8  33
ATOM     33  O   UNL     1      -6.026  16.657  18.740  0.00  0.00    +0.000 OA
BRANCH  33  34
ATOM     34  C   UNL     1      -7.007  15.800  18.180  0.00  0.00    +0.000 C 
BRANCH  34  35
ATOM     35  C   UNL     1      -6.959  15.075  16.808  0.00  0.00    +0.000 C 
ATOM     36  N   UNL     1      -6.872  13.719  16.773  0.00  0.00    +0.000 N 
ATOM     37  O   UNL     1      -7.036  15.698  15.750  0.00  0.00    +0.000 OA
ATOM     38  H   UNL     1      -6.843  13.134  17.596  0.00  0.00    +0.000 HD
ATOM     39  H   UNL     1      -6.833  13.273  15.865  0.00  0.00    +0.000 HD
ENDBRANCH  34  35
ENDBRANCH  33  34
ENDBRANCH   8  33
TORSDOF 9
ENDMDL
MODEL 4
REMARK VINA RESULT:      -6.2      4.439      7.828
REMARK  Name = 
REMARK  11 active torsions:
REMARK  status: ('A' for Active; 'I' for Inactive)
REMARK    1  A    between atoms: C_1  and  C_2
REMARK    2  A    between atoms: C_2  and  C_3
REMARK    3  A    between atoms: C_3  and  C_4
REMARK    4  A    between atoms: C_4  and  C_5
REMARK    5  A    between atoms: C_5  and  C_6
REMARK    6  A    between atoms: C_6  and  C_7
REMARK    7  A    between atoms: C_10  and  C_11
REMARK    8  A    between atoms: C_18  and  O_19
REMARK    9  A    between atoms: O_19  and  C_20
REMARK   10  A    between atoms: C_20  and  C_21
REMARK   11  A    between atoms: C_28  and  O_29
REMARK                            x       y       z     vdW  Elec       q    Type
REMARK                         _______ _______ _______ _____ _____    ______ ____
ROOT
ATOM      1  C   UNL     1      -2.211  12.773  23.368  0.00  0.00    +0.000 C 
ATOM      2  N   UNL     1      -3.303  12.040  23.320  0.00  0.00    +0.000 NA
ATOM      3  S   UNL     1      -4.406  12.758  22.381  0.00  0.00    +0.000 S 
ATOM      4  O   UNL     1      -5.705  12.174  22.644  0.00  0.00    +0.000 OA
ATOM      5  O   UNL     1      -3.889  12.837  21.017  0.00  0.00    +0.000 OA
ATOM      6  C   UNL     1      -4.448  14.399  22.934  0.00  0.00    +0.000 A 
ATOM      7  C   UNL     1      -5.260  15.302  22.274  0.00  0.00    +0.000 A 
ATOM      8  C   UNL     1      -5.187  16.627  22.637  0.00  0.00    +0.000 A 
ATOM      9  C   UNL     1      -4.561  16.978  23.831  0.00  0.00    +0.000 A 
ATOM     10  C   UNL     1      -3.716  16.046  24.479  0.00  0.00    +0.000 A 
ATOM     11  C   UNL     1      -3.527  14.771  23.917  0.00  0.00    +0.000 A 
ATOM     12  N   UNL     1      -2.316  14.018  24.029  0.00  0.00    +0.000 N 
ATOM     13  H   UNL     1      -1.803  14.151  24.900  0.00  0.00    +0.000 HD
ENDROOT
BRANCH   1  17
ATOM     14  C   UNL     1       0.098  12.397  20.020  0.00  0.00    +0.000 C 
ATOM     15  C   UNL     1      -0.723  13.068  21.160  0.00  0.00    +0.000 C 
ATOM     16  O   UNL     1      -1.056  14.255  21.088  0.00  0.00    +0.000 OA
ATOM     17  C   UNL     1      -1.106  12.300  22.380  0.00  0.00    +0.000 C 
ATOM     18  C   UNL     1      -0.612  11.034  22.495  0.00  0.00    +0.000 C 
ATOM     19  C   UNL     1       0.114  10.306  21.428  0.00  0.00    +0.000 A 
ATOM     20  C   UNL     1       0.473   8.947  21.575  0.00  0.00    +0.000 A 
ATOM     21  C   UNL     1       1.137   8.241  20.569  0.00  0.00    +0.000 A 
ATOM     22  C   UNL     1       1.472   8.866  19.383  0.00  0.00    +0.000 A 
ATOM     23  C   UNL     1       1.116  10.197  19.202  0.00  0.00    +0.000 A 
ATOM     24  C   UNL     1       0.430  10.925  20.219  0.00  0.00    +0.000 A 
BRANCH  18  25
ATOM     25  O   UNL     1      -0.818  10.227  23.605  0.00  0.00    +0.000 OA
ATOM     26  H   UNL     1      -1.342   9.444  23.344  0.00  0.00    +0.000 HD
ENDBRANCH  18  25
BRANCH  14  27
ATOM     27  C   UNL     1      -0.743  12.550  18.710  0.00  0.00    +0.000 C 
BRANCH  27  29
ATOM     28  C   UNL     1      -2.043  10.781  17.420  0.00  0.00    +0.000 C 
ATOM     29  C   UNL     1      -1.990  11.638  18.675  0.00  0.00    +0.000 C 
ENDBRANCH  27  29
ENDBRANCH  14  27
BRANCH  14  30
ATOM     30  C   UNL     1       1.469  13.151  19.918  0.00  0.00    +0.000 C 
BRANCH  30  31
ATOM     31  C   UNL     1       1.634  13.933  18.592  0.00  0.00    +0.000 C 
ATOM     32  C   UNL     1       1.635  15.439  18.788  0.00  0.00    +0.000 C 
ENDBRANCH  30  31
ENDBRANCH  14  30
ENDBRANCH   1  17
BRANCH   8  33
ATOM     33  O   UNL     1      -5.692  17.481  21.711  0.00  0.00    +0.000 OA
BRANCH  33  34
ATOM     34  C   UNL     1      -6.144  16.915  20.492  0.00  0.00    +0.000 C 
BRANCH  34  35
ATOM     35  C   UNL     1      -5.646  17.234  19.057  0.00  0.00    +0.000 C 
ATOM     36  N   UNL     1      -6.431  16.920  17.993  0.00  0.00    +0.000 N 
ATOM     37  O   UNL     1      -4.571  17.801  18.863  0.00  0.00    +0.000 OA
ATOM     38  H   UNL     1      -7.341  16.489  18.070  0.00  0.00    +0.000 HD
ATOM     39  H   UNL     1      -6.077  17.131  17.068  0.00  0.00    +0.000 HD
ENDBRANCH  34  35
ENDBRANCH  33  34
ENDBRANCH   8  33
TORSDOF 9
ENDMDL
MODEL 5
REMARK VINA RESULT:      -6.2      4.597      8.022
REMARK  Name = 
REMARK  11 active torsions:
REMARK  status: ('A' for Active; 'I' for Inactive)
REMARK    1  A    between atoms: C_1  and  C_2
REMARK    2  A    between atoms: C_2  and  C_3
REMARK    3  A    between atoms: C_3  and  C_4
REMARK    4  A    between atoms: C_4  and  C_5
REMARK    5  A    between atoms: C_5  and  C_6
REMARK    6  A    between atoms: C_6  and  C_7
REMARK    7  A    between atoms: C_10  and  C_11
REMARK    8  A    between atoms: C_18  and  O_19
REMARK    9  A    between atoms: O_19  and  C_20
REMARK   10  A    between atoms: C_20  and  C_21
REMARK   11  A    between atoms: C_28  and  O_29
REMARK                            x       y       z     vdW  Elec       q    Type
REMARK                         _______ _______ _______ _____ _____    ______ ____
ROOT
ATOM      1  C   UNL     1      -0.693  13.065  22.589  0.00  0.00    +0.000 C 
ATOM      2  N   UNL     1       0.030  13.947  21.933  0.00  0.00    +0.000 NA
ATOM      3  S   UNL     1      -0.340  13.901  20.359  0.00  0.00    +0.000 S 
ATOM      4  O   UNL     1       0.705  14.564  19.606  0.00  0.00    +0.000 OA
ATOM      5  O   UNL     1      -1.738  14.288  20.190  0.00  0.00    +0.000 OA
ATOM      6  C   UNL     1      -0.294  12.219  19.951  0.00  0.00    +0.000 A 
ATOM      7  C   UNL     1      -0.638  11.837  18.667  0.00  0.00    +0.000 A 
ATOM      8  C   UNL     1      -0.725  10.493  18.390  0.00  0.00    +0.000 A 
ATOM      9  C   UNL     1      -0.174   9.572  19.279  0.00  0.00    +0.000 A 
ATOM     10  C   UNL     1       0.150   9.978  20.595  0.00  0.00    +0.000 A 
ATOM     11  C   UNL     1      -0.075  11.309  20.988  0.00  0.00    +0.000 A 
ATOM     12  N   UNL     1      -0.423  11.703  22.319  0.00  0.00    +0.000 N 
ATOM     13  H   UNL     1      -0.020  11.131  23.059  0.00  0.00    +0.000 HD
ENDROOT
BRANCH   1  17
ATOM     14  C   UNL     1      -4.561  14.132  23.346  0.00  0.00    +0.000 C 
ATOM     15  C   UNL     1      -3.342  13.255  22.936  0.00  0.00    +0.000 C 
ATOM     16  O   UNL     1      -3.501  12.182  22.346  0.00  0.00    +0.000 OA
ATOM     17  C   UNL     1      -1.950  13.679  23.268  0.00  0.00    +0.000 C 
ATOM     18  C   UNL     1      -1.810  14.797  24.034  0.00  0.00    +0.000 C 
ATOM     19  C   UNL     1      -2.912  15.718  24.403  0.00  0.00    +0.000 A 
ATOM     20  C   UNL     1      -2.663  16.930  25.085  0.00  0.00    +0.000 A 
ATOM     21  C   UNL     1      -3.688  17.818  25.419  0.00  0.00    +0.000 A 
ATOM     22  C   UNL     1      -4.998  17.527  25.090  0.00  0.00    +0.000 A 
ATOM     23  C   UNL     1      -5.272  16.350  24.403  0.00  0.00    +0.000 A 
ATOM     24  C   UNL     1      -4.232  15.440  24.050  0.00  0.00    +0.000 A 
BRANCH  18  25
ATOM     25  O   UNL     1      -0.586  15.270  24.487  0.00  0.00    +0.000 OA
ATOM     26  H   UNL     1      -0.242  14.670  25.179  0.00  0.00    +0.000 HD
ENDBRANCH  18  25
BRANCH  14  27
ATOM     27  C   UNL     1      -5.347  14.453  22.031  0.00  0.00    +0.000 C 
BRANCH  27  29
ATOM     28  C   UNL     1      -5.497  16.624  20.711  0.00  0.00    +0.000 C 
ATOM     29  C   UNL     1      -4.614  15.452  21.110  0.00  0.00    +0.000 C 
ENDBRANCH  27  29
ENDBRANCH  14  27
BRANCH  14  30
ATOM     30  C   UNL     1      -5.430  13.295  24.348  0.00  0.00    +0.000 C 
BRANCH  30  31
ATOM     31  C   UNL     1      -6.853  12.999  23.817  0.00  0.00    +0.000 C 
ATOM     32  C   UNL     1      -7.916  13.885  24.441  0.00  0.00    +0.000 C 
ENDBRANCH  30  31
ENDBRANCH  14  30
ENDBRANCH   1  17
BRANCH   8  33
ATOM     33  O   UNL     1      -1.433  10.204  17.269  0.00  0.00    +0.000 OA
BRANCH  33  34
ATOM     34  C   UNL     1      -2.784   9.810  17.445  0.00  0.00    +0.000 C 
BRANCH  34  35
ATOM     35  C   UNL     1      -4.051  10.700  17.341  0.00  0.00    +0.000 C 
ATOM     36  N   UNL     1      -4.483  11.105  16.118  0.00  0.00    +0.000 N 
ATOM     37  O   UNL     1      -4.697  11.016  18.340  0.00  0.00    +0.000 OA
ATOM     38  H   UNL     1      -4.033  10.856  15.249  0.00  0.00    +0.000 HD
ATOM     39  H   UNL     1      -5.308  11.692  16.080  0.00  0.00    +0.000 HD
ENDBRANCH  34  35
ENDBRANCH  33  34
ENDBRANCH   8  33
TORSDOF 9
ENDMDL
MODEL 6
REMARK VINA RESULT:      -6.2      4.225      7.732
REMARK  Name = 
REMARK  11 active torsions:
REMARK  status: ('A' for Active; 'I' for Inactive)
REMARK    1  A    between atoms: C_1  and  C_2
REMARK    2  A    between atoms: C_2  and  C_3
REMARK    3  A    between atoms: C_3  and  C_4
REMARK    4  A    between atoms: C_4  and  C_5
REMARK    5  A    between atoms: C_5  and  C_6
REMARK    6  A    between atoms: C_6  and  C_7
REMARK    7  A    between atoms: C_10  and  C_11
REMARK    8  A    between atoms: C_18  and  O_19
REMARK    9  A    between atoms: O_19  and  C_20
REMARK   10  A    between atoms: C_20  and  C_21
REMARK   11  A    between atoms: C_28  and  O_29
REMARK                            x       y       z     vdW  Elec       q    Type
REMARK                         _______ _______ _______ _____ _____    ______ ____
ROOT
ATOM      1  C   UNL     1      -1.874  14.010  21.958  0.00  0.00    +0.000 C 
ATOM      2  N   UNL     1      -1.903  13.710  23.239  0.00  0.00    +0.000 NA
ATOM      3  S   UNL     1      -3.430  13.724  23.772  0.00  0.00    +0.000 S 
ATOM      4  O   UNL     1      -3.427  13.788  25.219  0.00  0.00    +0.000 OA
ATOM      5  O   UNL     1      -4.185  12.684  23.077  0.00  0.00    +0.000 OA
ATOM      6  C   UNL     1      -4.084  15.215  23.183  0.00  0.00    +0.000 A 
ATOM      7  C   UNL     1      -5.417  15.495  23.419  0.00  0.00    +0.000 A 
ATOM      8  C   UNL     1      -5.957  16.617  22.835  0.00  0.00    +0.000 A 
ATOM      9  C   UNL     1      -5.112  17.590  22.304  0.00  0.00    +0.000 A 
ATOM     10  C   UNL     1      -3.757  17.275  22.050  0.00  0.00    +0.000 A 
ATOM     11  C   UNL     1      -3.273  15.989  22.348  0.00  0.00    +0.000 A 
ATOM     12  N   UNL     1      -2.238  15.332  21.612  0.00  0.00    +0.000 N 
ATOM     13  H   UNL     1      -1.523  15.947  21.227  0.00  0.00    +0.000 HD
ENDROOT
BRANCH   1  17
ATOM     14  C   UNL     1      -0.405  10.915  19.735  0.00  0.00    +0.000 C 
ATOM     15  C   UNL     1      -0.577  11.908  20.922  0.00  0.00    +0.000 C 
ATOM     16  O   UNL     1       0.281  11.994  21.806  0.00  0.00    +0.000 OA
ATOM     17  C   UNL     1      -1.795  12.762  21.034  0.00  0.00    +0.000 C 
ATOM     18  C   UNL     1      -2.784  12.550  20.120  0.00  0.00    +0.000 C 
ATOM     19  C   UNL     1      -2.667  11.678  18.927  0.00  0.00    +0.000 A 
ATOM     20  C   UNL     1      -3.689  11.620  17.953  0.00  0.00    +0.000 A 
ATOM     21  C   UNL     1      -3.583  10.820  16.812  0.00  0.00    +0.000 A 
ATOM     22  C   UNL     1      -2.456  10.047  16.605  0.00  0.00    +0.000 A 
ATOM     23  C   UNL     1      -1.427  10.097  17.537  0.00  0.00    +0.000 A 
ATOM     24  C   UNL     1      -1.521  10.917  18.701  0.00  0.00    +0.000 A 
BRANCH  18  25
ATOM     25  O   UNL     1      -4.004  13.212  20.142  0.00  0.00    +0.000 OA
ATOM     26  H   UNL     1      -3.851  14.177  20.110  0.00  0.00    +0.000 HD
ENDBRANCH  18  25
BRANCH  14  27
ATOM     27  C   UNL     1       0.938  11.291  19.025  0.00  0.00    +0.000 C 
BRANCH  27  29
ATOM     28  C   UNL     1       2.375  13.358  18.643  0.00  0.00    +0.000 C 
ATOM     29  C   UNL     1       0.982  12.756  18.539  0.00  0.00    +0.000 C 
ENDBRANCH  27  29
ENDBRANCH  14  27
BRANCH  14  30
ATOM     30  C   UNL     1      -0.356   9.467  20.333  0.00  0.00    +0.000 C 
BRANCH  30  31
ATOM     31  C   UNL     1       1.086   8.941  20.533  0.00  0.00    +0.000 C 
ATOM     32  C   UNL     1       1.416   8.648  21.986  0.00  0.00    +0.000 C 
ENDBRANCH  30  31
ENDBRANCH  14  30
ENDBRANCH   1  17
BRANCH   8  33
ATOM     33  O   UNL     1      -7.313  16.612  22.779  0.00  0.00    +0.000 OA
BRANCH  33  34
ATOM     34  C   UNL     1      -7.917  15.679  21.897  0.00  0.00    +0.000 C 
BRANCH  34  35
ATOM     35  C   UNL     1      -7.417  15.244  20.493  0.00  0.00    +0.000 C 
ATOM     36  N   UNL     1      -7.666  16.041  19.421  0.00  0.00    +0.000 N 
ATOM     37  O   UNL     1      -6.767  14.211  20.335  0.00  0.00    +0.000 OA
ATOM     38  H   UNL     1      -8.158  16.921  19.473  0.00  0.00    +0.000 HD
ATOM     39  H   UNL     1      -7.336  15.728  18.515  0.00  0.00    +0.000 HD
ENDBRANCH  34  35
ENDBRANCH  33  34
ENDBRANCH   8  33
TORSDOF 9
ENDMDL
MODEL 7
REMARK VINA RESULT:      -6.2      4.371      7.285
REMARK  Name = 
REMARK  11 active torsions:
REMARK  status: ('A' for Active; 'I' for Inactive)
REMARK    1  A    between atoms: C_1  and  C_2
REMARK    2  A    between atoms: C_2  and  C_3
REMARK    3  A    between atoms: C_3  and  C_4
REMARK    4  A    between atoms: C_4  and  C_5
REMARK    5  A    between atoms: C_5  and  C_6
REMARK    6  A    between atoms: C_6  and  C_7
REMARK    7  A    between atoms: C_10  and  C_11
REMARK    8  A    between atoms: C_18  and  O_19
REMARK    9  A    between atoms: O_19  and  C_20
REMARK   10  A    between atoms: C_20  and  C_21
REMARK   11  A    between atoms: C_28  and  O_29
REMARK                            x       y       z     vdW  Elec       q    Type
REMARK                         _______ _______ _______ _____ _____    ______ ____
ROOT
ATOM      1  C   UNL     1      -2.081  13.154  22.863  0.00  0.00    +0.000 C 
ATOM      2  N   UNL     1      -0.973  13.860  22.936  0.00  0.00    +0.000 NA
ATOM      3  S   UNL     1       0.013  13.465  21.717  0.00  0.00    +0.000 S 
ATOM      4  O   UNL     1       1.350  13.934  22.018  0.00  0.00    +0.000 OA
ATOM      5  O   UNL     1      -0.630  13.817  20.454  0.00  0.00    +0.000 OA
ATOM      6  C   UNL     1       0.049  11.734  21.729  0.00  0.00    +0.000 A 
ATOM      7  C   UNL     1       0.765  11.078  20.745  0.00  0.00    +0.000 A 
ATOM      8  C   UNL     1       0.680   9.706  20.686  0.00  0.00    +0.000 A 
ATOM      9  C   UNL     1       0.156   9.004  21.769  0.00  0.00    +0.000 A 
ATOM     10  C   UNL     1      -0.593   9.691  22.753  0.00  0.00    +0.000 A 
ATOM     11  C   UNL     1      -0.790  11.079  22.634  0.00  0.00    +0.000 A 
ATOM     12  N   UNL     1      -1.958  11.764  23.093  0.00  0.00    +0.000 N 
ATOM     13  H   UNL     1      -2.392  11.369  23.926  0.00  0.00    +0.000 HD
ENDROOT
BRANCH   1  17
ATOM     14  C   UNL     1      -5.358  15.526  22.301  0.00  0.00    +0.000 C 
ATOM     15  C   UNL     1      -3.976  15.046  22.836  0.00  0.00    +0.000 C 
ATOM     16  O   UNL     1      -3.440  15.604  23.798  0.00  0.00    +0.000 OA
ATOM     17  C   UNL     1      -3.255  13.915  22.184  0.00  0.00    +0.000 C 
ATOM     18  C   UNL     1      -3.805  13.406  21.045  0.00  0.00    +0.000 C 
ATOM     19  C   UNL     1      -5.143  13.760  20.515  0.00  0.00    +0.000 A 
ATOM     20  C   UNL     1      -5.699  13.086  19.405  0.00  0.00    +0.000 A 
ATOM     21  C   UNL     1      -6.968  13.393  18.909  0.00  0.00    +0.000 A 
ATOM     22  C   UNL     1      -7.726  14.387  19.499  0.00  0.00    +0.000 A 
ATOM     23  C   UNL     1      -7.213  15.055  20.604  0.00  0.00    +0.000 A 
ATOM     24  C   UNL     1      -5.921  14.744  21.124  0.00  0.00    +0.000 A 
BRANCH  18  25
ATOM     25  O   UNL     1      -3.211  12.407  20.286  0.00  0.00    +0.000 OA
ATOM     26  H   UNL     1      -2.405  12.089  20.740  0.00  0.00    +0.000 HD
ENDBRANCH  18  25
BRANCH  14  27
ATOM     27  C   UNL     1      -6.362  15.427  23.497  0.00  0.00    +0.000 C 
BRANCH  27  29
ATOM     28  C   UNL     1      -7.914  13.469  23.984  0.00  0.00    +0.000 C 
ATOM     29  C   UNL     1      -6.491  13.999  24.070  0.00  0.00    +0.000 C 
ENDBRANCH  27  29
ENDBRANCH  14  27
BRANCH  14  30
ATOM     30  C   UNL     1      -5.187  17.005  21.811  0.00  0.00    +0.000 C 
BRANCH  30  31
ATOM     31  C   UNL     1      -4.163  17.149  20.659  0.00  0.00    +0.000 C 
ATOM     32  C   UNL     1      -3.037  18.114  20.983  0.00  0.00    +0.000 C 
ENDBRANCH  30  31
ENDBRANCH  14  30
ENDBRANCH   1  17
BRANCH   8  33
ATOM     33  O   UNL     1       1.067   9.180  19.496  0.00  0.00    +0.000 OA
BRANCH  33  34
ATOM     34  C   UNL     1       0.720   9.906  18.328  0.00  0.00    +0.000 C 
BRANCH  34  35
ATOM     35  C   UNL     1      -0.694  10.367  17.885  0.00  0.00    +0.000 C 
ATOM     36  N   UNL     1      -1.034  11.677  17.998  0.00  0.00    +0.000 N 
ATOM     37  O   UNL     1      -1.503   9.577  17.398  0.00  0.00    +0.000 OA
ATOM     38  H   UNL     1      -0.416  12.394  18.351  0.00  0.00    +0.000 HD
ATOM     39  H   UNL     1      -1.967  11.949  17.709  0.00  0.00    +0.000 HD
ENDBRANCH  34  35
ENDBRANCH  33  34
ENDBRANCH   8  33
TORSDOF 9
ENDMDL
MODEL 8
REMARK VINA RESULT:      -6.2      3.006      9.230
REMARK  Name = 
REMARK  11 active torsions:
REMARK  status: ('A' for Active; 'I' for Inactive)
REMARK    1  A    between atoms: C_1  and  C_2
REMARK    2  A    between atoms: C_2  and  C_3
REMARK    3  A    between atoms: C_3  and  C_4
REMARK    4  A    between atoms: C_4  and  C_5
REMARK    5  A    between atoms: C_5  and  C_6
REMARK    6  A    between atoms: C_6  and  C_7
REMARK    7  A    between atoms: C_10  and  C_11
REMARK    8  A    between atoms: C_18  and  O_19
REMARK    9  A    between atoms: O_19  and  C_20
REMARK   10  A    between atoms: C_20  and  C_21
REMARK   11  A    between atoms: C_28  and  O_29
REMARK                            x       y       z     vdW  Elec       q    Type
REMARK                         _______ _______ _______ _____ _____    ______ ____
ROOT
ATOM      1  C   UNL     1       5.600  15.735  18.063  0.00  0.00    +0.000 C 
ATOM      2  N   UNL     1       5.155  16.743  18.781  0.00  0.00    +0.000 NA
ATOM      3  S   UNL     1       4.513  16.195  20.160  0.00  0.00    +0.000 S 
ATOM      4  O   UNL     1       3.690  17.233  20.746  0.00  0.00    +0.000 OA
ATOM      5  O   UNL     1       5.559  15.545  20.945  0.00  0.00    +0.000 OA
ATOM      6  C   UNL     1       3.463  14.908  19.671  0.00  0.00    +0.000 A 
ATOM      7  C   UNL     1       2.806  14.179  20.645  0.00  0.00    +0.000 A 
ATOM      8  C   UNL     1       2.080  13.079  20.253  0.00  0.00    +0.000 A 
ATOM      9  C   UNL     1       1.762  12.909  18.907  0.00  0.00    +0.000 A 
ATOM     10  C   UNL     1       2.462  13.649  17.925  0.00  0.00    +0.000 A 
ATOM     11  C   UNL     1       3.461  14.557  18.318  0.00  0.00    +0.000 A 
ATOM     12  N   UNL     1       4.624  14.854  17.540  0.00  0.00    +0.000 N 
ATOM     13  H   UNL     1       4.489  14.821  16.531  0.00  0.00    +0.000 HD
ENDROOT
BRANCH   1  17
ATOM     14  C   UNL     1       9.186  13.908  18.756  0.00  0.00    +0.000 C 
ATOM     15  C   UNL     1       7.737  14.129  18.230  0.00  0.00    +0.000 C 
ATOM     16  O   UNL     1       7.071  13.187  17.792  0.00  0.00    +0.000 OA
ATOM     17  C   UNL     1       7.128  15.491  18.220  0.00  0.00    +0.000 C 
ATOM     18  C   UNL     1       7.931  16.531  18.583  0.00  0.00    +0.000 C 
ATOM     19  C   UNL     1       9.291  16.395  19.158  0.00  0.00    +0.000 A 
ATOM     20  C   UNL     1      10.005  17.516  19.637  0.00  0.00    +0.000 A 
ATOM     21  C   UNL     1      11.277  17.399  20.202  0.00  0.00    +0.000 A 
ATOM     22  C   UNL     1      11.884  16.162  20.305  0.00  0.00    +0.000 A 
ATOM     23  C   UNL     1      11.198  15.039  19.859  0.00  0.00    +0.000 A 
ATOM     24  C   UNL     1       9.895  15.145  19.287  0.00  0.00    +0.000 A 
BRANCH  18  25
ATOM     25  O   UNL     1       7.530  17.859  18.549  0.00  0.00    +0.000 OA
ATOM     26  H   UNL     1       8.287  18.433  18.782  0.00  0.00    +0.000 HD
ENDBRANCH  18  25
BRANCH  14  27
ATOM     27  C   UNL     1       9.091  12.851  19.905  0.00  0.00    +0.000 C 
BRANCH  27  29
ATOM     28  C   UNL     1       8.537  12.441  22.356  0.00  0.00    +0.000 C 
ATOM     29  C   UNL     1       8.401  13.391  21.177  0.00  0.00    +0.000 C 
ENDBRANCH  27  29
ENDBRANCH  14  27
BRANCH  14  30
ATOM     30  C   UNL     1      10.049  13.382  17.557  0.00  0.00    +0.000 C 
BRANCH  30  31
ATOM     31  C   UNL     1      10.490  11.908  17.727  0.00  0.00    +0.000 C 
ATOM     32  C   UNL     1      11.936  11.767  18.167  0.00  0.00    +0.000 C 
ENDBRANCH  30  31
ENDBRANCH  14  30
ENDBRANCH   1  17
BRANCH   8  33
ATOM     33  O   UNL     1       1.807  12.211  21.260  0.00  0.00    +0.000 OA
BRANCH  33  34
ATOM     34  C   UNL     1       0.683  11.362  21.091  0.00  0.00    +0.000 C 
BRANCH  34  35
ATOM     35  C   UNL     1      -0.627  11.348  21.924  0.00  0.00    +0.000 C 
ATOM     36  N   UNL     1      -0.729  10.514  22.992  0.00  0.00    +0.000 N 
ATOM     37  O   UNL     1      -1.562  12.103  21.662  0.00  0.00    +0.000 OA
ATOM     38  H   UNL     1       0.007   9.891  23.295  0.00  0.00    +0.000 HD
ATOM     39  H   UNL     1      -1.598  10.519  23.512  0.00  0.00    +0.000 HD
ENDBRANCH  34  35
ENDBRANCH  33  34
ENDBRANCH   8  33
TORSDOF 9
ENDMDL
MODEL 9
REMARK VINA RESULT:      -6.2      4.497      7.006
REMARK  Name = 
REMARK  11 active torsions:
REMARK  status: ('A' for Active; 'I' for Inactive)
REMARK    1  A    between atoms: C_1  and  C_2
REMARK    2  A    between atoms: C_2  and  C_3
REMARK    3  A    between atoms: C_3  and  C_4
REMARK    4  A    between atoms: C_4  and  C_5
REMARK    5  A    between atoms: C_5  and  C_6
REMARK    6  A    between atoms: C_6  and  C_7
REMARK    7  A    between atoms: C_10  and  C_11
REMARK    8  A    between atoms: C_18  and  O_19
REMARK    9  A    between atoms: O_19  and  C_20
REMARK   10  A    between atoms: C_20  and  C_21
REMARK   11  A    between atoms: C_28  and  O_29
REMARK                            x       y       z     vdW  Elec       q    Type
REMARK                         _______ _______ _______ _____ _____    ______ ____
ROOT
ATOM      1  C   UNL     1      -2.098  12.839  22.753  0.00  0.00    +0.000 C 
ATOM      2  N   UNL     1      -1.040  13.621  22.776  0.00  0.00    +0.000 NA
ATOM      3  S   UNL     1      -0.035  13.223  21.573  0.00  0.00    +0.000 S 
ATOM      4  O   UNL     1       1.269  13.796  21.835  0.00  0.00    +0.000 OA
ATOM      5  O   UNL     1      -0.707  13.457  20.297  0.00  0.00    +0.000 OA
ATOM      6  C   UNL     1       0.117  11.502  21.684  0.00  0.00    +0.000 A 
ATOM      7  C   UNL     1       0.871  10.839  20.733  0.00  0.00    +0.000 A 
ATOM      8  C   UNL     1       0.878   9.464  20.754  0.00  0.00    +0.000 A 
ATOM      9  C   UNL     1       0.408   8.791  21.880  0.00  0.00    +0.000 A 
ATOM     10  C   UNL     1      -0.381   9.483  22.829  0.00  0.00    +0.000 A 
ATOM     11  C   UNL     1      -0.671  10.845  22.633  0.00  0.00    +0.000 A 
ATOM     12  N   UNL     1      -1.881  11.476  23.062  0.00  0.00    +0.000 N 
ATOM     13  H   UNL     1      -2.283  11.102  23.920  0.00  0.00    +0.000 HD
ENDROOT
BRANCH   1  17
ATOM     14  C   UNL     1      -5.611  14.819  22.108  0.00  0.00    +0.000 C 
ATOM     15  C   UNL     1      -4.207  14.489  22.695  0.00  0.00    +0.000 C 
ATOM     16  O   UNL     1      -3.787  15.070  23.701  0.00  0.00    +0.000 OA
ATOM     17  C   UNL     1      -3.324  13.479  22.042  0.00  0.00    +0.000 C 
ATOM     18  C   UNL     1      -3.755  12.952  20.861  0.00  0.00    +0.000 C 
ATOM     19  C   UNL     1      -5.101  13.163  20.277  0.00  0.00    +0.000 A 
ATOM     20  C   UNL     1      -5.519  12.471  19.118  0.00  0.00    +0.000 A 
ATOM     21  C   UNL     1      -6.792  12.643  18.570  0.00  0.00    +0.000 A 
ATOM     22  C   UNL     1      -7.692  13.515  19.154  0.00  0.00    +0.000 A 
ATOM     23  C   UNL     1      -7.315  14.196  20.305  0.00  0.00    +0.000 A 
ATOM     24  C   UNL     1      -6.020  14.022  20.878  0.00  0.00    +0.000 A 
BRANCH  18  25
ATOM     25  O   UNL     1      -3.010  12.062  20.100  0.00  0.00    +0.000 OA
ATOM     26  H   UNL     1      -3.593  11.351  19.769  0.00  0.00    +0.000 HD
ENDBRANCH  18  25
BRANCH  14  27
ATOM     27  C   UNL     1      -6.649  14.554  23.248  0.00  0.00    +0.000 C 
BRANCH  27  29
ATOM     28  C   UNL     1      -7.854  12.321  23.449  0.00  0.00    +0.000 C 
ATOM     29  C   UNL     1      -6.601  13.111  23.794  0.00  0.00    +0.000 C 
ENDBRANCH  27  29
ENDBRANCH  14  27
BRANCH  14  30
ATOM     30  C   UNL     1      -5.599  16.327  21.676  0.00  0.00    +0.000 C 
BRANCH  30  31
ATOM     31  C   UNL     1      -4.551  16.637  20.581  0.00  0.00    +0.000 C 
ATOM     32  C   UNL     1      -3.553  17.702  20.998  0.00  0.00    +0.000 C 
ENDBRANCH  30  31
ENDBRANCH  14  30
ENDBRANCH   1  17
BRANCH   8  33
ATOM     33  O   UNL     1       1.294   8.896  19.593  0.00  0.00    +0.000 OA
BRANCH  33  34
ATOM     34  C   UNL     1       2.003   7.673  19.693  0.00  0.00    +0.000 C 
BRANCH  34  35
ATOM     35  C   UNL     1       2.858   6.982  18.597  0.00  0.00    +0.000 C 
ATOM     36  N   UNL     1       3.049   5.638  18.649  0.00  0.00    +0.000 N 
ATOM     37  O   UNL     1       3.337   7.620  17.660  0.00  0.00    +0.000 OA
ATOM     38  H   UNL     1       2.659   5.039  19.362  0.00  0.00    +0.000 HD
ATOM     39  H   UNL     1       3.619   5.214  17.926  0.00  0.00    +0.000 HD
ENDBRANCH  34  35
ENDBRANCH  33  34
ENDBRANCH   8  33
TORSDOF 9
ENDMDL
