MODEL 1
REMARK VINA RESULT:      -8.6      0.000      0.000
REMARK  Name = 
REMARK  3 active torsions:
REMARK  status: ('A' for Active; 'I' for Inactive)
REMARK    1  A    between atoms: O_1  and  C_2
REMARK    2  A    between atoms: C_5  and  C_6
REMARK    3  A    between atoms: C_6  and  C_7
REMARK                            x       y       z     vdW  Elec       q    Type
REMARK                         _______ _______ _______ _____ _____    ______ ____
ROOT
ATOM      1  C   UNL     1       4.679   3.125  19.504  0.00  0.00    +0.000 A 
ATOM      2  N   UNL     1       5.525   4.164  19.415  0.00  0.00    +0.000 NA
ATOM      3  N   UNL     1       5.072   5.328  18.892  0.00  0.00    +0.000 NA
ATOM      4  C   UNL     1       3.789   5.436  18.453  0.00  0.00    +0.000 A 
ATOM      5  C   UNL     1       2.879   4.361  18.537  0.00  0.00    +0.000 A 
ATOM      6  C   UNL     1       1.537   4.410  18.090  0.00  0.00    +0.000 A 
ATOM      7  C   UNL     1       0.695   3.301  18.190  0.00  0.00    +0.000 A 
ATOM      8  C   UNL     1       1.168   2.120  18.752  0.00  0.00    +0.000 A 
ATOM      9  C   UNL     1       2.484   2.050  19.202  0.00  0.00    +0.000 A 
ATOM     10  C   UNL     1       3.350   3.158  19.094  0.00  0.00    +0.000 A 
ENDROOT
BRANCH   1  11
ATOM     11  O   UNL     1       5.248   1.995  20.010  0.00  0.00    +0.000 OA
ATOM     12  H   UNL     1       4.586   1.746  20.681  0.00  0.00    +0.000 HD
ENDBRANCH   1  11
BRANCH   4  13
ATOM     13  C   UNL     1       3.374   6.759  17.843  0.00  0.00    +0.000 C 
BRANCH  13  14
ATOM     14  C   UNL     1       2.478   7.623  18.697  0.00  0.00    +0.000 A 
ATOM     15  C   UNL     1       2.250   7.294  20.038  0.00  0.00    +0.000 A 
ATOM     16  C   UNL     1       1.394   8.069  20.820  0.00  0.00    +0.000 A 
ATOM     17  C   UNL     1       0.759   9.197  20.280  0.00  0.00    +0.000 A 
ATOM     18  C   UNL     1      -0.086  10.000  21.060  0.00  0.00    +0.000 A 
ATOM     19  C   UNL     1      -0.689  11.135  20.518  0.00  0.00    +0.000 A 
ATOM     20  C   UNL     1      -0.475  11.469  19.185  0.00  0.00    +0.000 A 
ATOM     21  C   UNL     1       0.344  10.667  18.388  0.00  0.00    +0.000 A 
ATOM     22  C   UNL     1       0.978   9.535  18.925  0.00  0.00    +0.000 A 
ATOM     23  C   UNL     1       1.825   8.736  18.144  0.00  0.00    +0.000 A 
ENDBRANCH  13  14
ENDBRANCH   4  13
TORSDOF 3
ENDMDL
MODEL 2
REMARK VINA RESULT:      -8.5      0.719      1.754
REMARK  Name = 
REMARK  3 active torsions:
REMARK  status: ('A' for Active; 'I' for Inactive)
REMARK    1  A    between atoms: O_1  and  C_2
REMARK    2  A    between atoms: C_5  and  C_6
REMARK    3  A    between atoms: C_6  and  C_7
REMARK                            x       y       z     vdW  Elec       q    Type
REMARK                         _______ _______ _______ _____ _____    ______ ____
ROOT
ATOM      1  C   UNL     1       4.669   3.637  19.236  0.00  0.00    +0.000 A 
ATOM      2  N   UNL     1       5.462   4.710  19.085  0.00  0.00    +0.000 NA
ATOM      3  N   UNL     1       4.948   5.823  18.510  0.00  0.00    +0.000 NA
ATOM      4  C   UNL     1       3.657   5.847  18.082  0.00  0.00    +0.000 A 
ATOM      5  C   UNL     1       2.801   4.735  18.232  0.00  0.00    +0.000 A 
ATOM      6  C   UNL     1       1.454   4.697  17.800  0.00  0.00    +0.000 A 
ATOM      7  C   UNL     1       0.668   3.556  17.966  0.00  0.00    +0.000 A 
ATOM      8  C   UNL     1       1.203   2.429  18.581  0.00  0.00    +0.000 A 
ATOM      9  C   UNL     1       2.525   2.444  19.017  0.00  0.00    +0.000 A 
ATOM     10  C   UNL     1       3.335   3.585  18.842  0.00  0.00    +0.000 A 
ENDROOT
BRANCH   1  11
ATOM     11  O   UNL     1       5.297   2.562  19.790  0.00  0.00    +0.000 OA
ATOM     12  H   UNL     1       5.773   2.992  20.525  0.00  0.00    +0.000 HD
ENDBRANCH   1  11
BRANCH   4  13
ATOM     13  C   UNL     1       3.172   7.116  17.413  0.00  0.00    +0.000 C 
BRANCH  13  14
ATOM     14  C   UNL     1       2.285   8.004  18.252  0.00  0.00    +0.000 A 
ATOM     15  C   UNL     1       1.647   9.109  17.678  0.00  0.00    +0.000 A 
ATOM     16  C   UNL     1       0.857   9.952  18.459  0.00  0.00    +0.000 A 
ATOM     17  C   UNL     1       0.676   9.697  19.826  0.00  0.00    +0.000 A 
ATOM     18  C   UNL     1      -0.136  10.522  20.618  0.00  0.00    +0.000 A 
ATOM     19  C   UNL     1      -0.329  10.242  21.971  0.00  0.00    +0.000 A 
ATOM     20  C   UNL     1       0.304   9.148  22.554  0.00  0.00    +0.000 A 
ATOM     21  C   UNL     1       1.134   8.331  21.784  0.00  0.00    +0.000 A 
ATOM     22  C   UNL     1       1.320   8.586  20.417  0.00  0.00    +0.000 A 
ATOM     23  C   UNL     1       2.128   7.759  19.625  0.00  0.00    +0.000 A 
ENDBRANCH  13  14
ENDBRANCH   4  13
TORSDOF 3
ENDMDL
MODEL 3
REMARK VINA RESULT:      -8.4      2.324      3.424
REMARK  Name = 
REMARK  3 active torsions:
REMARK  status: ('A' for Active; 'I' for Inactive)
REMARK    1  A    between atoms: O_1  and  C_2
REMARK    2  A    between atoms: C_5  and  C_6
REMARK    3  A    between atoms: C_6  and  C_7
REMARK                            x       y       z     vdW  Elec       q    Type
REMARK                         _______ _______ _______ _____ _____    ______ ____
ROOT
ATOM      1  C   UNL     1       7.109   4.978  18.679  0.00  0.00    +0.000 A 
ATOM      2  N   UNL     1       6.372   5.203  19.779  0.00  0.00    +0.000 NA
ATOM      3  N   UNL     1       5.025   5.279  19.655  0.00  0.00    +0.000 NA
ATOM      4  C   UNL     1       4.435   5.143  18.438  0.00  0.00    +0.000 A 
ATOM      5  C   UNL     1       5.185   4.903  17.267  0.00  0.00    +0.000 A 
ATOM      6  C   UNL     1       4.628   4.761  15.973  0.00  0.00    +0.000 A 
ATOM      7  C   UNL     1       5.432   4.539  14.855  0.00  0.00    +0.000 A 
ATOM      8  C   UNL     1       6.812   4.440  15.002  0.00  0.00    +0.000 A 
ATOM      9  C   UNL     1       7.382   4.572  16.265  0.00  0.00    +0.000 A 
ATOM     10  C   UNL     1       6.582   4.811  17.402  0.00  0.00    +0.000 A 
ENDROOT
BRANCH   1  11
ATOM     11  O   UNL     1       8.451   4.958  18.911  0.00  0.00    +0.000 OA
ATOM     12  H   UNL     1       8.761   5.582  18.228  0.00  0.00    +0.000 HD
ENDBRANCH   1  11
BRANCH   4  13
ATOM     13  C   UNL     1       2.927   5.282  18.380  0.00  0.00    +0.000 C 
BRANCH  13  14
ATOM     14  C   UNL     1       2.381   6.651  18.707  0.00  0.00    +0.000 A 
ATOM     15  C   UNL     1       2.293   7.631  17.713  0.00  0.00    +0.000 A 
ATOM     16  C   UNL     1       1.823   8.908  18.019  0.00  0.00    +0.000 A 
ATOM     17  C   UNL     1       1.418   9.225  19.324  0.00  0.00    +0.000 A 
ATOM     18  C   UNL     1       0.921  10.497  19.642  0.00  0.00    +0.000 A 
ATOM     19  C   UNL     1       0.495  10.791  20.938  0.00  0.00    +0.000 A 
ATOM     20  C   UNL     1       0.583   9.825  21.936  0.00  0.00    +0.000 A 
ATOM     21  C   UNL     1       1.097   8.562  21.641  0.00  0.00    +0.000 A 
ATOM     22  C   UNL     1       1.507   8.243  20.338  0.00  0.00    +0.000 A 
ATOM     23  C   UNL     1       2.001   6.970  20.020  0.00  0.00    +0.000 A 
ENDBRANCH  13  14
ENDBRANCH   4  13
TORSDOF 3
ENDMDL
MODEL 4
REMARK VINA RESULT:      -8.3      1.289      1.663
REMARK  Name = 
REMARK  3 active torsions:
REMARK  status: ('A' for Active; 'I' for Inactive)
REMARK    1  A    between atoms: O_1  and  C_2
REMARK    2  A    between atoms: C_5  and  C_6
REMARK    3  A    between atoms: C_6  and  C_7
REMARK                            x       y       z     vdW  Elec       q    Type
REMARK                         _______ _______ _______ _____ _____    ______ ____
ROOT
ATOM      1  C   UNL     1       5.490   4.796  18.039  0.00  0.00    +0.000 A 
ATOM      2  N   UNL     1       5.825   6.095  17.975  0.00  0.00    +0.000 NA
ATOM      3  N   UNL     1       4.838   7.017  17.873  0.00  0.00    +0.000 NA
ATOM      4  C   UNL     1       3.535   6.631  17.823  0.00  0.00    +0.000 A 
ATOM      5  C   UNL     1       3.155   5.274  17.892  0.00  0.00    +0.000 A 
ATOM      6  C   UNL     1       1.818   4.811  17.836  0.00  0.00    +0.000 A 
ATOM      7  C   UNL     1       1.516   3.450  17.895  0.00  0.00    +0.000 A 
ATOM      8  C   UNL     1       2.540   2.517  18.025  0.00  0.00    +0.000 A 
ATOM      9  C   UNL     1       3.862   2.949  18.084  0.00  0.00    +0.000 A 
ATOM     10  C   UNL     1       4.183   4.320  18.012  0.00  0.00    +0.000 A 
ENDROOT
BRANCH   1  11
ATOM     11  O   UNL     1       6.560   3.955  18.102  0.00  0.00    +0.000 OA
ATOM     12  H   UNL     1       6.144   3.165  18.493  0.00  0.00    +0.000 HD
ENDBRANCH   1  11
BRANCH   4  13
ATOM     13  C   UNL     1       2.494   7.721  17.667  0.00  0.00    +0.000 C 
BRANCH  13  14
ATOM     14  C   UNL     1       1.879   8.230  18.948  0.00  0.00    +0.000 A 
ATOM     15  C   UNL     1       1.996   7.489  20.130  0.00  0.00    +0.000 A 
ATOM     16  C   UNL     1       1.397   7.937  21.306  0.00  0.00    +0.000 A 
ATOM     17  C   UNL     1       0.681   9.143  21.329  0.00  0.00    +0.000 A 
ATOM     18  C   UNL     1       0.095   9.618  22.510  0.00  0.00    +0.000 A 
ATOM     19  C   UNL     1      -0.592  10.833  22.525  0.00  0.00    +0.000 A 
ATOM     20  C   UNL     1      -0.719  11.576  21.355  0.00  0.00    +0.000 A 
ATOM     21  C   UNL     1      -0.161  11.105  20.166  0.00  0.00    +0.000 A 
ATOM     22  C   UNL     1       0.552   9.897  20.140  0.00  0.00    +0.000 A 
ATOM     23  C   UNL     1       1.142   9.424  18.958  0.00  0.00    +0.000 A 
ENDBRANCH  13  14
ENDBRANCH   4  13
TORSDOF 3
ENDMDL
MODEL 5
REMARK VINA RESULT:      -8.2      2.342      3.109
REMARK  Name = 
REMARK  3 active torsions:
REMARK  status: ('A' for Active; 'I' for Inactive)
REMARK    1  A    between atoms: O_1  and  C_2
REMARK    2  A    between atoms: C_5  and  C_6
REMARK    3  A    between atoms: C_6  and  C_7
REMARK                            x       y       z     vdW  Elec       q    Type
REMARK                         _______ _______ _______ _____ _____    ______ ____
ROOT
ATOM      1  C   UNL     1       7.145   4.915  18.613  0.00  0.00    +0.000 A 
ATOM      2  N   UNL     1       6.443   5.111  19.741  0.00  0.00    +0.000 NA
ATOM      3  N   UNL     1       5.092   5.165  19.665  0.00  0.00    +0.000 NA
ATOM      4  C   UNL     1       4.462   5.037  18.467  0.00  0.00    +0.000 A 
ATOM      5  C   UNL     1       5.174   4.828  17.267  0.00  0.00    +0.000 A 
ATOM      6  C   UNL     1       4.576   4.696  15.991  0.00  0.00    +0.000 A 
ATOM      7  C   UNL     1       5.345   4.505  14.842  0.00  0.00    +0.000 A 
ATOM      8  C   UNL     1       6.730   4.427  14.940  0.00  0.00    +0.000 A 
ATOM      9  C   UNL     1       7.341   4.550  16.185  0.00  0.00    +0.000 A 
ATOM     10  C   UNL     1       6.577   4.758  17.353  0.00  0.00    +0.000 A 
ENDROOT
BRANCH   1  11
ATOM     11  O   UNL     1       8.495   4.915  18.799  0.00  0.00    +0.000 OA
ATOM     12  H   UNL     1       8.628   4.014  19.147  0.00  0.00    +0.000 HD
ENDBRANCH   1  11
BRANCH   4  13
ATOM     13  C   UNL     1       2.951   5.151  18.462  0.00  0.00    +0.000 C 
BRANCH  13  14
ATOM     14  C   UNL     1       2.387   6.423  19.049  0.00  0.00    +0.000 A 
ATOM     15  C   UNL     1       1.895   6.437  20.359  0.00  0.00    +0.000 A 
ATOM     16  C   UNL     1       1.339   7.600  20.892  0.00  0.00    +0.000 A 
ATOM     17  C   UNL     1       1.278   8.776  20.129  0.00  0.00    +0.000 A 
ATOM     18  C   UNL     1       0.744   9.959  20.660  0.00  0.00    +0.000 A 
ATOM     19  C   UNL     1       0.713  11.129  19.900  0.00  0.00    +0.000 A 
ATOM     20  C   UNL     1       1.195  11.125  18.594  0.00  0.00    +0.000 A 
ATOM     21  C   UNL     1       1.707   9.949  18.044  0.00  0.00    +0.000 A 
ATOM     22  C   UNL     1       1.766   8.770  18.803  0.00  0.00    +0.000 A 
ATOM     23  C   UNL     1       2.304   7.589  18.273  0.00  0.00    +0.000 A 
ENDBRANCH  13  14
ENDBRANCH   4  13
TORSDOF 3
ENDMDL
MODEL 6
REMARK VINA RESULT:      -7.9      3.360      7.195
REMARK  Name = 
REMARK  3 active torsions:
REMARK  status: ('A' for Active; 'I' for Inactive)
REMARK    1  A    between atoms: O_1  and  C_2
REMARK    2  A    between atoms: C_5  and  C_6
REMARK    3  A    between atoms: C_6  and  C_7
REMARK                            x       y       z     vdW  Elec       q    Type
REMARK                         _______ _______ _______ _____ _____    ______ ____
ROOT
ATOM      1  C   UNL     1       1.153  10.432  18.546  0.00  0.00    +0.000 A 
ATOM      2  N   UNL     1       1.799   9.644  17.671  0.00  0.00    +0.000 NA
ATOM      3  N   UNL     1       2.182   8.408  18.070  0.00  0.00    +0.000 NA
ATOM      4  C   UNL     1       1.928   7.980  19.336  0.00  0.00    +0.000 A 
ATOM      5  C   UNL     1       1.248   8.786  20.273  0.00  0.00    +0.000 A 
ATOM      6  C   UNL     1       0.962   8.401  21.605  0.00  0.00    +0.000 A 
ATOM      7  C   UNL     1       0.298   9.256  22.485  0.00  0.00    +0.000 A 
ATOM      8  C   UNL     1      -0.110  10.513  22.052  0.00  0.00    +0.000 A 
ATOM      9  C   UNL     1       0.156  10.914  20.746  0.00  0.00    +0.000 A 
ATOM     10  C   UNL     1       0.840  10.065  19.851  0.00  0.00    +0.000 A 
ENDROOT
BRANCH   1  11
ATOM     11  O   UNL     1       0.848  11.665  18.053  0.00  0.00    +0.000 OA
ATOM     12  H   UNL     1       1.054  12.223  18.826  0.00  0.00    +0.000 HD
ENDBRANCH   1  11
BRANCH   4  13
ATOM     13  C   UNL     1       2.426   6.600  19.714  0.00  0.00    +0.000 C 
BRANCH  13  14
ATOM     14  C   UNL     1       3.174   5.854  18.636  0.00  0.00    +0.000 A 
ATOM     15  C   UNL     1       2.611   4.719  18.043  0.00  0.00    +0.000 A 
ATOM     16  C   UNL     1       3.315   4.006  17.074  0.00  0.00    +0.000 A 
ATOM     17  C   UNL     1       4.591   4.422  16.668  0.00  0.00    +0.000 A 
ATOM     18  C   UNL     1       5.301   3.729  15.676  0.00  0.00    +0.000 A 
ATOM     19  C   UNL     1       6.558   4.170  15.262  0.00  0.00    +0.000 A 
ATOM     20  C   UNL     1       7.131   5.294  15.849  0.00  0.00    +0.000 A 
ATOM     21  C   UNL     1       6.447   5.981  16.853  0.00  0.00    +0.000 A 
ATOM     22  C   UNL     1       5.172   5.564  17.264  0.00  0.00    +0.000 A 
ATOM     23  C   UNL     1       4.462   6.260  18.253  0.00  0.00    +0.000 A 
ENDBRANCH  13  14
ENDBRANCH   4  13
TORSDOF 3
ENDMDL
MODEL 7
REMARK VINA RESULT:      -7.9      1.828      3.436
REMARK  Name = 
REMARK  3 active torsions:
REMARK  status: ('A' for Active; 'I' for Inactive)
REMARK    1  A    between atoms: O_1  and  C_2
REMARK    2  A    between atoms: C_5  and  C_6
REMARK    3  A    between atoms: C_6  and  C_7
REMARK                            x       y       z     vdW  Elec       q    Type
REMARK                         _______ _______ _______ _____ _____    ______ ____
ROOT
ATOM      1  C   UNL     1       4.214   4.126  19.015  0.00  0.00    +0.000 A 
ATOM      2  N   UNL     1       2.896   4.379  19.022  0.00  0.00    +0.000 NA
ATOM      3  N   UNL     1       2.455   5.545  18.490  0.00  0.00    +0.000 NA
ATOM      4  C   UNL     1       3.334   6.444  17.973  0.00  0.00    +0.000 A 
ATOM      5  C   UNL     1       4.723   6.202  17.950  0.00  0.00    +0.000 A 
ATOM      6  C   UNL     1       5.686   7.102  17.433  0.00  0.00    +0.000 A 
ATOM      7  C   UNL     1       7.049   6.803  17.457  0.00  0.00    +0.000 A 
ATOM      8  C   UNL     1       7.484   5.591  17.983  0.00  0.00    +0.000 A 
ATOM      9  C   UNL     1       6.555   4.688  18.494  0.00  0.00    +0.000 A 
ATOM     10  C   UNL     1       5.176   4.984  18.490  0.00  0.00    +0.000 A 
ENDROOT
BRANCH   1  11
ATOM     11  O   UNL     1       4.551   2.945  19.606  0.00  0.00    +0.000 OA
ATOM     12  H   UNL     1       3.772   2.802  20.176  0.00  0.00    +0.000 HD
ENDBRANCH   1  11
BRANCH   4  13
ATOM     13  C   UNL     1       2.763   7.741  17.435  0.00  0.00    +0.000 C 
BRANCH  13  14
ATOM     14  C   UNL     1       1.874   8.509  18.384  0.00  0.00    +0.000 A 
ATOM     15  C   UNL     1       1.032   9.517  17.901  0.00  0.00    +0.000 A 
ATOM     16  C   UNL     1       0.237  10.254  18.778  0.00  0.00    +0.000 A 
ATOM     17  C   UNL     1       0.258   9.988  20.155  0.00  0.00    +0.000 A 
ATOM     18  C   UNL     1      -0.553  10.704  21.046  0.00  0.00    +0.000 A 
ATOM     19  C   UNL     1      -0.543  10.411  22.411  0.00  0.00    +0.000 A 
ATOM     20  C   UNL     1       0.295   9.415  22.903  0.00  0.00    +0.000 A 
ATOM     21  C   UNL     1       1.126   8.709  22.032  0.00  0.00    +0.000 A 
ATOM     22  C   UNL     1       1.110   8.976  20.654  0.00  0.00    +0.000 A 
ATOM     23  C   UNL     1       1.919   8.256  19.763  0.00  0.00    +0.000 A 
ENDBRANCH  13  14
ENDBRANCH   4  13
TORSDOF 3
ENDMDL
MODEL 8
REMARK VINA RESULT:      -7.9      2.817      7.087
REMARK  Name = 
REMARK  3 active torsions:
REMARK  status: ('A' for Active; 'I' for Inactive)
REMARK    1  A    between atoms: O_1  and  C_2
REMARK    2  A    between atoms: C_5  and  C_6
REMARK    3  A    between atoms: C_6  and  C_7
REMARK                            x       y       z     vdW  Elec       q    Type
REMARK                         _______ _______ _______ _____ _____    ______ ____
ROOT
ATOM      1  C   UNL     1       0.554   9.564  22.000  0.00  0.00    +0.000 A 
ATOM      2  N   UNL     1       1.454   8.589  21.793  0.00  0.00    +0.000 NA
ATOM      3  N   UNL     1       1.843   8.321  20.524  0.00  0.00    +0.000 NA
ATOM      4  C   UNL     1       1.320   9.018  19.480  0.00  0.00    +0.000 A 
ATOM      5  C   UNL     1       0.376  10.049  19.669  0.00  0.00    +0.000 A 
ATOM      6  C   UNL     1      -0.209  10.803  18.623  0.00  0.00    +0.000 A 
ATOM      7  C   UNL     1      -1.150  11.800  18.882  0.00  0.00    +0.000 A 
ATOM      8  C   UNL     1      -1.520  12.080  20.193  0.00  0.00    +0.000 A 
ATOM      9  C   UNL     1      -0.956  11.354  21.239  0.00  0.00    +0.000 A 
ATOM     10  C   UNL     1      -0.015  10.334  20.990  0.00  0.00    +0.000 A 
ENDROOT
BRANCH   1  11
ATOM     11  O   UNL     1       0.207   9.724  23.308  0.00  0.00    +0.000 OA
ATOM     12  H   UNL     1       0.799   9.075  23.731  0.00  0.00    +0.000 HD
ENDBRANCH   1  11
BRANCH   4  13
ATOM     13  C   UNL     1       1.777   8.628  18.089  0.00  0.00    +0.000 C 
BRANCH  13  14
ATOM     14  C   UNL     1       2.432   7.273  17.968  0.00  0.00    +0.000 A 
ATOM     15  C   UNL     1       3.795   7.173  17.669  0.00  0.00    +0.000 A 
ATOM     16  C   UNL     1       4.395   5.923  17.520  0.00  0.00    +0.000 A 
ATOM     17  C   UNL     1       3.647   4.748  17.683  0.00  0.00    +0.000 A 
ATOM     18  C   UNL     1       4.242   3.484  17.561  0.00  0.00    +0.000 A 
ATOM     19  C   UNL     1       3.492   2.323  17.752  0.00  0.00    +0.000 A 
ATOM     20  C   UNL     1       2.134   2.411  18.045  0.00  0.00    +0.000 A 
ATOM     21  C   UNL     1       1.522   3.661  18.147  0.00  0.00    +0.000 A 
ATOM     22  C   UNL     1       2.268   4.838  17.980  0.00  0.00    +0.000 A 
ATOM     23  C   UNL     1       1.672   6.101  18.106  0.00  0.00    +0.000 A 
ENDBRANCH  13  14
ENDBRANCH   4  13
TORSDOF 3
ENDMDL
MODEL 9
REMARK VINA RESULT:      -7.9      1.757      2.979
REMARK  Name = 
REMARK  3 active torsions:
REMARK  status: ('A' for Active; 'I' for Inactive)
REMARK    1  A    between atoms: O_1  and  C_2
REMARK    2  A    between atoms: C_5  and  C_6
REMARK    3  A    between atoms: C_6  and  C_7
REMARK                            x       y       z     vdW  Elec       q    Type
REMARK                         _______ _______ _______ _____ _____    ______ ____
ROOT
ATOM      1  C   UNL     1       4.511   3.853  18.924  0.00  0.00    +0.000 A 
ATOM      2  N   UNL     1       3.181   3.970  19.068  0.00  0.00    +0.000 NA
ATOM      3  N   UNL     1       2.582   5.116  18.667  0.00  0.00    +0.000 NA
ATOM      4  C   UNL     1       3.317   6.133  18.143  0.00  0.00    +0.000 A 
ATOM      5  C   UNL     1       4.715   6.036  17.978  0.00  0.00    +0.000 A 
ATOM      6  C   UNL     1       5.533   7.062  17.448  0.00  0.00    +0.000 A 
ATOM      7  C   UNL     1       6.914   6.903  17.327  0.00  0.00    +0.000 A 
ATOM      8  C   UNL     1       7.511   5.710  17.720  0.00  0.00    +0.000 A 
ATOM      9  C   UNL     1       6.727   4.685  18.242  0.00  0.00    +0.000 A 
ATOM     10  C   UNL     1       5.332   4.838  18.383  0.00  0.00    +0.000 A 
ENDROOT
BRANCH   1  11
ATOM     11  O   UNL     1       5.014   2.676  19.393  0.00  0.00    +0.000 OA
ATOM     12  H   UNL     1       4.318   2.057  19.105  0.00  0.00    +0.000 HD
ENDBRANCH   1  11
BRANCH   4  13
ATOM     13  C   UNL     1       2.576   7.398  17.759  0.00  0.00    +0.000 C 
BRANCH  13  14
ATOM     14  C   UNL     1       1.911   8.140  18.893  0.00  0.00    +0.000 A 
ATOM     15  C   UNL     1       1.956   7.627  20.194  0.00  0.00    +0.000 A 
ATOM     16  C   UNL     1       1.312   8.291  21.237  0.00  0.00    +0.000 A 
ATOM     17  C   UNL     1       0.622   9.489  21.003  0.00  0.00    +0.000 A 
ATOM     18  C   UNL     1      -0.009  10.181  22.047  0.00  0.00    +0.000 A 
ATOM     19  C   UNL     1      -0.669  11.387  21.805  0.00  0.00    +0.000 A 
ATOM     20  C   UNL     1      -0.724  11.904  20.514  0.00  0.00    +0.000 A 
ATOM     21  C   UNL     1      -0.121  11.215  19.460  0.00  0.00    +0.000 A 
ATOM     22  C   UNL     1       0.566  10.014  19.691  0.00  0.00    +0.000 A 
ATOM     23  C   UNL     1       1.201   9.325  18.648  0.00  0.00    +0.000 A 
ENDBRANCH  13  14
ENDBRANCH   4  13
TORSDOF 3
ENDMDL
