MODEL 1
REMARK VINA RESULT:      -8.2      0.000      0.000
REMARK  Name = 
REMARK  4 active torsions:
REMARK  status: ('A' for Active; 'I' for Inactive)
REMARK    1  A    between atoms: C_1  and  C_2
REMARK    2  A    between atoms: C_2  and  C_3
REMARK    3  A    between atoms: C_11  and  O_12
REMARK    4  A    between atoms: C_13  and  C_14
REMARK                            x       y       z     vdW  Elec       q    Type
REMARK                         _______ _______ _______ _____ _____    ______ ____
ROOT
ATOM      1  C   UNL     1       3.172   3.597  20.390  0.00  0.00    +0.000 C 
ATOM      2  C   UNL     1       2.732   4.062  18.984  0.00  0.00    +0.000 C 
ATOM      3  C   UNL     1       1.277   3.639  18.677  0.00  0.00    +0.000 C 
ATOM      4  S   UNL     1       3.711   2.952  17.892  0.00  0.00    +0.000 S 
ATOM      5  C   UNL     1       4.555   4.023  16.775  0.00  0.00    +0.000 A 
ATOM      6  C   UNL     1       5.336   3.347  15.815  0.00  0.00    +0.000 A 
ATOM      7  C   UNL     1       6.099   4.036  14.884  0.00  0.00    +0.000 A 
ATOM      8  C   UNL     1       6.095   5.415  14.906  0.00  0.00    +0.000 A 
ATOM      9  C   UNL     1       5.324   6.098  15.862  0.00  0.00    +0.000 A 
ATOM     10  C   UNL     1       4.520   5.423  16.814  0.00  0.00    +0.000 A 
ATOM     11  C   UNL     1       3.709   6.156  17.833  0.00  0.00    +0.000 C 
ATOM     12  C   UNL     1       2.947   5.567  18.788  0.00  0.00    +0.000 C 
ENDROOT
BRANCH  12  13
ATOM     13  C   UNL     1       2.170   6.409  19.821  0.00  0.00    +0.000 C 
ATOM     14  O   UNL     1       1.590   5.865  20.758  0.00  0.00    +0.000 OA
ATOM     15  N   UNL     1       2.107   7.762  19.614  0.00  0.00    +0.000 N 
ATOM     16  C   UNL     1       1.313   8.632  20.359  0.00  0.00    +0.000 A 
ATOM     17  C   UNL     1       1.239   8.556  21.745  0.00  0.00    +0.000 A 
ATOM     18  C   UNL     1       0.378   9.421  22.416  0.00  0.00    +0.000 A 
ATOM     19  C   UNL     1      -0.402  10.303  21.681  0.00  0.00    +0.000 A 
ATOM     20  C   UNL     1      -0.239  10.327  20.306  0.00  0.00    +0.000 A 
ATOM     21  N   UNL     1       0.634   9.544  19.635  0.00  0.00    +0.000 NA
ATOM     22  H   UNL     1       2.310   8.082  18.676  0.00  0.00    +0.000 HD
ENDBRANCH  12  13
BRANCH  11  23
ATOM     23  O   UNL     1       3.762   7.545  17.770  0.00  0.00    +0.000 OA
ATOM     24  H   UNL     1       3.466   7.879  16.913  0.00  0.00    +0.000 HD
ENDBRANCH  11  23
TORSDOF 2
ENDMDL
MODEL 2
REMARK VINA RESULT:      -7.7      3.897      7.564
REMARK  Name = 
REMARK  4 active torsions:
REMARK  status: ('A' for Active; 'I' for Inactive)
REMARK    1  A    between atoms: C_1  and  C_2
REMARK    2  A    between atoms: C_2  and  C_3
REMARK    3  A    between atoms: C_11  and  O_12
REMARK    4  A    between atoms: C_13  and  C_14
REMARK                            x       y       z     vdW  Elec       q    Type
REMARK                         _______ _______ _______ _____ _____    ______ ____
ROOT
ATOM      1  C   UNL     1       5.983   5.934  18.697  0.00  0.00    +0.000 C 
ATOM      2  C   UNL     1       4.503   6.004  18.258  0.00  0.00    +0.000 C 
ATOM      3  C   UNL     1       4.093   7.445  17.877  0.00  0.00    +0.000 C 
ATOM      4  S   UNL     1       3.620   5.745  19.851  0.00  0.00    +0.000 S 
ATOM      5  C   UNL     1       2.499   4.418  19.551  0.00  0.00    +0.000 A 
ATOM      6  C   UNL     1       1.687   4.096  20.659  0.00  0.00    +0.000 A 
ATOM      7  C   UNL     1       0.777   3.050  20.611  0.00  0.00    +0.000 A 
ATOM      8  C   UNL     1       0.671   2.308  19.453  0.00  0.00    +0.000 A 
ATOM      9  C   UNL     1       1.479   2.619  18.347  0.00  0.00    +0.000 A 
ATOM     10  C   UNL     1       2.405   3.692  18.358  0.00  0.00    +0.000 A 
ATOM     11  C   UNL     1       3.266   4.011  17.179  0.00  0.00    +0.000 C 
ATOM     12  C   UNL     1       4.191   5.002  17.141  0.00  0.00    +0.000 C 
ENDROOT
BRANCH  12  13
ATOM     13  C   UNL     1       5.061   5.235  15.887  0.00  0.00    +0.000 C 
ATOM     14  O   UNL     1       5.204   6.367  15.430  0.00  0.00    +0.000 OA
ATOM     15  N   UNL     1       5.605   4.132  15.283  0.00  0.00    +0.000 N 
ATOM     16  C   UNL     1       6.272   4.159  14.059  0.00  0.00    +0.000 A 
ATOM     17  C   UNL     1       7.210   5.138  13.753  0.00  0.00    +0.000 A 
ATOM     18  C   UNL     1       7.791   5.135  12.489  0.00  0.00    +0.000 A 
ATOM     19  C   UNL     1       7.392   4.179  11.564  0.00  0.00    +0.000 A 
ATOM     20  C   UNL     1       6.473   3.226  11.968  0.00  0.00    +0.000 A 
ATOM     21  N   UNL     1       5.940   3.167  13.209  0.00  0.00    +0.000 NA
ATOM     22  H   UNL     1       5.180   3.242  15.507  0.00  0.00    +0.000 HD
ENDBRANCH  12  13
BRANCH  11  23
ATOM     23  O   UNL     1       3.081   3.213  16.054  0.00  0.00    +0.000 OA
ATOM     24  H   UNL     1       2.301   2.649  16.136  0.00  0.00    +0.000 HD
ENDBRANCH  11  23
TORSDOF 2
ENDMDL
MODEL 3
REMARK VINA RESULT:      -7.5      2.869      7.332
REMARK  Name = 
REMARK  4 active torsions:
REMARK  status: ('A' for Active; 'I' for Inactive)
REMARK    1  A    between atoms: C_1  and  C_2
REMARK    2  A    between atoms: C_2  and  C_3
REMARK    3  A    between atoms: C_11  and  O_12
REMARK    4  A    between atoms: C_13  and  C_14
REMARK                            x       y       z     vdW  Elec       q    Type
REMARK                         _______ _______ _______ _____ _____    ______ ____
ROOT
ATOM      1  C   UNL     1       3.870   3.424  17.484  0.00  0.00    +0.000 C 
ATOM      2  C   UNL     1       4.336   4.678  18.256  0.00  0.00    +0.000 C 
ATOM      3  C   UNL     1       5.727   4.466  18.897  0.00  0.00    +0.000 C 
ATOM      4  S   UNL     1       3.217   4.665  19.716  0.00  0.00    +0.000 S 
ATOM      5  C   UNL     1       2.482   6.268  19.754  0.00  0.00    +0.000 A 
ATOM      6  C   UNL     1       1.612   6.471  20.846  0.00  0.00    +0.000 A 
ATOM      7  C   UNL     1       0.917   7.660  21.008  0.00  0.00    +0.000 A 
ATOM      8  C   UNL     1       1.081   8.663  20.074  0.00  0.00    +0.000 A 
ATOM      9  C   UNL     1       1.942   8.468  18.981  0.00  0.00    +0.000 A 
ATOM     10  C   UNL     1       2.679   7.271  18.797  0.00  0.00    +0.000 A 
ATOM     11  C   UNL     1       3.586   7.068  17.627  0.00  0.00    +0.000 C 
ATOM     12  C   UNL     1       4.292   5.936  17.381  0.00  0.00    +0.000 C 
ENDROOT
BRANCH  12  13
ATOM     13  C   UNL     1       5.179   5.806  16.125  0.00  0.00    +0.000 C 
ATOM     14  O   UNL     1       5.761   6.787  15.668  0.00  0.00    +0.000 OA
ATOM     15  N   UNL     1       5.237   4.578  15.517  0.00  0.00    +0.000 N 
ATOM     16  C   UNL     1       5.856   4.341  14.292  0.00  0.00    +0.000 A 
ATOM     17  C   UNL     1       7.107   4.865  13.985  0.00  0.00    +0.000 A 
ATOM     18  C   UNL     1       7.636   4.633  12.718  0.00  0.00    +0.000 A 
ATOM     19  C   UNL     1       6.886   3.918  11.794  0.00  0.00    +0.000 A 
ATOM     20  C   UNL     1       5.664   3.410  12.199  0.00  0.00    +0.000 A 
ATOM     21  N   UNL     1       5.155   3.565  13.441  0.00  0.00    +0.000 NA
ATOM     22  H   UNL     1       4.493   3.931  15.742  0.00  0.00    +0.000 HD
ENDBRANCH  12  13
BRANCH  11  23
ATOM     23  O   UNL     1       3.693   8.139  16.745  0.00  0.00    +0.000 OA
ATOM     24  H   UNL     1       4.050   7.867  15.890  0.00  0.00    +0.000 HD
ENDBRANCH  11  23
TORSDOF 2
ENDMDL
MODEL 4
REMARK VINA RESULT:      -7.5      1.157      1.314
REMARK  Name = 
REMARK  4 active torsions:
REMARK  status: ('A' for Active; 'I' for Inactive)
REMARK    1  A    between atoms: C_1  and  C_2
REMARK    2  A    between atoms: C_2  and  C_3
REMARK    3  A    between atoms: C_11  and  O_12
REMARK    4  A    between atoms: C_13  and  C_14
REMARK                            x       y       z     vdW  Elec       q    Type
REMARK                         _______ _______ _______ _____ _____    ______ ____
ROOT
ATOM      1  C   UNL     1       2.717   4.464  21.479  0.00  0.00    +0.000 C 
ATOM      2  C   UNL     1       2.240   4.657  20.023  0.00  0.00    +0.000 C 
ATOM      3  C   UNL     1       0.862   3.996  19.785  0.00  0.00    +0.000 C 
ATOM      4  S   UNL     1       3.380   3.549  19.098  0.00  0.00    +0.000 S 
ATOM      5  C   UNL     1       4.086   4.557  17.835  0.00  0.00    +0.000 A 
ATOM      6  C   UNL     1       4.969   3.866  16.979  0.00  0.00    +0.000 A 
ATOM      7  C   UNL     1       5.643   4.514  15.956  0.00  0.00    +0.000 A 
ATOM      8  C   UNL     1       5.448   5.868  15.779  0.00  0.00    +0.000 A 
ATOM      9  C   UNL     1       4.575   6.567  16.629  0.00  0.00    +0.000 A 
ATOM     10  C   UNL     1       3.857   5.929  17.672  0.00  0.00    +0.000 A 
ATOM     11  C   UNL     1       2.936   6.681  18.578  0.00  0.00    +0.000 C 
ATOM     12  C   UNL     1       2.247   6.133  19.611  0.00  0.00    +0.000 C 
ENDROOT
BRANCH  12  13
ATOM     13  C   UNL     1       1.344   6.998  20.516  0.00  0.00    +0.000 C 
ATOM     14  O   UNL     1       0.271   6.560  20.925  0.00  0.00    +0.000 OA
ATOM     15  N   UNL     1       1.759   8.276  20.785  0.00  0.00    +0.000 N 
ATOM     16  C   UNL     1       0.983   9.228  21.444  0.00  0.00    +0.000 A 
ATOM     17  C   UNL     1       0.256   8.921  22.589  0.00  0.00    +0.000 A 
ATOM     18  C   UNL     1      -0.542   9.909  23.158  0.00  0.00    +0.000 A 
ATOM     19  C   UNL     1      -0.616  11.153  22.547  0.00  0.00    +0.000 A 
ATOM     20  C   UNL     1       0.166  11.376  21.426  0.00  0.00    +0.000 A 
ATOM     21  N   UNL     1       0.998  10.457  20.890  0.00  0.00    +0.000 NA
ATOM     22  H   UNL     1       2.453   8.664  20.160  0.00  0.00    +0.000 HD
ENDBRANCH  12  13
BRANCH  11  23
ATOM     23  O   UNL     1       2.797   8.040  18.315  0.00  0.00    +0.000 OA
ATOM     24  H   UNL     1       1.905   8.260  18.016  0.00  0.00    +0.000 HD
ENDBRANCH  11  23
TORSDOF 2
ENDMDL
MODEL 5
REMARK VINA RESULT:      -7.4      1.071      1.189
REMARK  Name = 
REMARK  4 active torsions:
REMARK  status: ('A' for Active; 'I' for Inactive)
REMARK    1  A    between atoms: C_1  and  C_2
REMARK    2  A    between atoms: C_2  and  C_3
REMARK    3  A    between atoms: C_11  and  O_12
REMARK    4  A    between atoms: C_13  and  C_14
REMARK                            x       y       z     vdW  Elec       q    Type
REMARK                         _______ _______ _______ _____ _____    ______ ____
ROOT
ATOM      1  C   UNL     1       2.648   4.247  19.821  0.00  0.00    +0.000 C 
ATOM      2  C   UNL     1       2.601   4.720  18.352  0.00  0.00    +0.000 C 
ATOM      3  C   UNL     1       1.187   4.555  17.748  0.00  0.00    +0.000 C 
ATOM      4  S   UNL     1       3.557   3.402  17.496  0.00  0.00    +0.000 S 
ATOM      5  C   UNL     1       4.798   4.251  16.574  0.00  0.00    +0.000 A 
ATOM      6  C   UNL     1       5.619   3.400  15.804  0.00  0.00    +0.000 A 
ATOM      7  C   UNL     1       6.671   3.897  15.050  0.00  0.00    +0.000 A 
ATOM      8  C   UNL     1       6.920   5.254  15.061  0.00  0.00    +0.000 A 
ATOM      9  C   UNL     1       6.112   6.108  15.829  0.00  0.00    +0.000 A 
ATOM     10  C   UNL     1       5.018   5.633  16.596  0.00  0.00    +0.000 A 
ATOM     11  C   UNL     1       4.167   6.548  17.417  0.00  0.00    +0.000 C 
ATOM     12  C   UNL     1       3.129   6.150  18.195  0.00  0.00    +0.000 C 
ENDROOT
BRANCH  12  13
ATOM     13  C   UNL     1       2.328   7.165  19.037  0.00  0.00    +0.000 C 
ATOM     14  O   UNL     1       2.006   6.900  20.193  0.00  0.00    +0.000 OA
ATOM     15  N   UNL     1       1.946   8.331  18.425  0.00  0.00    +0.000 N 
ATOM     16  C   UNL     1       1.085   9.267  18.993  0.00  0.00    +0.000 A 
ATOM     17  C   UNL     1       1.209   9.673  20.317  0.00  0.00    +0.000 A 
ATOM     18  C   UNL     1       0.276  10.568  20.832  0.00  0.00    +0.000 A 
ATOM     19  C   UNL     1      -0.766  10.999  20.021  0.00  0.00    +0.000 A 
ATOM     20  C   UNL     1      -0.792  10.564  18.708  0.00  0.00    +0.000 A 
ATOM     21  N   UNL     1       0.136   9.746  18.164  0.00  0.00    +0.000 NA
ATOM     22  H   UNL     1       1.951   8.329  17.413  0.00  0.00    +0.000 HD
ENDBRANCH  12  13
BRANCH  11  23
ATOM     23  O   UNL     1       4.491   7.900  17.358  0.00  0.00    +0.000 OA
ATOM     24  H   UNL     1       3.724   8.445  17.141  0.00  0.00    +0.000 HD
ENDBRANCH  11  23
TORSDOF 2
ENDMDL
MODEL 6
REMARK VINA RESULT:      -7.3      8.310      9.518
REMARK  Name = 
REMARK  4 active torsions:
REMARK  status: ('A' for Active; 'I' for Inactive)
REMARK    1  A    between atoms: C_1  and  C_2
REMARK    2  A    between atoms: C_2  and  C_3
REMARK    3  A    between atoms: C_11  and  O_12
REMARK    4  A    between atoms: C_13  and  C_14
REMARK                            x       y       z     vdW  Elec       q    Type
REMARK                         _______ _______ _______ _____ _____    ______ ____
ROOT
ATOM      1  C   UNL     1       6.759  14.543  22.363  0.00  0.00    +0.000 C 
ATOM      2  C   UNL     1       8.226  14.088  22.193  0.00  0.00    +0.000 C 
ATOM      3  C   UNL     1       9.184  14.926  23.071  0.00  0.00    +0.000 C 
ATOM      4  S   UNL     1       8.615  14.682  20.497  0.00  0.00    +0.000 S 
ATOM      5  C   UNL     1       9.236  13.272  19.641  0.00  0.00    +0.000 A 
ATOM      6  C   UNL     1       9.638  13.540  18.315  0.00  0.00    +0.000 A 
ATOM      7  C   UNL     1      10.113  12.536  17.484  0.00  0.00    +0.000 A 
ATOM      8  C   UNL     1      10.187  11.246  17.968  0.00  0.00    +0.000 A 
ATOM      9  C   UNL     1       9.784  10.969  19.285  0.00  0.00    +0.000 A 
ATOM     10  C   UNL     1       9.312  11.976  20.164  0.00  0.00    +0.000 A 
ATOM     11  C   UNL     1       8.878  11.671  21.562  0.00  0.00    +0.000 C 
ATOM     12  C   UNL     1       8.389  12.584  22.438  0.00  0.00    +0.000 C 
ENDROOT
BRANCH  12  13
ATOM     13  C   UNL     1       7.933  12.169  23.853  0.00  0.00    +0.000 C 
ATOM     14  O   UNL     1       8.760  11.878  24.714  0.00  0.00    +0.000 OA
ATOM     15  N   UNL     1       6.584  12.081  24.081  0.00  0.00    +0.000 N 
ATOM     16  C   UNL     1       6.020  11.564  25.246  0.00  0.00    +0.000 A 
ATOM     17  C   UNL     1       6.497  11.902  26.507  0.00  0.00    +0.000 A 
ATOM     18  C   UNL     1       5.920  11.301  27.622  0.00  0.00    +0.000 A 
ATOM     19  C   UNL     1       4.916  10.360  27.439  0.00  0.00    +0.000 A 
ATOM     20  C   UNL     1       4.486  10.109  26.148  0.00  0.00    +0.000 A 
ATOM     21  N   UNL     1       4.983  10.725  25.052  0.00  0.00    +0.000 NA
ATOM     22  H   UNL     1       5.995  12.005  23.263  0.00  0.00    +0.000 HD
ENDBRANCH  12  13
BRANCH  11  23
ATOM     23  O   UNL     1       8.998  10.344  21.962  0.00  0.00    +0.000 OA
ATOM     24  H   UNL     1       8.816   9.731  21.239  0.00  0.00    +0.000 HD
ENDBRANCH  11  23
TORSDOF 2
ENDMDL
MODEL 7
REMARK VINA RESULT:      -7.3      2.636      7.658
REMARK  Name = 
REMARK  4 active torsions:
REMARK  status: ('A' for Active; 'I' for Inactive)
REMARK    1  A    between atoms: C_1  and  C_2
REMARK    2  A    between atoms: C_2  and  C_3
REMARK    3  A    between atoms: C_11  and  O_12
REMARK    4  A    between atoms: C_13  and  C_14
REMARK                            x       y       z     vdW  Elec       q    Type
REMARK                         _______ _______ _______ _____ _____    ______ ____
ROOT
ATOM      1  C   UNL     1       2.170  10.654  17.795  0.00  0.00    +0.000 C 
ATOM      2  C   UNL     1       0.992   9.861  18.403  0.00  0.00    +0.000 C 
ATOM      3  C   UNL     1       0.079   9.271  17.303  0.00  0.00    +0.000 C 
ATOM      4  S   UNL     1      -0.048  11.203  19.109  0.00  0.00    +0.000 S 
ATOM      5  C   UNL     1      -0.315  10.748  20.791  0.00  0.00    +0.000 A 
ATOM      6  C   UNL     1      -1.141  11.646  21.501  0.00  0.00    +0.000 A 
ATOM      7  C   UNL     1      -1.423  11.463  22.846  0.00  0.00    +0.000 A 
ATOM      8  C   UNL     1      -0.876  10.380  23.503  0.00  0.00    +0.000 A 
ATOM      9  C   UNL     1      -0.047   9.485  22.807  0.00  0.00    +0.000 A 
ATOM     10  C   UNL     1       0.244   9.634  21.427  0.00  0.00    +0.000 A 
ATOM     11  C   UNL     1       1.133   8.680  20.695  0.00  0.00    +0.000 C 
ATOM     12  C   UNL     1       1.474   8.788  19.387  0.00  0.00    +0.000 C 
ENDROOT
BRANCH  12  13
ATOM     13  C   UNL     1       2.427   7.772  18.724  0.00  0.00    +0.000 C 
ATOM     14  O   UNL     1       3.302   8.152  17.949  0.00  0.00    +0.000 OA
ATOM     15  N   UNL     1       2.217   6.443  18.988  0.00  0.00    +0.000 N 
ATOM     16  C   UNL     1       2.882   5.403  18.343  0.00  0.00    +0.000 A 
ATOM     17  C   UNL     1       4.254   5.431  18.121  0.00  0.00    +0.000 A 
ATOM     18  C   UNL     1       4.839   4.382  17.418  0.00  0.00    +0.000 A 
ATOM     19  C   UNL     1       4.032   3.362  16.931  0.00  0.00    +0.000 A 
ATOM     20  C   UNL     1       2.680   3.404  17.225  0.00  0.00    +0.000 A 
ATOM     21  N   UNL     1       2.096   4.377  17.960  0.00  0.00    +0.000 NA
ATOM     22  H   UNL     1       1.304   6.197  19.347  0.00  0.00    +0.000 HD
ENDBRANCH  12  13
BRANCH  11  23
ATOM     23  O   UNL     1       1.630   7.616  21.440  0.00  0.00    +0.000 OA
ATOM     24  H   UNL     1       1.147   6.797  21.267  0.00  0.00    +0.000 HD
ENDBRANCH  11  23
TORSDOF 2
ENDMDL
MODEL 8
REMARK VINA RESULT:      -7.3      3.858      6.604
REMARK  Name = 
REMARK  4 active torsions:
REMARK  status: ('A' for Active; 'I' for Inactive)
REMARK    1  A    between atoms: C_1  and  C_2
REMARK    2  A    between atoms: C_2  and  C_3
REMARK    3  A    between atoms: C_11  and  O_12
REMARK    4  A    between atoms: C_13  and  C_14
REMARK                            x       y       z     vdW  Elec       q    Type
REMARK                         _______ _______ _______ _____ _____    ______ ____
ROOT
ATOM      1  C   UNL     1      -0.418  11.999  18.487  0.00  0.00    +0.000 C 
ATOM      2  C   UNL     1       0.825  11.503  19.260  0.00  0.00    +0.000 C 
ATOM      3  C   UNL     1       1.912  12.600  19.348  0.00  0.00    +0.000 C 
ATOM      4  S   UNL     1       1.559  10.306  18.072  0.00  0.00    +0.000 S 
ATOM      5  C   UNL     1       1.762   8.811  18.984  0.00  0.00    +0.000 A 
ATOM      6  C   UNL     1       2.362   7.769  18.246  0.00  0.00    +0.000 A 
ATOM      7  C   UNL     1       2.560   6.511  18.796  0.00  0.00    +0.000 A 
ATOM      8  C   UNL     1       2.154   6.277  20.093  0.00  0.00    +0.000 A 
ATOM      9  C   UNL     1       1.550   7.307  20.834  0.00  0.00    +0.000 A 
ATOM     10  C   UNL     1       1.351   8.608  20.307  0.00  0.00    +0.000 A 
ATOM     11  C   UNL     1       0.701   9.696  21.100  0.00  0.00    +0.000 C 
ATOM     12  C   UNL     1       0.455  10.948  20.640  0.00  0.00    +0.000 C 
ENDROOT
BRANCH  12  13
ATOM     13  C   UNL     1      -0.254  11.997  21.522  0.00  0.00    +0.000 C 
ATOM     14  O   UNL     1       0.388  12.900  22.054  0.00  0.00    +0.000 OA
ATOM     15  N   UNL     1      -1.600  11.842  21.729  0.00  0.00    +0.000 N 
ATOM     16  C   UNL     1      -2.346  12.603  22.626  0.00  0.00    +0.000 A 
ATOM     17  C   UNL     1      -2.206  13.984  22.715  0.00  0.00    +0.000 A 
ATOM     18  C   UNL     1      -2.943  14.670  23.676  0.00  0.00    +0.000 A 
ATOM     19  C   UNL     1      -3.765  13.953  24.536  0.00  0.00    +0.000 A 
ATOM     20  C   UNL     1      -3.863  12.585  24.354  0.00  0.00    +0.000 A 
ATOM     21  N   UNL     1      -3.208  11.901  23.389  0.00  0.00    +0.000 NA
ATOM     22  H   UNL     1      -1.979  10.922  21.547  0.00  0.00    +0.000 HD
ENDBRANCH  12  13
BRANCH  11  23
ATOM     23  O   UNL     1       0.334   9.367  22.400  0.00  0.00    +0.000 OA
ATOM     24  H   UNL     1      -0.597   9.115  22.460  0.00  0.00    +0.000 HD
ENDBRANCH  11  23
TORSDOF 2
ENDMDL
MODEL 9
REMARK VINA RESULT:      -7.3      3.531      8.222
REMARK  Name = 
REMARK  4 active torsions:
REMARK  status: ('A' for Active; 'I' for Inactive)
REMARK    1  A    between atoms: C_1  and  C_2
REMARK    2  A    between atoms: C_2  and  C_3
REMARK    3  A    between atoms: C_11  and  O_12
REMARK    4  A    between atoms: C_13  and  C_14
REMARK                            x       y       z     vdW  Elec       q    Type
REMARK                         _______ _______ _______ _____ _____    ______ ____
ROOT
ATOM      1  C   UNL     1       1.071  10.037  21.252  0.00  0.00    +0.000 C 
ATOM      2  C   UNL     1       0.634  11.036  20.157  0.00  0.00    +0.000 C 
ATOM      3  C   UNL     1       1.712  12.117  19.913  0.00  0.00    +0.000 C 
ATOM      4  S   UNL     1      -0.694  11.980  21.010  0.00  0.00    +0.000 S 
ATOM      5  C   UNL     1      -2.090  11.893  19.937  0.00  0.00    +0.000 A 
ATOM      6  C   UNL     1      -3.214  12.605  20.405  0.00  0.00    +0.000 A 
ATOM      7  C   UNL     1      -4.412  12.610  19.705  0.00  0.00    +0.000 A 
ATOM      8  C   UNL     1      -4.502  11.896  18.529  0.00  0.00    +0.000 A 
ATOM      9  C   UNL     1      -3.390  11.178  18.058  0.00  0.00    +0.000 A 
ATOM     10  C   UNL     1      -2.147  11.168  18.741  0.00  0.00    +0.000 A 
ATOM     11  C   UNL     1      -0.970  10.396  18.237  0.00  0.00    +0.000 C 
ATOM     12  C   UNL     1       0.232  10.322  18.861  0.00  0.00    +0.000 C 
ENDROOT
BRANCH  12  13
ATOM     13  C   UNL     1       1.381   9.470  18.282  0.00  0.00    +0.000 C 
ATOM     14  O   UNL     1       1.991   9.843  17.283  0.00  0.00    +0.000 OA
ATOM     15  N   UNL     1       1.642   8.268  18.888  0.00  0.00    +0.000 N 
ATOM     16  C   UNL     1       2.530   7.317  18.388  0.00  0.00    +0.000 A 
ATOM     17  C   UNL     1       3.784   7.664  17.901  0.00  0.00    +0.000 A 
ATOM     18  C   UNL     1       4.592   6.667  17.364  0.00  0.00    +0.000 A 
ATOM     19  C   UNL     1       4.108   5.367  17.299  0.00  0.00    +0.000 A 
ATOM     20  C   UNL     1       2.858   5.110  17.835  0.00  0.00    +0.000 A 
ATOM     21  N   UNL     1       2.079   6.047  18.420  0.00  0.00    +0.000 NA
ATOM     22  H   UNL     1       0.906   7.888  19.467  0.00  0.00    +0.000 HD
ENDBRANCH  12  13
BRANCH  11  23
ATOM     23  O   UNL     1      -1.155   9.714  17.039  0.00  0.00    +0.000 OA
ATOM     24  H   UNL     1      -0.754  10.179  16.294  0.00  0.00    +0.000 HD
ENDBRANCH  11  23
TORSDOF 2
ENDMDL
