MODEL 1
REMARK VINA RESULT:      -8.7      0.000      0.000
REMARK  Name = 
REMARK  7 active torsions:
REMARK  status: ('A' for Active; 'I' for Inactive)
REMARK    1  A    between atoms: C_1  and  C_2
REMARK    2  A    between atoms: C_5  and  C_6
REMARK    3  A    between atoms: C_7  and  C_8
REMARK    4  A    between atoms: C_13  and  C_14
REMARK    5  A    between atoms: C_13  and  C_27
REMARK    6  A    between atoms: C_17  and  O_18
REMARK    7  A    between atoms: O_18  and  C_19
REMARK                            x       y       z     vdW  Elec       q    Type
REMARK                         _______ _______ _______ _____ _____    ______ ____
ROOT
ATOM      1  C   UNL     1       4.800   4.154  17.187  0.00  0.00    +0.000 C 
ATOM      2  C   UNL     1       5.259   5.265  17.696  0.00  0.00    +0.000 C 
ATOM      3  C   UNL     1       5.457   5.310  19.151  0.00  0.00    +0.000 C 
ATOM      4  O   UNL     1       6.564   5.233  19.664  0.00  0.00    +0.000 OA
ATOM      5  N   UNL     1       4.323   5.505  19.867  0.00  0.00    +0.000 N 
ATOM      6  C   UNL     1       2.989   5.135  19.279  0.00  0.00    +0.000 C 
ATOM      7  C   UNL     1       3.457   3.991  17.953  0.00  0.00    +0.000 C 
ATOM      8  H   UNL     1       4.385   6.494  20.113  0.00  0.00    +0.000 HD
ENDROOT
BRANCH   1  13
ATOM      9  C   UNL     1       7.484   4.696  11.947  0.00  0.00    +0.000 C 
ATOM     10  C   UNL     1       6.903   4.417  13.315  0.00  0.00    +0.000 A 
ATOM     11  C   UNL     1       7.547   4.757  14.501  0.00  0.00    +0.000 A 
ATOM     12  C   UNL     1       6.912   4.527  15.761  0.00  0.00    +0.000 A 
ATOM     13  C   UNL     1       5.595   3.935  15.905  0.00  0.00    +0.000 A 
ATOM     14  C   UNL     1       5.003   3.579  14.695  0.00  0.00    +0.000 A 
ATOM     15  C   UNL     1       5.630   3.833  13.439  0.00  0.00    +0.000 A 
ENDBRANCH   1  13
BRANCH   6  16
ATOM     16  C   UNL     1       2.162   6.498  19.601  0.00  0.00    +0.000 A 
ATOM     17  C   UNL     1       1.729   6.986  20.823  0.00  0.00    +0.000 A 
ATOM     18  C   UNL     1       1.241   8.347  20.946  0.00  0.00    +0.000 A 
ATOM     19  C   UNL     1       1.177   9.272  19.867  0.00  0.00    +0.000 A 
ATOM     20  C   UNL     1       1.553   8.801  18.630  0.00  0.00    +0.000 A 
ATOM     21  C   UNL     1       2.044   7.473  18.513  0.00  0.00    +0.000 A 
BRANCH  19  22
ATOM     22  O   UNL     1       0.638  10.522  20.123  0.00  0.00    +0.000 OA
BRANCH  22  23
ATOM     23  C   UNL     1       1.301  11.725  19.842  0.00  0.00    +0.000 A 
ATOM     24  N   UNL     1       1.663  12.437  20.962  0.00  0.00    +0.000 NA
ATOM     25  C   UNL     1       2.429  13.525  20.773  0.00  0.00    +0.000 A 
ATOM     26  C   UNL     1       2.875  13.944  19.549  0.00  0.00    +0.000 A 
ATOM     27  C   UNL     1       2.455  13.161  18.482  0.00  0.00    +0.000 A 
ATOM     28  N   UNL     1       1.679  12.058  18.607  0.00  0.00    +0.000 NA
ENDBRANCH  22  23
ENDBRANCH  19  22
ENDBRANCH   6  16
BRANCH   6  29
ATOM     29  C   UNL     1       2.045   4.113  20.070  0.00  0.00    +0.000 C 
ATOM     30  F   UNL     1       2.277   2.800  19.862  0.00  0.00    +0.000 F 
ATOM     31  F   UNL     1       2.231   4.314  21.407  0.00  0.00    +0.000 F 
ATOM     32  F   UNL     1       0.736   4.322  19.815  0.00  0.00    +0.000 F 
ENDBRANCH   6  29
BRANCH   2  33
ATOM     33  C   UNL     1       5.277   6.580  16.936  0.00  0.00    +0.000 C 
ATOM     34  N   UNL     1       5.292   7.673  16.304  0.00  0.00    +0.000 NA
ENDBRANCH   2  33
TORSDOF 6
ENDMDL
MODEL 2
REMARK VINA RESULT:      -8.6      0.988      1.432
REMARK  Name = 
REMARK  7 active torsions:
REMARK  status: ('A' for Active; 'I' for Inactive)
REMARK    1  A    between atoms: C_1  and  C_2
REMARK    2  A    between atoms: C_5  and  C_6
REMARK    3  A    between atoms: C_7  and  C_8
REMARK    4  A    between atoms: C_13  and  C_14
REMARK    5  A    between atoms: C_13  and  C_27
REMARK    6  A    between atoms: C_17  and  O_18
REMARK    7  A    between atoms: O_18  and  C_19
REMARK                            x       y       z     vdW  Elec       q    Type
REMARK                         _______ _______ _______ _____ _____    ______ ____
ROOT
ATOM      1  C   UNL     1       4.834   4.080  17.165  0.00  0.00    +0.000 C 
ATOM      2  C   UNL     1       5.288   5.164  17.733  0.00  0.00    +0.000 C 
ATOM      3  C   UNL     1       5.488   5.131  19.188  0.00  0.00    +0.000 C 
ATOM      4  O   UNL     1       6.596   5.032  19.694  0.00  0.00    +0.000 OA
ATOM      5  N   UNL     1       4.354   5.281  19.914  0.00  0.00    +0.000 N 
ATOM      6  C   UNL     1       3.021   4.936  19.309  0.00  0.00    +0.000 C 
ATOM      7  C   UNL     1       3.494   3.868  17.923  0.00  0.00    +0.000 C 
ATOM      8  H   UNL     1       4.411   6.255  20.213  0.00  0.00    +0.000 HD
ENDROOT
BRANCH   1  13
ATOM      9  C   UNL     1       7.521   4.924  11.966  0.00  0.00    +0.000 C 
ATOM     10  C   UNL     1       6.938   4.567  13.315  0.00  0.00    +0.000 A 
ATOM     11  C   UNL     1       7.584   4.832  14.519  0.00  0.00    +0.000 A 
ATOM     12  C   UNL     1       6.948   4.529  15.763  0.00  0.00    +0.000 A 
ATOM     13  C   UNL     1       5.628   3.935  15.871  0.00  0.00    +0.000 A 
ATOM     14  C   UNL     1       5.035   3.654  14.642  0.00  0.00    +0.000 A 
ATOM     15  C   UNL     1       5.663   3.981  13.404  0.00  0.00    +0.000 A 
ENDBRANCH   1  13
BRANCH   6  16
ATOM     16  C   UNL     1       2.187   6.275  19.705  0.00  0.00    +0.000 A 
ATOM     17  C   UNL     1       1.602   6.610  20.915  0.00  0.00    +0.000 A 
ATOM     18  C   UNL     1       1.130   7.961  21.161  0.00  0.00    +0.000 A 
ATOM     19  C   UNL     1       1.235   9.024  20.223  0.00  0.00    +0.000 A 
ATOM     20  C   UNL     1       1.766   8.711  18.993  0.00  0.00    +0.000 A 
ATOM     21  C   UNL     1       2.240   7.392  18.758  0.00  0.00    +0.000 A 
BRANCH  19  22
ATOM     22  O   UNL     1       0.693  10.250  20.576  0.00  0.00    +0.000 OA
BRANCH  22  23
ATOM     23  C   UNL     1       0.403  11.265  19.655  0.00  0.00    +0.000 A 
ATOM     24  N   UNL     1      -0.868  11.199  19.134  0.00  0.00    +0.000 NA
ATOM     25  C   UNL     1      -1.264  12.222  18.357  0.00  0.00    +0.000 A 
ATOM     26  C   UNL     1      -0.490  13.316  18.078  0.00  0.00    +0.000 A 
ATOM     27  C   UNL     1       0.776  13.288  18.649  0.00  0.00    +0.000 A 
ATOM     28  N   UNL     1       1.234  12.285  19.434  0.00  0.00    +0.000 NA
ENDBRANCH  22  23
ENDBRANCH  19  22
ENDBRANCH   6  16
BRANCH   6  29
ATOM     29  C   UNL     1       2.084   3.867  20.045  0.00  0.00    +0.000 C 
ATOM     30  F   UNL     1       2.030   3.945  21.391  0.00  0.00    +0.000 F 
ATOM     31  F   UNL     1       0.804   4.058  19.611  0.00  0.00    +0.000 F 
ATOM     32  F   UNL     1       2.421   2.596  19.741  0.00  0.00    +0.000 F 
ENDBRANCH   6  29
BRANCH   2  33
ATOM     33  C   UNL     1       5.298   6.519  17.045  0.00  0.00    +0.000 C 
ATOM     34  N   UNL     1       5.305   7.644  16.474  0.00  0.00    +0.000 NA
ENDBRANCH   2  33
TORSDOF 6
ENDMDL
MODEL 3
REMARK VINA RESULT:      -8.6      1.287      1.642
REMARK  Name = 
REMARK  7 active torsions:
REMARK  status: ('A' for Active; 'I' for Inactive)
REMARK    1  A    between atoms: C_1  and  C_2
REMARK    2  A    between atoms: C_5  and  C_6
REMARK    3  A    between atoms: C_7  and  C_8
REMARK    4  A    between atoms: C_13  and  C_14
REMARK    5  A    between atoms: C_13  and  C_27
REMARK    6  A    between atoms: C_17  and  O_18
REMARK    7  A    between atoms: O_18  and  C_19
REMARK                            x       y       z     vdW  Elec       q    Type
REMARK                         _______ _______ _______ _____ _____    ______ ____
ROOT
ATOM      1  C   UNL     1       4.900   3.912  16.818  0.00  0.00    +0.000 C 
ATOM      2  C   UNL     1       5.384   4.948  17.448  0.00  0.00    +0.000 C 
ATOM      3  C   UNL     1       5.562   4.831  18.902  0.00  0.00    +0.000 C 
ATOM      4  O   UNL     1       6.659   4.666  19.416  0.00  0.00    +0.000 OA
ATOM      5  N   UNL     1       4.424   4.982  19.622  0.00  0.00    +0.000 N 
ATOM      6  C   UNL     1       3.089   4.717  18.983  0.00  0.00    +0.000 C 
ATOM      7  C   UNL     1       3.543   3.708  17.547  0.00  0.00    +0.000 C 
ATOM      8  H   UNL     1       4.511   5.936  19.973  0.00  0.00    +0.000 HD
ENDROOT
BRANCH   1  13
ATOM      9  C   UNL     1       7.559   4.891  11.628  0.00  0.00    +0.000 C 
ATOM     10  C   UNL     1       6.991   4.505  12.975  0.00  0.00    +0.000 A 
ATOM     11  C   UNL     1       7.616   4.809  14.181  0.00  0.00    +0.000 A 
ATOM     12  C   UNL     1       6.992   4.474  15.424  0.00  0.00    +0.000 A 
ATOM     13  C   UNL     1       5.707   3.808  15.528  0.00  0.00    +0.000 A 
ATOM     14  C   UNL     1       5.135   3.492  14.297  0.00  0.00    +0.000 A 
ATOM     15  C   UNL     1       5.750   3.850  13.061  0.00  0.00    +0.000 A 
ENDBRANCH   1  13
BRANCH   6  16
ATOM     16  C   UNL     1       2.296   6.061  19.440  0.00  0.00    +0.000 A 
ATOM     17  C   UNL     1       1.804   6.400  20.690  0.00  0.00    +0.000 A 
ATOM     18  C   UNL     1       1.362   7.753  20.971  0.00  0.00    +0.000 A 
ATOM     19  C   UNL     1       1.405   8.817  20.028  0.00  0.00    +0.000 A 
ATOM     20  C   UNL     1       1.842   8.501  18.763  0.00  0.00    +0.000 A 
ATOM     21  C   UNL     1       2.288   7.179  18.492  0.00  0.00    +0.000 A 
BRANCH  19  22
ATOM     22  O   UNL     1       0.900  10.046  20.422  0.00  0.00    +0.000 OA
BRANCH  22  23
ATOM     23  C   UNL     1      -0.041  10.772  19.679  0.00  0.00    +0.000 A 
ATOM     24  N   UNL     1       0.376  12.037  19.335  0.00  0.00    +0.000 NA
ATOM     25  C   UNL     1      -0.414  12.735  18.501  0.00  0.00    +0.000 A 
ATOM     26  C   UNL     1      -1.580  12.254  17.969  0.00  0.00    +0.000 A 
ATOM     27  C   UNL     1      -1.914  10.970  18.377  0.00  0.00    +0.000 A 
ATOM     28  N   UNL     1      -1.165  10.220  19.220  0.00  0.00    +0.000 NA
ENDBRANCH  22  23
ENDBRANCH  19  22
ENDBRANCH   6  16
BRANCH   6  29
ATOM     29  C   UNL     1       2.105   3.644  19.649  0.00  0.00    +0.000 C 
ATOM     30  F   UNL     1       2.261   2.363  19.255  0.00  0.00    +0.000 F 
ATOM     31  F   UNL     1       2.325   3.648  20.996  0.00  0.00    +0.000 F 
ATOM     32  F   UNL     1       0.805   3.954  19.458  0.00  0.00    +0.000 F 
ENDBRANCH   6  29
BRANCH   2  33
ATOM     33  C   UNL     1       5.450   6.336  16.834  0.00  0.00    +0.000 C 
ATOM     34  N   UNL     1       5.505   7.489  16.324  0.00  0.00    +0.000 NA
ENDBRANCH   2  33
TORSDOF 6
ENDMDL
MODEL 4
REMARK VINA RESULT:      -8.2      1.508      1.872
REMARK  Name = 
REMARK  7 active torsions:
REMARK  status: ('A' for Active; 'I' for Inactive)
REMARK    1  A    between atoms: C_1  and  C_2
REMARK    2  A    between atoms: C_5  and  C_6
REMARK    3  A    between atoms: C_7  and  C_8
REMARK    4  A    between atoms: C_13  and  C_14
REMARK    5  A    between atoms: C_13  and  C_27
REMARK    6  A    between atoms: C_17  and  O_18
REMARK    7  A    between atoms: O_18  and  C_19
REMARK                            x       y       z     vdW  Elec       q    Type
REMARK                         _______ _______ _______ _____ _____    ______ ____
ROOT
ATOM      1  C   UNL     1       4.498   4.257  17.227  0.00  0.00    +0.000 C 
ATOM      2  C   UNL     1       5.061   5.288  17.799  0.00  0.00    +0.000 C 
ATOM      3  C   UNL     1       5.199   5.257  19.261  0.00  0.00    +0.000 C 
ATOM      4  O   UNL     1       6.265   5.032  19.813  0.00  0.00    +0.000 OA
ATOM      5  N   UNL     1       4.065   5.559  19.939  0.00  0.00    +0.000 N 
ATOM      6  C   UNL     1       2.724   5.369  19.285  0.00  0.00    +0.000 C 
ATOM      7  C   UNL     1       3.114   4.226  17.933  0.00  0.00    +0.000 C 
ATOM      8  H   UNL     1       4.230   6.524  20.227  0.00  0.00    +0.000 HD
ENDROOT
BRANCH   1  13
ATOM      9  C   UNL     1       7.457   4.668  12.125  0.00  0.00    +0.000 C 
ATOM     10  C   UNL     1       6.787   4.410  13.456  0.00  0.00    +0.000 A 
ATOM     11  C   UNL     1       7.414   4.626  14.679  0.00  0.00    +0.000 A 
ATOM     12  C   UNL     1       6.701   4.427  15.903  0.00  0.00    +0.000 A 
ATOM     13  C   UNL     1       5.317   3.993  15.969  0.00  0.00    +0.000 A 
ATOM     14  C   UNL     1       4.741   3.755  14.723  0.00  0.00    +0.000 A 
ATOM     15  C   UNL     1       5.449   3.979  13.504  0.00  0.00    +0.000 A 
ENDBRANCH   1  13
BRANCH   6  16
ATOM     16  C   UNL     1       2.048   6.807  19.629  0.00  0.00    +0.000 A 
ATOM     17  C   UNL     1       1.719   7.342  20.864  0.00  0.00    +0.000 A 
ATOM     18  C   UNL     1       1.369   8.745  20.995  0.00  0.00    +0.000 A 
ATOM     19  C   UNL     1       1.348   9.665  19.911  0.00  0.00    +0.000 A 
ATOM     20  C   UNL     1       1.621   9.153  18.663  0.00  0.00    +0.000 A 
ATOM     21  C   UNL     1       1.976   7.783  18.538  0.00  0.00    +0.000 A 
BRANCH  19  22
ATOM     22  O   UNL     1       0.944  10.963  20.178  0.00  0.00    +0.000 OA
BRANCH  22  23
ATOM     23  C   UNL     1      -0.242  11.284  20.852  0.00  0.00    +0.000 A 
ATOM     24  N   UNL     1      -0.102  11.373  22.217  0.00  0.00    +0.000 NA
ATOM     25  C   UNL     1      -1.162  11.819  22.913  0.00  0.00    +0.000 A 
ATOM     26  C   UNL     1      -2.346  12.202  22.343  0.00  0.00    +0.000 A 
ATOM     27  C   UNL     1      -2.389  12.074  20.961  0.00  0.00    +0.000 A 
ATOM     28  N   UNL     1      -1.358  11.625  20.206  0.00  0.00    +0.000 NA
ENDBRANCH  22  23
ENDBRANCH  19  22
ENDBRANCH   6  16
BRANCH   6  29
ATOM     29  C   UNL     1       1.634   4.438  19.996  0.00  0.00    +0.000 C 
ATOM     30  F   UNL     1       1.327   3.285  19.364  0.00  0.00    +0.000 F 
ATOM     31  F   UNL     1       2.123   4.072  21.217  0.00  0.00    +0.000 F 
ATOM     32  F   UNL     1       0.469   5.085  20.212  0.00  0.00    +0.000 F 
ENDBRANCH   6  29
BRANCH   2  33
ATOM     33  C   UNL     1       5.264   6.618  17.094  0.00  0.00    +0.000 C 
ATOM     34  N   UNL     1       5.433   7.724  16.509  0.00  0.00    +0.000 NA
ENDBRANCH   2  33
TORSDOF 6
ENDMDL
MODEL 5
REMARK VINA RESULT:      -8.2      1.503      2.125
REMARK  Name = 
REMARK  7 active torsions:
REMARK  status: ('A' for Active; 'I' for Inactive)
REMARK    1  A    between atoms: C_1  and  C_2
REMARK    2  A    between atoms: C_5  and  C_6
REMARK    3  A    between atoms: C_7  and  C_8
REMARK    4  A    between atoms: C_13  and  C_14
REMARK    5  A    between atoms: C_13  and  C_27
REMARK    6  A    between atoms: C_17  and  O_18
REMARK    7  A    between atoms: O_18  and  C_19
REMARK                            x       y       z     vdW  Elec       q    Type
REMARK                         _______ _______ _______ _____ _____    ______ ____
ROOT
ATOM      1  C   UNL     1       4.802   4.124  17.067  0.00  0.00    +0.000 C 
ATOM      2  C   UNL     1       5.293   5.214  17.591  0.00  0.00    +0.000 C 
ATOM      3  C   UNL     1       5.482   5.237  19.048  0.00  0.00    +0.000 C 
ATOM      4  O   UNL     1       6.581   5.118  19.568  0.00  0.00    +0.000 OA
ATOM      5  N   UNL     1       4.349   5.462  19.758  0.00  0.00    +0.000 N 
ATOM      6  C   UNL     1       3.008   5.142  19.156  0.00  0.00    +0.000 C 
ATOM      7  C   UNL     1       3.449   3.998  17.822  0.00  0.00    +0.000 C 
ATOM      8  H   UNL     1       4.442   6.445  20.015  0.00  0.00    +0.000 HD
ENDROOT
BRANCH   1  13
ATOM      9  C   UNL     1       7.528   4.628  11.845  0.00  0.00    +0.000 C 
ATOM     10  C   UNL     1       6.932   4.356  13.208  0.00  0.00    +0.000 A 
ATOM     11  C   UNL     1       7.578   4.675  14.399  0.00  0.00    +0.000 A 
ATOM     12  C   UNL     1       6.930   4.454  15.655  0.00  0.00    +0.000 A 
ATOM     13  C   UNL     1       5.598   3.893  15.788  0.00  0.00    +0.000 A 
ATOM     14  C   UNL     1       5.005   3.556  14.573  0.00  0.00    +0.000 A 
ATOM     15  C   UNL     1       5.645   3.801  13.322  0.00  0.00    +0.000 A 
ENDBRANCH   1  13
BRANCH   6  16
ATOM     16  C   UNL     1       2.224   6.528  19.487  0.00  0.00    +0.000 A 
ATOM     17  C   UNL     1       1.795   7.016  20.710  0.00  0.00    +0.000 A 
ATOM     18  C   UNL     1       1.351   8.391  20.846  0.00  0.00    +0.000 A 
ATOM     19  C   UNL     1       1.330   9.330  19.778  0.00  0.00    +0.000 A 
ATOM     20  C   UNL     1       1.702   8.862  18.539  0.00  0.00    +0.000 A 
ATOM     21  C   UNL     1       2.150   7.519  18.410  0.00  0.00    +0.000 A 
BRANCH  19  22
ATOM     22  O   UNL     1       0.830  10.595  20.043  0.00  0.00    +0.000 OA
BRANCH  22  23
ATOM     23  C   UNL     1       0.041  10.899  21.161  0.00  0.00    +0.000 A 
ATOM     24  N   UNL     1      -0.951  11.818  20.911  0.00  0.00    +0.000 NA
ATOM     25  C   UNL     1      -1.835  12.046  21.897  0.00  0.00    +0.000 A 
ATOM     26  C   UNL     1      -1.813  11.409  23.108  0.00  0.00    +0.000 A 
ATOM     27  C   UNL     1      -0.773  10.502  23.264  0.00  0.00    +0.000 A 
ATOM     28  N   UNL     1       0.151  10.234  22.312  0.00  0.00    +0.000 NA
ENDBRANCH  22  23
ENDBRANCH  19  22
ENDBRANCH   6  16
BRANCH   6  29
ATOM     29  C   UNL     1       2.025   4.143  19.930  0.00  0.00    +0.000 C 
ATOM     30  F   UNL     1       1.971   4.277  21.272  0.00  0.00    +0.000 F 
ATOM     31  F   UNL     1       0.756   4.369  19.483  0.00  0.00    +0.000 F 
ATOM     32  F   UNL     1       2.310   2.848  19.679  0.00  0.00    +0.000 F 
ENDBRANCH   6  29
BRANCH   2  33
ATOM     33  C   UNL     1       5.360   6.536  16.846  0.00  0.00    +0.000 C 
ATOM     34  N   UNL     1       5.415   7.634  16.226  0.00  0.00    +0.000 NA
ENDBRANCH   2  33
TORSDOF 6
ENDMDL
MODEL 6
REMARK VINA RESULT:      -7.9      3.448      9.555
REMARK  Name = 
REMARK  7 active torsions:
REMARK  status: ('A' for Active; 'I' for Inactive)
REMARK    1  A    between atoms: C_1  and  C_2
REMARK    2  A    between atoms: C_5  and  C_6
REMARK    3  A    between atoms: C_7  and  C_8
REMARK    4  A    between atoms: C_13  and  C_14
REMARK    5  A    between atoms: C_13  and  C_27
REMARK    6  A    between atoms: C_17  and  O_18
REMARK    7  A    between atoms: O_18  and  C_19
REMARK                            x       y       z     vdW  Elec       q    Type
REMARK                         _______ _______ _______ _____ _____    ______ ____
ROOT
ATOM      1  C   UNL     1      -0.214  13.031  20.890  0.00  0.00    +0.000 C 
ATOM      2  C   UNL     1      -0.217  12.597  19.658  0.00  0.00    +0.000 C 
ATOM      3  C   UNL     1      -1.185  11.548  19.315  0.00  0.00    +0.000 C 
ATOM      4  O   UNL     1      -2.204  11.779  18.680  0.00  0.00    +0.000 OA
ATOM      5  N   UNL     1      -0.825  10.301  19.704  0.00  0.00    +0.000 N 
ATOM      6  C   UNL     1       0.142  10.118  20.841  0.00  0.00    +0.000 C 
ATOM      7  C   UNL     1       0.056  11.721  21.682  0.00  0.00    +0.000 C 
ATOM      8  H   UNL     1      -0.493   9.885  18.833  0.00  0.00    +0.000 HD
ENDROOT
BRANCH   1  13
ATOM      9  C   UNL     1       1.060  18.551  19.199  0.00  0.00    +0.000 C 
ATOM     10  C   UNL     1       0.623  17.212  19.748  0.00  0.00    +0.000 A 
ATOM     11  C   UNL     1      -0.589  16.612  19.418  0.00  0.00    +0.000 A 
ATOM     12  C   UNL     1      -0.913  15.313  19.920  0.00  0.00    +0.000 A 
ATOM     13  C   UNL     1      -0.041  14.542  20.788  0.00  0.00    +0.000 A 
ATOM     14  C   UNL     1       1.144  15.196  21.120  0.00  0.00    +0.000 A 
ATOM     15  C   UNL     1       1.473  16.482  20.597  0.00  0.00    +0.000 A 
ENDBRANCH   1  13
BRANCH   6  16
ATOM     16  C   UNL     1       1.163   9.050  20.160  0.00  0.00    +0.000 A 
ATOM     17  C   UNL     1       1.647   7.858  20.674  0.00  0.00    +0.000 A 
ATOM     18  C   UNL     1       2.336   6.908  19.820  0.00  0.00    +0.000 A 
ATOM     19  C   UNL     1       2.556   7.102  18.428  0.00  0.00    +0.000 A 
ATOM     20  C   UNL     1       2.132   8.299  17.899  0.00  0.00    +0.000 A 
ATOM     21  C   UNL     1       1.445   9.222  18.732  0.00  0.00    +0.000 A 
BRANCH  19  22
ATOM     22  O   UNL     1       3.276   6.131  17.750  0.00  0.00    +0.000 OA
BRANCH  22  23
ATOM     23  C   UNL     1       3.114   4.755  17.962  0.00  0.00    +0.000 A 
ATOM     24  N   UNL     1       4.188   4.155  18.577  0.00  0.00    +0.000 NA
ATOM     25  C   UNL     1       4.043   2.869  18.942  0.00  0.00    +0.000 A 
ATOM     26  C   UNL     1       2.897   2.145  18.755  0.00  0.00    +0.000 A 
ATOM     27  C   UNL     1       1.872   2.838  18.126  0.00  0.00    +0.000 A 
ATOM     28  N   UNL     1       1.959   4.130  17.729  0.00  0.00    +0.000 NA
ENDBRANCH  22  23
ENDBRANCH  19  22
ENDBRANCH   6  16
BRANCH   6  29
ATOM     29  C   UNL     1      -0.294   9.232  22.101  0.00  0.00    +0.000 C 
ATOM     30  F   UNL     1      -1.228   9.768  22.914  0.00  0.00    +0.000 F 
ATOM     31  F   UNL     1      -0.832   8.069  21.634  0.00  0.00    +0.000 F 
ATOM     32  F   UNL     1       0.757   8.900  22.881  0.00  0.00    +0.000 F 
ENDBRANCH   6  29
BRANCH   2  33
ATOM     33  C   UNL     1       0.916  12.866  18.681  0.00  0.00    +0.000 C 
ATOM     34  N   UNL     1       1.856  13.089  17.870  0.00  0.00    +0.000 NA
ENDBRANCH   2  33
TORSDOF 6
ENDMDL
MODEL 7
REMARK VINA RESULT:      -7.8      3.011      9.292
REMARK  Name = 
REMARK  7 active torsions:
REMARK  status: ('A' for Active; 'I' for Inactive)
REMARK    1  A    between atoms: C_1  and  C_2
REMARK    2  A    between atoms: C_5  and  C_6
REMARK    3  A    between atoms: C_7  and  C_8
REMARK    4  A    between atoms: C_13  and  C_14
REMARK    5  A    between atoms: C_13  and  C_27
REMARK    6  A    between atoms: C_17  and  O_18
REMARK    7  A    between atoms: O_18  and  C_19
REMARK                            x       y       z     vdW  Elec       q    Type
REMARK                         _______ _______ _______ _____ _____    ______ ____
ROOT
ATOM      1  C   UNL     1      -0.251  13.046  20.846  0.00  0.00    +0.000 C 
ATOM      2  C   UNL     1      -0.204  12.622  19.612  0.00  0.00    +0.000 C 
ATOM      3  C   UNL     1      -1.151  11.569  19.223  0.00  0.00    +0.000 C 
ATOM      4  O   UNL     1      -2.146  11.798  18.552  0.00  0.00    +0.000 OA
ATOM      5  N   UNL     1      -0.797  10.321  19.616  0.00  0.00    +0.000 N 
ATOM      6  C   UNL     1       0.127  10.136  20.788  0.00  0.00    +0.000 C 
ATOM      7  C   UNL     1      -0.003  11.731  21.637  0.00  0.00    +0.000 C 
ATOM      8  H   UNL     1      -0.429   9.915  18.756  0.00  0.00    +0.000 HD
ENDROOT
BRANCH   1  13
ATOM      9  C   UNL     1       0.899  18.600  19.178  0.00  0.00    +0.000 C 
ATOM     10  C   UNL     1       0.502  17.250  19.731  0.00  0.00    +0.000 A 
ATOM     11  C   UNL     1      -0.731  16.656  19.479  0.00  0.00    +0.000 A 
ATOM     12  C   UNL     1      -1.018  15.346  19.977  0.00  0.00    +0.000 A 
ATOM     13  C   UNL     1      -0.086  14.559  20.762  0.00  0.00    +0.000 A 
ATOM     14  C   UNL     1       1.121  15.207  21.020  0.00  0.00    +0.000 A 
ATOM     15  C   UNL     1       1.412  16.504  20.500  0.00  0.00    +0.000 A 
ENDBRANCH   1  13
BRANCH   6  16
ATOM     16  C   UNL     1       1.181   9.080  20.139  0.00  0.00    +0.000 A 
ATOM     17  C   UNL     1       1.635   7.876  20.651  0.00  0.00    +0.000 A 
ATOM     18  C   UNL     1       2.367   6.943  19.814  0.00  0.00    +0.000 A 
ATOM     19  C   UNL     1       2.660   7.166  18.441  0.00  0.00    +0.000 A 
ATOM     20  C   UNL     1       2.266   8.375  17.916  0.00  0.00    +0.000 A 
ATOM     21  C   UNL     1       1.538   9.282  18.732  0.00  0.00    +0.000 A 
BRANCH  19  22
ATOM     22  O   UNL     1       3.414   6.209  17.780  0.00  0.00    +0.000 OA
BRANCH  22  23
ATOM     23  C   UNL     1       4.800   6.070  17.934  0.00  0.00    +0.000 A 
ATOM     24  N   UNL     1       5.538   6.882  17.106  0.00  0.00    +0.000 NA
ATOM     25  C   UNL     1       6.868   6.908  17.302  0.00  0.00    +0.000 A 
ATOM     26  C   UNL     1       7.512   6.196  18.277  0.00  0.00    +0.000 A 
ATOM     27  C   UNL     1       6.681   5.405  19.059  0.00  0.00    +0.000 A 
ATOM     28  N   UNL     1       5.337   5.331  18.907  0.00  0.00    +0.000 NA
ENDBRANCH  22  23
ENDBRANCH  19  22
ENDBRANCH   6  16
BRANCH   6  29
ATOM     29  C   UNL     1      -0.350   9.237  22.024  0.00  0.00    +0.000 C 
ATOM     30  F   UNL     1      -0.899   8.042  21.718  0.00  0.00    +0.000 F 
ATOM     31  F   UNL     1       0.743   8.958  22.791  0.00  0.00    +0.000 F 
ATOM     32  F   UNL     1      -1.236   9.882  22.813  0.00  0.00    +0.000 F 
ENDBRANCH   6  29
BRANCH   2  33
ATOM     33  C   UNL     1       0.963  12.906  18.681  0.00  0.00    +0.000 C 
ATOM     34  N   UNL     1       1.933  13.142  17.908  0.00  0.00    +0.000 NA
ENDBRANCH   2  33
TORSDOF 6
ENDMDL
MODEL 8
REMARK VINA RESULT:      -7.8      3.497      9.578
REMARK  Name = 
REMARK  7 active torsions:
REMARK  status: ('A' for Active; 'I' for Inactive)
REMARK    1  A    between atoms: C_1  and  C_2
REMARK    2  A    between atoms: C_5  and  C_6
REMARK    3  A    between atoms: C_7  and  C_8
REMARK    4  A    between atoms: C_13  and  C_14
REMARK    5  A    between atoms: C_13  and  C_27
REMARK    6  A    between atoms: C_17  and  O_18
REMARK    7  A    between atoms: O_18  and  C_19
REMARK                            x       y       z     vdW  Elec       q    Type
REMARK                         _______ _______ _______ _____ _____    ______ ____
ROOT
ATOM      1  C   UNL     1      -0.182  13.126  20.840  0.00  0.00    +0.000 C 
ATOM      2  C   UNL     1      -0.175  12.683  19.612  0.00  0.00    +0.000 C 
ATOM      3  C   UNL     1      -1.156  11.646  19.263  0.00  0.00    +0.000 C 
ATOM      4  O   UNL     1      -2.161  11.889  18.613  0.00  0.00    +0.000 OA
ATOM      5  N   UNL     1      -0.821  10.397  19.667  0.00  0.00    +0.000 N 
ATOM      6  C   UNL     1       0.127  10.207  20.819  0.00  0.00    +0.000 C 
ATOM      7  C   UNL     1       0.055  11.818  21.646  0.00  0.00    +0.000 C 
ATOM      8  H   UNL     1      -0.484   9.969  18.805  0.00  0.00    +0.000 HD
ENDROOT
BRANCH   1  13
ATOM      9  C   UNL     1       1.013  18.631  19.043  0.00  0.00    +0.000 C 
ATOM     10  C   UNL     1       0.614  17.297  19.633  0.00  0.00    +0.000 A 
ATOM     11  C   UNL     1      -0.646  16.732  19.458  0.00  0.00    +0.000 A 
ATOM     12  C   UNL     1      -0.938  15.436  19.987  0.00  0.00    +0.000 A 
ATOM     13  C   UNL     1       0.017  14.634  20.729  0.00  0.00    +0.000 A 
ATOM     14  C   UNL     1       1.252  15.253  20.911  0.00  0.00    +0.000 A 
ATOM     15  C   UNL     1       1.546  16.536  20.361  0.00  0.00    +0.000 A 
ENDBRANCH   1  13
BRANCH   6  16
ATOM     16  C   UNL     1       1.140   9.117  20.162  0.00  0.00    +0.000 A 
ATOM     17  C   UNL     1       1.613   7.932  20.700  0.00  0.00    +0.000 A 
ATOM     18  C   UNL     1       2.295   6.959  19.865  0.00  0.00    +0.000 A 
ATOM     19  C   UNL     1       2.518   7.123  18.471  0.00  0.00    +0.000 A 
ATOM     20  C   UNL     1       2.105   8.313  17.917  0.00  0.00    +0.000 A 
ATOM     21  C   UNL     1       1.425   9.258  18.731  0.00  0.00    +0.000 A 
BRANCH  19  22
ATOM     22  O   UNL     1       3.230   6.133  17.813  0.00  0.00    +0.000 OA
BRANCH  22  23
ATOM     23  C   UNL     1       3.176   4.777  18.160  0.00  0.00    +0.000 A 
ATOM     24  N   UNL     1       2.012   4.150  17.782  0.00  0.00    +0.000 NA
ATOM     25  C   UNL     1       1.952   2.818  17.952  0.00  0.00    +0.000 A 
ATOM     26  C   UNL     1       2.977   2.063  18.455  0.00  0.00    +0.000 A 
ATOM     27  C   UNL     1       4.107   2.788  18.809  0.00  0.00    +0.000 A 
ATOM     28  N   UNL     1       4.226   4.129  18.668  0.00  0.00    +0.000 NA
ENDBRANCH  22  23
ENDBRANCH  19  22
ENDBRANCH   6  16
BRANCH   6  29
ATOM     29  C   UNL     1      -0.341   9.339  22.080  0.00  0.00    +0.000 C 
ATOM     30  F   UNL     1      -0.878   8.131  21.809  0.00  0.00    +0.000 F 
ATOM     31  F   UNL     1       0.756   9.092  22.854  0.00  0.00    +0.000 F 
ATOM     32  F   UNL     1      -1.232   9.997  22.852  0.00  0.00    +0.000 F 
ENDBRANCH   6  29
BRANCH   2  33
ATOM     33  C   UNL     1       0.975  12.925  18.649  0.00  0.00    +0.000 C 
ATOM     34  N   UNL     1       1.930  13.127  17.850  0.00  0.00    +0.000 NA
ENDBRANCH   2  33
TORSDOF 6
ENDMDL
MODEL 9
REMARK VINA RESULT:      -7.8      1.344      1.985
REMARK  Name = 
REMARK  7 active torsions:
REMARK  status: ('A' for Active; 'I' for Inactive)
REMARK    1  A    between atoms: C_1  and  C_2
REMARK    2  A    between atoms: C_5  and  C_6
REMARK    3  A    between atoms: C_7  and  C_8
REMARK    4  A    between atoms: C_13  and  C_14
REMARK    5  A    between atoms: C_13  and  C_27
REMARK    6  A    between atoms: C_17  and  O_18
REMARK    7  A    between atoms: O_18  and  C_19
REMARK                            x       y       z     vdW  Elec       q    Type
REMARK                         _______ _______ _______ _____ _____    ______ ____
ROOT
ATOM      1  C   UNL     1       4.725   4.050  16.014  0.00  0.00    +0.000 C 
ATOM      2  C   UNL     1       5.258   4.999  16.735  0.00  0.00    +0.000 C 
ATOM      3  C   UNL     1       5.589   4.682  18.131  0.00  0.00    +0.000 C 
ATOM      4  O   UNL     1       6.734   4.476  18.502  0.00  0.00    +0.000 OA
ATOM      5  N   UNL     1       4.529   4.698  18.977  0.00  0.00    +0.000 N 
ATOM      6  C   UNL     1       3.138   4.490  18.444  0.00  0.00    +0.000 C 
ATOM      7  C   UNL     1       3.453   3.708  16.840  0.00  0.00    +0.000 C 
ATOM      8  H   UNL     1       4.640   5.595  19.451  0.00  0.00    +0.000 HD
ENDROOT
BRANCH   1  13
ATOM      9  C   UNL     1       7.590   3.021  10.945  0.00  0.00    +0.000 C 
ATOM     10  C   UNL     1       6.794   3.430  12.164  0.00  0.00    +0.000 A 
ATOM     11  C   UNL     1       5.417   3.257  12.270  0.00  0.00    +0.000 A 
ATOM     12  C   UNL     1       4.735   3.604  13.477  0.00  0.00    +0.000 A 
ATOM     13  C   UNL     1       5.394   4.152  14.648  0.00  0.00    +0.000 A 
ATOM     14  C   UNL     1       6.765   4.342  14.485  0.00  0.00    +0.000 A 
ATOM     15  C   UNL     1       7.445   3.971  13.287  0.00  0.00    +0.000 A 
ENDBRANCH   1  13
BRANCH   6  16
ATOM     16  C   UNL     1       2.381   5.733  19.168  0.00  0.00    +0.000 A 
ATOM     17  C   UNL     1       1.972   5.856  20.486  0.00  0.00    +0.000 A 
ATOM     18  C   UNL     1       1.552   7.141  21.015  0.00  0.00    +0.000 A 
ATOM     19  C   UNL     1       1.537   8.347  20.261  0.00  0.00    +0.000 A 
ATOM     20  C   UNL     1       1.890   8.248  18.935  0.00  0.00    +0.000 A 
ATOM     21  C   UNL     1       2.314   6.993  18.421  0.00  0.00    +0.000 A 
BRANCH  19  22
ATOM     22  O   UNL     1       1.062   9.490  20.884  0.00  0.00    +0.000 OA
BRANCH  22  23
ATOM     23  C   UNL     1       0.394  10.521  20.210  0.00  0.00    +0.000 A 
ATOM     24  N   UNL     1       1.171  11.632  19.980  0.00  0.00    +0.000 NA
ATOM     25  C   UNL     1       0.641  12.600  19.211  0.00  0.00    +0.000 A 
ATOM     26  C   UNL     1      -0.601  12.529  18.640  0.00  0.00    +0.000 A 
ATOM     27  C   UNL     1      -1.307  11.370  18.932  0.00  0.00    +0.000 A 
ATOM     28  N   UNL     1      -0.831  10.364  19.704  0.00  0.00    +0.000 NA
ENDBRANCH  22  23
ENDBRANCH  19  22
ENDBRANCH   6  16
BRANCH   6  29
ATOM     29  C   UNL     1       2.243   3.307  19.045  0.00  0.00    +0.000 C 
ATOM     30  F   UNL     1       2.306   3.129  20.382  0.00  0.00    +0.000 F 
ATOM     31  F   UNL     1       0.936   3.585  18.770  0.00  0.00    +0.000 F 
ATOM     32  F   UNL     1       2.524   2.114  18.480  0.00  0.00    +0.000 F 
ENDBRANCH   6  29
BRANCH   2  33
ATOM     33  C   UNL     1       5.243   6.462  16.324  0.00  0.00    +0.000 C 
ATOM     34  N   UNL     1       5.230   7.676  15.982  0.00  0.00    +0.000 NA
ENDBRANCH   2  33
TORSDOF 6
ENDMDL
