MODEL 1
REMARK VINA RESULT:      -4.9      0.000      0.000
REMARK  Name = 
REMARK  5 active torsions:
REMARK  status: ('A' for Active; 'I' for Inactive)
REMARK    1  A    between atoms: C_1  and  C_2
REMARK    2  A    between atoms: C_2  and  O_3
REMARK    3  A    between atoms: O_3  and  C_4
REMARK    4  A    between atoms: C_9  and  C_10
REMARK    5  A    between atoms: C_10  and  N_11
REMARK                            x       y       z     vdW  Elec       q    Type
REMARK                         _______ _______ _______ _____ _____    ______ ____
ROOT
ATOM      1  C   UNL     1       3.571   3.697  19.614  0.00  0.00    +0.000 A 
ATOM      2  C   UNL     1       2.990   4.663  20.448  0.00  0.00    +0.000 A 
ATOM      3  C   UNL     1       1.617   4.664  20.694  0.00  0.00    +0.000 A 
ATOM      4  C   UNL     1       0.810   3.721  20.081  0.00  0.00    +0.000 A 
ATOM      5  C   UNL     1       1.364   2.808  19.183  0.00  0.00    +0.000 A 
ATOM      6  C   UNL     1       2.748   2.795  18.920  0.00  0.00    +0.000 A 
ENDROOT
BRANCH   1   7
ATOM      7  O   UNL     1       4.930   3.590  19.437  0.00  0.00    +0.000 OA
BRANCH   7   9
ATOM      8  C   UNL     1       5.398   5.028  17.564  0.00  0.00    +0.000 C 
ATOM      9  C   UNL     1       5.577   4.809  19.054  0.00  0.00    +0.000 C 
ENDBRANCH   7   9
ENDBRANCH   1   7
BRANCH   6  10
ATOM     10  C   UNL     1       3.276   1.829  17.887  0.00  0.00    +0.000 C 
BRANCH  10  11
ATOM     11  N   UNL     1       4.071   0.763  18.493  0.00  0.00    +0.000 NA
ATOM     12  H   UNL     1       3.445   0.181  19.048  0.00  0.00    +0.000 HD
ATOM     13  H   UNL     1       4.731   1.178  19.148  0.00  0.00    +0.000 HD
ENDBRANCH  10  11
ENDBRANCH   6  10
TORSDOF 4
ENDMDL
MODEL 2
REMARK VINA RESULT:      -4.9      2.945      3.805
REMARK  Name = 
REMARK  5 active torsions:
REMARK  status: ('A' for Active; 'I' for Inactive)
REMARK    1  A    between atoms: C_1  and  C_2
REMARK    2  A    between atoms: C_2  and  O_3
REMARK    3  A    between atoms: O_3  and  C_4
REMARK    4  A    between atoms: C_9  and  C_10
REMARK    5  A    between atoms: C_10  and  N_11
REMARK                            x       y       z     vdW  Elec       q    Type
REMARK                         _______ _______ _______ _____ _____    ______ ____
ROOT
ATOM      1  C   UNL     1       6.067   4.638  18.129  0.00  0.00    +0.000 A 
ATOM      2  C   UNL     1       5.084   4.893  19.097  0.00  0.00    +0.000 A 
ATOM      3  C   UNL     1       3.732   4.704  18.809  0.00  0.00    +0.000 A 
ATOM      4  C   UNL     1       3.351   4.292  17.543  0.00  0.00    +0.000 A 
ATOM      5  C   UNL     1       4.313   4.118  16.548  0.00  0.00    +0.000 A 
ATOM      6  C   UNL     1       5.682   4.308  16.820  0.00  0.00    +0.000 A 
ENDROOT
BRANCH   1   7
ATOM      7  O   UNL     1       7.412   4.700  18.405  0.00  0.00    +0.000 OA
BRANCH   7   9
ATOM      8  C   UNL     1       7.977   7.041  18.372  0.00  0.00    +0.000 C 
ATOM      9  C   UNL     1       7.798   5.805  19.232  0.00  0.00    +0.000 C 
ENDBRANCH   7   9
ENDBRANCH   1   7
BRANCH   6  10
ATOM     10  C   UNL     1       6.668   4.171  15.684  0.00  0.00    +0.000 C 
BRANCH  10  11
ATOM     11  N   UNL     1       7.338   5.436  15.389  0.00  0.00    +0.000 NA
ATOM     12  H   UNL     1       6.931   5.815  14.534  0.00  0.00    +0.000 HD
ATOM     13  H   UNL     1       8.317   5.248  15.182  0.00  0.00    +0.000 HD
ENDBRANCH  10  11
ENDBRANCH   6  10
TORSDOF 4
ENDMDL
MODEL 3
REMARK VINA RESULT:      -4.9      1.122      3.241
REMARK  Name = 
REMARK  5 active torsions:
REMARK  status: ('A' for Active; 'I' for Inactive)
REMARK    1  A    between atoms: C_1  and  C_2
REMARK    2  A    between atoms: C_2  and  O_3
REMARK    3  A    between atoms: O_3  and  C_4
REMARK    4  A    between atoms: C_9  and  C_10
REMARK    5  A    between atoms: C_10  and  N_11
REMARK                            x       y       z     vdW  Elec       q    Type
REMARK                         _______ _______ _______ _____ _____    ______ ____
ROOT
ATOM      1  C   UNL     1       3.824   4.007  19.233  0.00  0.00    +0.000 A 
ATOM      2  C   UNL     1       4.429   5.272  19.256  0.00  0.00    +0.000 A 
ATOM      3  C   UNL     1       4.862   5.880  18.078  0.00  0.00    +0.000 A 
ATOM      4  C   UNL     1       4.724   5.213  16.872  0.00  0.00    +0.000 A 
ATOM      5  C   UNL     1       4.201   3.921  16.846  0.00  0.00    +0.000 A 
ATOM      6  C   UNL     1       3.763   3.290  18.027  0.00  0.00    +0.000 A 
ENDROOT
BRANCH   1   7
ATOM      7  O   UNL     1       3.281   3.424  20.353  0.00  0.00    +0.000 OA
BRANCH   7   9
ATOM      8  C   UNL     1       0.920   3.896  20.347  0.00  0.00    +0.000 C 
ATOM      9  C   UNL     1       2.259   4.200  20.990  0.00  0.00    +0.000 C 
ENDBRANCH   7   9
ENDBRANCH   1   7
BRANCH   6  10
ATOM     10  C   UNL     1       3.271   1.865  17.943  0.00  0.00    +0.000 C 
BRANCH  10  11
ATOM     11  N   UNL     1       4.209   0.928  18.559  0.00  0.00    +0.000 NA
ATOM     12  H   UNL     1       3.854  -0.016  18.407  0.00  0.00    +0.000 HD
ATOM     13  H   UNL     1       4.206   1.076  19.566  0.00  0.00    +0.000 HD
ENDBRANCH  10  11
ENDBRANCH   6  10
TORSDOF 4
ENDMDL
MODEL 4
REMARK VINA RESULT:      -4.9      2.526      3.438
REMARK  Name = 
REMARK  5 active torsions:
REMARK  status: ('A' for Active; 'I' for Inactive)
REMARK    1  A    between atoms: C_1  and  C_2
REMARK    2  A    between atoms: C_2  and  O_3
REMARK    3  A    between atoms: O_3  and  C_4
REMARK    4  A    between atoms: C_9  and  C_10
REMARK    5  A    between atoms: C_10  and  N_11
REMARK                            x       y       z     vdW  Elec       q    Type
REMARK                         _______ _______ _______ _____ _____    ______ ____
ROOT
ATOM      1  C   UNL     1       1.752   3.990  18.712  0.00  0.00    +0.000 A 
ATOM      2  C   UNL     1       2.070   5.065  17.869  0.00  0.00    +0.000 A 
ATOM      3  C   UNL     1       2.396   6.315  18.396  0.00  0.00    +0.000 A 
ATOM      4  C   UNL     1       2.373   6.507  19.767  0.00  0.00    +0.000 A 
ATOM      5  C   UNL     1       1.977   5.470  20.610  0.00  0.00    +0.000 A 
ATOM      6  C   UNL     1       1.641   4.202  20.095  0.00  0.00    +0.000 A 
ENDROOT
BRANCH   1   7
ATOM      7  O   UNL     1       1.539   2.716  18.240  0.00  0.00    +0.000 OA
BRANCH   7   9
ATOM      8  C   UNL     1       3.581   1.478  18.546  0.00  0.00    +0.000 C 
ATOM      9  C   UNL     1       2.655   2.145  17.547  0.00  0.00    +0.000 C 
ENDBRANCH   7   9
ENDBRANCH   1   7
BRANCH   6  10
ATOM     10  C   UNL     1       1.153   3.142  21.053  0.00  0.00    +0.000 C 
BRANCH  10  11
ATOM     11  N   UNL     1       2.168   2.796  22.047  0.00  0.00    +0.000 NA
ATOM     12  H   UNL     1       3.038   3.254  21.778  0.00  0.00    +0.000 HD
ATOM     13  H   UNL     1       2.344   1.795  22.001  0.00  0.00    +0.000 HD
ENDBRANCH  10  11
ENDBRANCH   6  10
TORSDOF 4
ENDMDL
MODEL 5
REMARK VINA RESULT:      -4.8      2.019      2.509
REMARK  Name = 
REMARK  5 active torsions:
REMARK  status: ('A' for Active; 'I' for Inactive)
REMARK    1  A    between atoms: C_1  and  C_2
REMARK    2  A    between atoms: C_2  and  O_3
REMARK    3  A    between atoms: O_3  and  C_4
REMARK    4  A    between atoms: C_9  and  C_10
REMARK    5  A    between atoms: C_10  and  N_11
REMARK                            x       y       z     vdW  Elec       q    Type
REMARK                         _______ _______ _______ _____ _____    ______ ____
ROOT
ATOM      1  C   UNL     1       2.638   4.532  19.412  0.00  0.00    +0.000 A 
ATOM      2  C   UNL     1       1.367   4.241  19.929  0.00  0.00    +0.000 A 
ATOM      3  C   UNL     1       0.761   3.009  19.684  0.00  0.00    +0.000 A 
ATOM      4  C   UNL     1       1.405   2.072  18.893  0.00  0.00    +0.000 A 
ATOM      5  C   UNL     1       2.631   2.383  18.304  0.00  0.00    +0.000 A 
ATOM      6  C   UNL     1       3.256   3.623  18.538  0.00  0.00    +0.000 A 
ENDROOT
BRANCH   1   7
ATOM      7  O   UNL     1       3.319   5.685  19.724  0.00  0.00    +0.000 OA
BRANCH   7   9
ATOM      8  C   UNL     1       2.732   7.393  18.132  0.00  0.00    +0.000 C 
ATOM      9  C   UNL     1       2.560   6.887  19.551  0.00  0.00    +0.000 C 
ENDBRANCH   7   9
ENDBRANCH   1   7
BRANCH   6  10
ATOM     10  C   UNL     1       4.547   3.926  17.816  0.00  0.00    +0.000 C 
BRANCH  10  11
ATOM     11  N   UNL     1       5.703   3.841  18.708  0.00  0.00    +0.000 NA
ATOM     12  H   UNL     1       6.012   2.869  18.728  0.00  0.00    +0.000 HD
ATOM     13  H   UNL     1       5.404   4.067  19.654  0.00  0.00    +0.000 HD
ENDBRANCH  10  11
ENDBRANCH   6  10
TORSDOF 4
ENDMDL
MODEL 6
REMARK VINA RESULT:      -4.8      1.135      1.187
REMARK  Name = 
REMARK  5 active torsions:
REMARK  status: ('A' for Active; 'I' for Inactive)
REMARK    1  A    between atoms: C_1  and  C_2
REMARK    2  A    between atoms: C_2  and  O_3
REMARK    3  A    between atoms: O_3  and  C_4
REMARK    4  A    between atoms: C_9  and  C_10
REMARK    5  A    between atoms: C_10  and  N_11
REMARK                            x       y       z     vdW  Elec       q    Type
REMARK                         _______ _______ _______ _____ _____    ______ ____
ROOT
ATOM      1  C   UNL     1       3.687   4.449  19.524  0.00  0.00    +0.000 A 
ATOM      2  C   UNL     1       2.915   5.569  19.865  0.00  0.00    +0.000 A 
ATOM      3  C   UNL     1       1.658   5.420  20.451  0.00  0.00    +0.000 A 
ATOM      4  C   UNL     1       1.150   4.150  20.670  0.00  0.00    +0.000 A 
ATOM      5  C   UNL     1       1.872   3.030  20.258  0.00  0.00    +0.000 A 
ATOM      6  C   UNL     1       3.141   3.162  19.661  0.00  0.00    +0.000 A 
ENDROOT
BRANCH   1   7
ATOM      7  O   UNL     1       4.975   4.552  19.053  0.00  0.00    +0.000 OA
BRANCH   7   9
ATOM      8  C   UNL     1       4.872   4.531  16.648  0.00  0.00    +0.000 C 
ATOM      9  C   UNL     1       5.116   5.371  17.886  0.00  0.00    +0.000 C 
ENDBRANCH   7   9
ENDBRANCH   1   7
BRANCH   6  10
ATOM     10  C   UNL     1       3.842   1.917  19.175  0.00  0.00    +0.000 C 
BRANCH  10  11
ATOM     11  N   UNL     1       5.097   1.684  19.887  0.00  0.00    +0.000 NA
ATOM     12  H   UNL     1       5.054   0.754  20.302  0.00  0.00    +0.000 HD
ATOM     13  H   UNL     1       5.162   2.341  20.661  0.00  0.00    +0.000 HD
ENDBRANCH  10  11
ENDBRANCH   6  10
TORSDOF 4
ENDMDL
MODEL 7
REMARK VINA RESULT:      -4.7      2.851      4.992
REMARK  Name = 
REMARK  5 active torsions:
REMARK  status: ('A' for Active; 'I' for Inactive)
REMARK    1  A    between atoms: C_1  and  C_2
REMARK    2  A    between atoms: C_2  and  O_3
REMARK    3  A    between atoms: O_3  and  C_4
REMARK    4  A    between atoms: C_9  and  C_10
REMARK    5  A    between atoms: C_10  and  N_11
REMARK                            x       y       z     vdW  Elec       q    Type
REMARK                         _______ _______ _______ _____ _____    ______ ____
ROOT
ATOM      1  C   UNL     1       5.406   5.168  18.173  0.00  0.00    +0.000 A 
ATOM      2  C   UNL     1       4.594   4.598  17.182  0.00  0.00    +0.000 A 
ATOM      3  C   UNL     1       5.153   4.058  16.023  0.00  0.00    +0.000 A 
ATOM      4  C   UNL     1       6.523   4.114  15.832  0.00  0.00    +0.000 A 
ATOM      5  C   UNL     1       7.332   4.754  16.771  0.00  0.00    +0.000 A 
ATOM      6  C   UNL     1       6.785   5.308  17.945  0.00  0.00    +0.000 A 
ENDROOT
BRANCH   1   7
ATOM      7  O   UNL     1       4.909   5.606  19.378  0.00  0.00    +0.000 OA
BRANCH   7   9
ATOM      8  C   UNL     1       2.647   6.379  19.667  0.00  0.00    +0.000 C 
ATOM      9  C   UNL     1       3.571   5.176  19.659  0.00  0.00    +0.000 C 
ENDBRANCH   7   9
ENDBRANCH   1   7
BRANCH   6  10
ATOM     10  C   UNL     1       7.703   6.048  18.888  0.00  0.00    +0.000 C 
BRANCH  10  11
ATOM     11  N   UNL     1       7.801   5.384  20.186  0.00  0.00    +0.000 NA
ATOM     12  H   UNL     1       8.214   6.043  20.845  0.00  0.00    +0.000 HD
ATOM     13  H   UNL     1       8.454   4.608  20.109  0.00  0.00    +0.000 HD
ENDBRANCH  10  11
ENDBRANCH   6  10
TORSDOF 4
ENDMDL
MODEL 8
REMARK VINA RESULT:      -4.7      1.563      1.964
REMARK  Name = 
REMARK  5 active torsions:
REMARK  status: ('A' for Active; 'I' for Inactive)
REMARK    1  A    between atoms: C_1  and  C_2
REMARK    2  A    between atoms: C_2  and  O_3
REMARK    3  A    between atoms: O_3  and  C_4
REMARK    4  A    between atoms: C_9  and  C_10
REMARK    5  A    between atoms: C_10  and  N_11
REMARK                            x       y       z     vdW  Elec       q    Type
REMARK                         _______ _______ _______ _____ _____    ______ ____
ROOT
ATOM      1  C   UNL     1       4.297   3.996  18.894  0.00  0.00    +0.000 A 
ATOM      2  C   UNL     1       3.685   4.752  17.883  0.00  0.00    +0.000 A 
ATOM      3  C   UNL     1       2.298   4.767  17.742  0.00  0.00    +0.000 A 
ATOM      4  C   UNL     1       1.514   4.000  18.587  0.00  0.00    +0.000 A 
ATOM      5  C   UNL     1       2.116   3.179  19.541  0.00  0.00    +0.000 A 
ATOM      6  C   UNL     1       3.515   3.149  19.695  0.00  0.00    +0.000 A 
ENDROOT
BRANCH   1   7
ATOM      7  O   UNL     1       5.649   4.044  19.140  0.00  0.00    +0.000 OA
BRANCH   7   9
ATOM      8  C   UNL     1       7.515   5.396  18.444  0.00  0.00    +0.000 C 
ATOM      9  C   UNL     1       6.196   5.367  19.192  0.00  0.00    +0.000 C 
ENDBRANCH   7   9
ENDBRANCH   1   7
BRANCH   6  10
ATOM     10  C   UNL     1       4.109   2.188  20.697  0.00  0.00    +0.000 C 
BRANCH  10  11
ATOM     11  N   UNL     1       5.224   1.430  20.132  0.00  0.00    +0.000 NA
ATOM     12  H   UNL     1       5.819   1.127  20.902  0.00  0.00    +0.000 HD
ATOM     13  H   UNL     1       5.789   2.055  19.561  0.00  0.00    +0.000 HD
ENDBRANCH  10  11
ENDBRANCH   6  10
TORSDOF 4
ENDMDL
MODEL 9
REMARK VINA RESULT:      -4.7      1.868      3.582
REMARK  Name = 
REMARK  5 active torsions:
REMARK  status: ('A' for Active; 'I' for Inactive)
REMARK    1  A    between atoms: C_1  and  C_2
REMARK    2  A    between atoms: C_2  and  O_3
REMARK    3  A    between atoms: O_3  and  C_4
REMARK    4  A    between atoms: C_9  and  C_10
REMARK    5  A    between atoms: C_10  and  N_11
REMARK                            x       y       z     vdW  Elec       q    Type
REMARK                         _______ _______ _______ _____ _____    ______ ____
ROOT
ATOM      1  C   UNL     1       2.390   4.476  18.424  0.00  0.00    +0.000 A 
ATOM      2  C   UNL     1       2.449   5.874  18.524  0.00  0.00    +0.000 A 
ATOM      3  C   UNL     1       3.436   6.598  17.855  0.00  0.00    +0.000 A 
ATOM      4  C   UNL     1       4.390   5.927  17.108  0.00  0.00    +0.000 A 
ATOM      5  C   UNL     1       4.392   4.533  17.070  0.00  0.00    +0.000 A 
ATOM      6  C   UNL     1       3.406   3.786  17.743  0.00  0.00    +0.000 A 
ENDROOT
BRANCH   1   7
ATOM      7  O   UNL     1       1.369   3.736  18.972  0.00  0.00    +0.000 OA
BRANCH   7   9
ATOM      8  C   UNL     1       1.375   2.898  21.229  0.00  0.00    +0.000 C 
ATOM      9  C   UNL     1       1.052   4.074  20.327  0.00  0.00    +0.000 C 
ENDBRANCH   7   9
ENDBRANCH   1   7
BRANCH   6  10
ATOM     10  C   UNL     1       3.503   2.280  17.720  0.00  0.00    +0.000 C 
BRANCH  10  11
ATOM     11  N   UNL     1       4.022   1.748  18.979  0.00  0.00    +0.000 NA
ATOM     12  H   UNL     1       3.228   1.554  19.589  0.00  0.00    +0.000 HD
ATOM     13  H   UNL     1       4.567   2.473  19.441  0.00  0.00    +0.000 HD
ENDBRANCH  10  11
ENDBRANCH   6  10
TORSDOF 4
ENDMDL
