MODEL 1
REMARK VINA RESULT:      -8.0      0.000      0.000
REMARK  Name = 
REMARK  4 active torsions:
REMARK  status: ('A' for Active; 'I' for Inactive)
REMARK    1  A    between atoms: N_3  and  C_4
REMARK    2  A    between atoms: N_10  and  C_11
REMARK    3  A    between atoms: C_15  and  N_16
REMARK    4  A    between atoms: C_17  and  C_19
REMARK                            x       y       z     vdW  Elec       q    Type
REMARK                         _______ _______ _______ _____ _____    ______ ____
ROOT
ATOM      1  C   UNL     1       6.691   6.935  16.831  0.00  0.00    +0.000 A 
ATOM      2  C   UNL     1       7.294   6.067  15.916  0.00  0.00    +0.000 A 
ATOM      3  C   UNL     1       6.894   4.741  15.815  0.00  0.00    +0.000 A 
ATOM      4  C   UNL     1       5.872   4.266  16.626  0.00  0.00    +0.000 A 
ATOM      5  C   UNL     1       5.223   5.109  17.531  0.00  0.00    +0.000 A 
ATOM      6  C   UNL     1       5.615   6.459  17.604  0.00  0.00    +0.000 A 
ENDROOT
BRANCH   1  10
ATOM      7  O   UNL     1       8.733   7.846  18.663  0.00  0.00    +0.000 OA
ATOM      8  C   UNL     1       8.138   8.632  17.938  0.00  0.00    +0.000 C 
ATOM      9  N   UNL     1       8.351  10.002  17.973  0.00  0.00    +0.000 N 
ATOM     10  N   UNL     1       7.150   8.266  17.028  0.00  0.00    +0.000 N 
ATOM     11  H   UNL     1       7.668  10.591  17.527  0.00  0.00    +0.000 HD
ATOM     12  H   UNL     1       6.607   9.003  16.608  0.00  0.00    +0.000 HD
BRANCH   9  13
ATOM     13  C   UNL     1       9.299  10.651  18.809  0.00  0.00    +0.000 A 
ATOM     14  C   UNL     1       9.059  10.949  20.156  0.00  0.00    +0.000 A 
ATOM     15  C   UNL     1      10.005  11.629  20.925  0.00  0.00    +0.000 A 
ATOM     16  C   UNL     1      11.215  12.011  20.360  0.00  0.00    +0.000 A 
ATOM     17  C   UNL     1      11.481  11.700  19.027  0.00  0.00    +0.000 A 
ATOM     18  C   UNL     1      10.532  11.015  18.257  0.00  0.00    +0.000 A 
ENDBRANCH   9  13
ENDBRANCH   1  10
BRANCH   5  19
ATOM     19  N   UNL     1       4.198   4.639  18.383  0.00  0.00    +0.000 N 
ATOM     20  C   UNL     1       4.333   3.645  19.343  0.00  0.00    +0.000 C 
ATOM     21  O   UNL     1       5.362   3.039  19.631  0.00  0.00    +0.000 OA
ATOM     22  H   UNL     1       3.295   5.104  18.369  0.00  0.00    +0.000 HD
BRANCH  20  23
ATOM     23  C   UNL     1       3.093   3.336  20.118  0.00  0.00    +0.000 A 
ATOM     24  C   UNL     1       1.861   3.711  19.588  0.00  0.00    +0.000 A 
ATOM     25  C   UNL     1       0.709   3.385  20.294  0.00  0.00    +0.000 A 
ATOM     26  C   UNL     1       0.829   2.708  21.500  0.00  0.00    +0.000 A 
ATOM     27  C   UNL     1       2.100   2.385  21.959  0.00  0.00    +0.000 A 
ATOM     28  N   UNL     1       3.245   2.676  21.300  0.00  0.00    +0.000 NA
ENDBRANCH  20  23
ENDBRANCH   5  19
TORSDOF 4
ENDMDL
MODEL 2
REMARK VINA RESULT:      -8.0      5.002      7.202
REMARK  Name = 
REMARK  4 active torsions:
REMARK  status: ('A' for Active; 'I' for Inactive)
REMARK    1  A    between atoms: N_3  and  C_4
REMARK    2  A    between atoms: N_10  and  C_11
REMARK    3  A    between atoms: C_15  and  N_16
REMARK    4  A    between atoms: C_17  and  C_19
REMARK                            x       y       z     vdW  Elec       q    Type
REMARK                         _______ _______ _______ _____ _____    ______ ____
ROOT
ATOM      1  C   UNL     1       4.198   3.901  19.264  0.00  0.00    +0.000 A 
ATOM      2  C   UNL     1       3.778   2.739  19.918  0.00  0.00    +0.000 A 
ATOM      3  C   UNL     1       2.772   2.778  20.874  0.00  0.00    +0.000 A 
ATOM      4  C   UNL     1       2.162   3.986  21.183  0.00  0.00    +0.000 A 
ATOM      5  C   UNL     1       2.532   5.165  20.531  0.00  0.00    +0.000 A 
ATOM      6  C   UNL     1       3.531   5.110  19.541  0.00  0.00    +0.000 A 
ENDROOT
BRANCH   1  10
ATOM      7  O   UNL     1       4.122   4.280  16.400  0.00  0.00    +0.000 OA
ATOM      8  C   UNL     1       5.180   4.091  16.984  0.00  0.00    +0.000 C 
ATOM      9  N   UNL     1       6.397   3.990  16.328  0.00  0.00    +0.000 N 
ATOM     10  N   UNL     1       5.295   3.907  18.359  0.00  0.00    +0.000 N 
ATOM     11  H   UNL     1       7.173   3.603  16.841  0.00  0.00    +0.000 HD
ATOM     12  H   UNL     1       6.182   3.589  18.714  0.00  0.00    +0.000 HD
BRANCH   9  13
ATOM     13  C   UNL     1       6.574   4.133  14.926  0.00  0.00    +0.000 A 
ATOM     14  C   UNL     1       5.901   3.348  13.982  0.00  0.00    +0.000 A 
ATOM     15  C   UNL     1       6.142   3.497  12.614  0.00  0.00    +0.000 A 
ATOM     16  C   UNL     1       7.055   4.445  12.169  0.00  0.00    +0.000 A 
ATOM     17  C   UNL     1       7.715   5.252  13.094  0.00  0.00    +0.000 A 
ATOM     18  C   UNL     1       7.470   5.104  14.465  0.00  0.00    +0.000 A 
ENDBRANCH   9  13
ENDBRANCH   1  10
BRANCH   5  19
ATOM     19  N   UNL     1       1.941   6.409  20.849  0.00  0.00    +0.000 N 
ATOM     20  C   UNL     1       1.882   7.516  20.014  0.00  0.00    +0.000 C 
ATOM     21  O   UNL     1       2.298   7.588  18.861  0.00  0.00    +0.000 OA
ATOM     22  H   UNL     1       1.441   6.506  21.728  0.00  0.00    +0.000 HD
BRANCH  20  23
ATOM     23  C   UNL     1       1.197   8.713  20.591  0.00  0.00    +0.000 A 
ATOM     24  C   UNL     1       0.802   8.680  21.926  0.00  0.00    +0.000 A 
ATOM     25  C   UNL     1       0.202   9.810  22.468  0.00  0.00    +0.000 A 
ATOM     26  C   UNL     1       0.010  10.923  21.660  0.00  0.00    +0.000 A 
ATOM     27  C   UNL     1       0.423  10.861  20.334  0.00  0.00    +0.000 A 
ATOM     28  N   UNL     1       1.018   9.786  19.770  0.00  0.00    +0.000 NA
ENDBRANCH  20  23
ENDBRANCH   5  19
TORSDOF 4
ENDMDL
MODEL 3
REMARK VINA RESULT:      -8.0      5.026      7.740
REMARK  Name = 
REMARK  4 active torsions:
REMARK  status: ('A' for Active; 'I' for Inactive)
REMARK    1  A    between atoms: N_3  and  C_4
REMARK    2  A    between atoms: N_10  and  C_11
REMARK    3  A    between atoms: C_15  and  N_16
REMARK    4  A    between atoms: C_17  and  C_19
REMARK                            x       y       z     vdW  Elec       q    Type
REMARK                         _______ _______ _______ _____ _____    ______ ____
ROOT
ATOM      1  C   UNL     1       3.434   4.612  19.540  0.00  0.00    +0.000 A 
ATOM      2  C   UNL     1       3.143   3.314  19.968  0.00  0.00    +0.000 A 
ATOM      3  C   UNL     1       3.455   2.213  19.180  0.00  0.00    +0.000 A 
ATOM      4  C   UNL     1       4.075   2.398  17.952  0.00  0.00    +0.000 A 
ATOM      5  C   UNL     1       4.410   3.677  17.502  0.00  0.00    +0.000 A 
ATOM      6  C   UNL     1       4.118   4.784  18.321  0.00  0.00    +0.000 A 
ENDROOT
BRANCH   1  10
ATOM      7  O   UNL     1       1.644   6.718  18.694  0.00  0.00    +0.000 OA
ATOM      8  C   UNL     1       2.168   6.741  19.800  0.00  0.00    +0.000 C 
ATOM      9  N   UNL     1       1.994   7.782  20.697  0.00  0.00    +0.000 N 
ATOM     10  N   UNL     1       3.034   5.760  20.277  0.00  0.00    +0.000 N 
ATOM     11  H   UNL     1       2.634   7.842  21.472  0.00  0.00    +0.000 HD
ATOM     12  H   UNL     1       3.541   5.959  21.124  0.00  0.00    +0.000 HD
BRANCH   9  13
ATOM     13  C   UNL     1       1.166   8.915  20.470  0.00  0.00    +0.000 A 
ATOM     14  C   UNL     1       1.179   9.649  19.277  0.00  0.00    +0.000 A 
ATOM     15  C   UNL     1       0.378  10.782  19.119  0.00  0.00    +0.000 A 
ATOM     16  C   UNL     1      -0.458  11.192  20.149  0.00  0.00    +0.000 A 
ATOM     17  C   UNL     1      -0.502  10.458  21.334  0.00  0.00    +0.000 A 
ATOM     18  C   UNL     1       0.299   9.320  21.491  0.00  0.00    +0.000 A 
ENDBRANCH   9  13
ENDBRANCH   1  10
BRANCH   5  19
ATOM     19  N   UNL     1       5.018   3.889  16.244  0.00  0.00    +0.000 N 
ATOM     20  C   UNL     1       6.347   4.227  16.031  0.00  0.00    +0.000 C 
ATOM     21  O   UNL     1       7.215   4.364  16.889  0.00  0.00    +0.000 OA
ATOM     22  H   UNL     1       4.479   3.710  15.401  0.00  0.00    +0.000 HD
BRANCH  20  23
ATOM     23  C   UNL     1       6.741   4.390  14.598  0.00  0.00    +0.000 A 
ATOM     24  C   UNL     1       6.111   3.606  13.637  0.00  0.00    +0.000 A 
ATOM     25  C   UNL     1       6.452   3.791  12.303  0.00  0.00    +0.000 A 
ATOM     26  C   UNL     1       7.413   4.740  11.979  0.00  0.00    +0.000 A 
ATOM     27  C   UNL     1       8.001   5.468  13.007  0.00  0.00    +0.000 A 
ATOM     28  N   UNL     1       7.691   5.326  14.316  0.00  0.00    +0.000 NA
ENDBRANCH  20  23
ENDBRANCH   5  19
TORSDOF 4
ENDMDL
MODEL 4
REMARK VINA RESULT:      -7.8      0.899      1.315
REMARK  Name = 
REMARK  4 active torsions:
REMARK  status: ('A' for Active; 'I' for Inactive)
REMARK    1  A    between atoms: N_3  and  C_4
REMARK    2  A    between atoms: N_10  and  C_11
REMARK    3  A    between atoms: C_15  and  N_16
REMARK    4  A    between atoms: C_17  and  C_19
REMARK                            x       y       z     vdW  Elec       q    Type
REMARK                         _______ _______ _______ _____ _____    ______ ____
ROOT
ATOM      1  C   UNL     1       6.845   6.885  16.898  0.00  0.00    +0.000 A 
ATOM      2  C   UNL     1       7.384   6.076  15.894  0.00  0.00    +0.000 A 
ATOM      3  C   UNL     1       7.048   4.732  15.799  0.00  0.00    +0.000 A 
ATOM      4  C   UNL     1       6.155   4.179  16.707  0.00  0.00    +0.000 A 
ATOM      5  C   UNL     1       5.571   4.961  17.707  0.00  0.00    +0.000 A 
ATOM      6  C   UNL     1       5.894   6.329  17.775  0.00  0.00    +0.000 A 
ENDROOT
BRANCH   1  10
ATOM      7  O   UNL     1       8.837   7.898  18.732  0.00  0.00    +0.000 OA
ATOM      8  C   UNL     1       8.217   8.651  17.993  0.00  0.00    +0.000 C 
ATOM      9  N   UNL     1       8.375  10.028  18.013  0.00  0.00    +0.000 N 
ATOM     10  N   UNL     1       7.250   8.236  17.082  0.00  0.00    +0.000 N 
ATOM     11  H   UNL     1       7.673  10.585  17.555  0.00  0.00    +0.000 HD
ATOM     12  H   UNL     1       6.681   8.946  16.650  0.00  0.00    +0.000 HD
BRANCH   9  13
ATOM     13  C   UNL     1       9.292  10.724  18.847  0.00  0.00    +0.000 A 
ATOM     14  C   UNL     1      10.548  11.164  18.410  0.00  0.00    +0.000 A 
ATOM     15  C   UNL     1      11.432  11.805  19.280  0.00  0.00    +0.000 A 
ATOM     16  C   UNL     1      11.066  12.027  20.602  0.00  0.00    +0.000 A 
ATOM     17  C   UNL     1       9.810  11.618  21.048  0.00  0.00    +0.000 A 
ATOM     18  C   UNL     1       8.923  10.978  20.172  0.00  0.00    +0.000 A 
ENDBRANCH   9  13
ENDBRANCH   1  10
BRANCH   5  19
ATOM     19  N   UNL     1       4.680   4.412  18.657  0.00  0.00    +0.000 N 
ATOM     20  C   UNL     1       3.310   4.261  18.491  0.00  0.00    +0.000 C 
ATOM     21  O   UNL     1       2.656   4.544  17.490  0.00  0.00    +0.000 OA
ATOM     22  H   UNL     1       5.056   4.014  19.512  0.00  0.00    +0.000 HD
BRANCH  20  23
ATOM     23  C   UNL     1       2.593   3.646  19.650  0.00  0.00    +0.000 A 
ATOM     24  C   UNL     1       1.201   3.682  19.672  0.00  0.00    +0.000 A 
ATOM     25  C   UNL     1       0.539   3.074  20.732  0.00  0.00    +0.000 A 
ATOM     26  C   UNL     1       1.287   2.463  21.730  0.00  0.00    +0.000 A 
ATOM     27  C   UNL     1       2.674   2.489  21.633  0.00  0.00    +0.000 A 
ATOM     28  N   UNL     1       3.356   3.062  20.616  0.00  0.00    +0.000 NA
ENDBRANCH  20  23
ENDBRANCH   5  19
TORSDOF 4
ENDMDL
MODEL 5
REMARK VINA RESULT:      -7.6      4.946      8.081
REMARK  Name = 
REMARK  4 active torsions:
REMARK  status: ('A' for Active; 'I' for Inactive)
REMARK    1  A    between atoms: N_3  and  C_4
REMARK    2  A    between atoms: N_10  and  C_11
REMARK    3  A    between atoms: C_15  and  N_16
REMARK    4  A    between atoms: C_17  and  C_19
REMARK                            x       y       z     vdW  Elec       q    Type
REMARK                         _______ _______ _______ _____ _____    ______ ____
ROOT
ATOM      1  C   UNL     1       2.914   6.599  18.902  0.00  0.00    +0.000 A 
ATOM      2  C   UNL     1       2.825   5.597  19.872  0.00  0.00    +0.000 A 
ATOM      3  C   UNL     1       3.369   4.338  19.654  0.00  0.00    +0.000 A 
ATOM      4  C   UNL     1       4.022   4.066  18.460  0.00  0.00    +0.000 A 
ATOM      5  C   UNL     1       4.159   5.050  17.477  0.00  0.00    +0.000 A 
ATOM      6  C   UNL     1       3.631   6.332  17.720  0.00  0.00    +0.000 A 
ENDROOT
BRANCH   1  10
ATOM      7  O   UNL     1       1.339   7.522  21.143  0.00  0.00    +0.000 OA
ATOM      8  C   UNL     1       1.525   8.235  20.166  0.00  0.00    +0.000 C 
ATOM      9  N   UNL     1       0.964   9.495  20.031  0.00  0.00    +0.000 N 
ATOM     10  N   UNL     1       2.277   7.861  19.055  0.00  0.00    +0.000 N 
ATOM     11  H   UNL     1       0.969   9.913  19.115  0.00  0.00    +0.000 HD
ATOM     12  H   UNL     1       2.225   8.449  18.238  0.00  0.00    +0.000 HD
BRANCH   9  13
ATOM     13  C   UNL     1       0.151  10.126  21.010  0.00  0.00    +0.000 A 
ATOM     14  C   UNL     1       0.017   9.650  22.321  0.00  0.00    +0.000 A 
ATOM     15  C   UNL     1      -0.830  10.281  23.235  0.00  0.00    +0.000 A 
ATOM     16  C   UNL     1      -1.548  11.407  22.854  0.00  0.00    +0.000 A 
ATOM     17  C   UNL     1      -1.408  11.909  21.561  0.00  0.00    +0.000 A 
ATOM     18  C   UNL     1      -0.555  11.278  20.646  0.00  0.00    +0.000 A 
ENDBRANCH   9  13
ENDBRANCH   1  10
BRANCH   5  19
ATOM     19  N   UNL     1       4.797   4.787  16.244  0.00  0.00    +0.000 N 
ATOM     20  C   UNL     1       6.004   5.330  15.823  0.00  0.00    +0.000 C 
ATOM     21  O   UNL     1       6.725   6.094  16.457  0.00  0.00    +0.000 OA
ATOM     22  H   UNL     1       4.402   4.085  15.625  0.00  0.00    +0.000 HD
BRANCH  20  23
ATOM     23  C   UNL     1       6.465   4.884  14.472  0.00  0.00    +0.000 A 
ATOM     24  C   UNL     1       5.738   3.901  13.807  0.00  0.00    +0.000 A 
ATOM     25  C   UNL     1       6.148   3.519  12.535  0.00  0.00    +0.000 A 
ATOM     26  C   UNL     1       7.269   4.123  11.981  0.00  0.00    +0.000 A 
ATOM     27  C   UNL     1       7.942   5.086  12.724  0.00  0.00    +0.000 A 
ATOM     28  N   UNL     1       7.572   5.491  13.960  0.00  0.00    +0.000 NA
ENDBRANCH  20  23
ENDBRANCH   5  19
TORSDOF 4
ENDMDL
MODEL 6
REMARK VINA RESULT:      -7.5      1.217      1.688
REMARK  Name = 
REMARK  4 active torsions:
REMARK  status: ('A' for Active; 'I' for Inactive)
REMARK    1  A    between atoms: N_3  and  C_4
REMARK    2  A    between atoms: N_10  and  C_11
REMARK    3  A    between atoms: C_15  and  N_16
REMARK    4  A    between atoms: C_17  and  C_19
REMARK                            x       y       z     vdW  Elec       q    Type
REMARK                         _______ _______ _______ _____ _____    ______ ____
ROOT
ATOM      1  C   UNL     1       7.335   6.616  17.502  0.00  0.00    +0.000 A 
ATOM      2  C   UNL     1       7.632   6.308  16.171  0.00  0.00    +0.000 A 
ATOM      3  C   UNL     1       6.808   5.473  15.428  0.00  0.00    +0.000 A 
ATOM      4  C   UNL     1       5.665   4.940  16.007  0.00  0.00    +0.000 A 
ATOM      5  C   UNL     1       5.316   5.248  17.325  0.00  0.00    +0.000 A 
ATOM      6  C   UNL     1       6.141   6.120  18.059  0.00  0.00    +0.000 A 
ENDROOT
BRANCH   1  10
ATOM      7  O   UNL     1       7.624   9.492  17.568  0.00  0.00    +0.000 OA
ATOM      8  C   UNL     1       8.302   8.772  18.289  0.00  0.00    +0.000 C 
ATOM      9  N   UNL     1       9.282   9.261  19.138  0.00  0.00    +0.000 N 
ATOM     10  N   UNL     1       8.213   7.383  18.316  0.00  0.00    +0.000 N 
ATOM     11  H   UNL     1       9.946   8.604  19.513  0.00  0.00    +0.000 HD
ATOM     12  H   UNL     1       8.930   6.880  18.814  0.00  0.00    +0.000 HD
BRANCH   9  13
ATOM     13  C   UNL     1       9.589  10.638  19.309  0.00  0.00    +0.000 A 
ATOM     14  C   UNL     1      10.123  11.439  18.292  0.00  0.00    +0.000 A 
ATOM     15  C   UNL     1      10.450  12.777  18.522  0.00  0.00    +0.000 A 
ATOM     16  C   UNL     1      10.236  13.339  19.774  0.00  0.00    +0.000 A 
ATOM     17  C   UNL     1       9.682  12.563  20.792  0.00  0.00    +0.000 A 
ATOM     18  C   UNL     1       9.351  11.222  20.558  0.00  0.00    +0.000 A 
ENDBRANCH   9  13
ENDBRANCH   1  10
BRANCH   5  19
ATOM     19  N   UNL     1       4.171   4.696  17.941  0.00  0.00    +0.000 N 
ATOM     20  C   UNL     1       4.170   3.691  18.899  0.00  0.00    +0.000 C 
ATOM     21  O   UNL     1       5.154   3.145  19.390  0.00  0.00    +0.000 OA
ATOM     22  H   UNL     1       3.261   5.102  17.743  0.00  0.00    +0.000 HD
BRANCH  20  23
ATOM     23  C   UNL     1       2.819   3.287  19.396  0.00  0.00    +0.000 A 
ATOM     24  C   UNL     1       2.538   3.416  20.753  0.00  0.00    +0.000 A 
ATOM     25  C   UNL     1       1.268   3.077  21.202  0.00  0.00    +0.000 A 
ATOM     26  C   UNL     1       0.332   2.614  20.286  0.00  0.00    +0.000 A 
ATOM     27  C   UNL     1       0.705   2.503  18.952  0.00  0.00    +0.000 A 
ATOM     28  N   UNL     1       1.927   2.830  18.473  0.00  0.00    +0.000 NA
ENDBRANCH  20  23
ENDBRANCH   5  19
TORSDOF 4
ENDMDL
MODEL 7
REMARK VINA RESULT:      -7.4      1.197      1.404
REMARK  Name = 
REMARK  4 active torsions:
REMARK  status: ('A' for Active; 'I' for Inactive)
REMARK    1  A    between atoms: N_3  and  C_4
REMARK    2  A    between atoms: N_10  and  C_11
REMARK    3  A    between atoms: C_15  and  N_16
REMARK    4  A    between atoms: C_17  and  C_19
REMARK                            x       y       z     vdW  Elec       q    Type
REMARK                         _______ _______ _______ _____ _____    ______ ____
ROOT
ATOM      1  C   UNL     1       7.335   6.630  17.586  0.00  0.00    +0.000 A 
ATOM      2  C   UNL     1       7.580   6.306  16.248  0.00  0.00    +0.000 A 
ATOM      3  C   UNL     1       6.734   5.453  15.551  0.00  0.00    +0.000 A 
ATOM      4  C   UNL     1       5.621   4.918  16.184  0.00  0.00    +0.000 A 
ATOM      5  C   UNL     1       5.324   5.241  17.511  0.00  0.00    +0.000 A 
ATOM      6  C   UNL     1       6.171   6.131  18.199  0.00  0.00    +0.000 A 
ENDROOT
BRANCH   1  10
ATOM      7  O   UNL     1       7.560   9.512  17.645  0.00  0.00    +0.000 OA
ATOM      8  C   UNL     1       8.293   8.807  18.324  0.00  0.00    +0.000 C 
ATOM      9  N   UNL     1       9.307   9.318  19.120  0.00  0.00    +0.000 N 
ATOM     10  N   UNL     1       8.239   7.416  18.352  0.00  0.00    +0.000 N 
ATOM     11  H   UNL     1      10.006   8.675  19.455  0.00  0.00    +0.000 HD
ATOM     12  H   UNL     1       8.994   6.929  18.808  0.00  0.00    +0.000 HD
BRANCH   9  13
ATOM     13  C   UNL     1       9.591  10.701  19.278  0.00  0.00    +0.000 A 
ATOM     14  C   UNL     1       9.308  11.415  20.449  0.00  0.00    +0.000 A 
ATOM     15  C   UNL     1       9.564  12.784  20.540  0.00  0.00    +0.000 A 
ATOM     16  C   UNL     1      10.120  13.460  19.461  0.00  0.00    +0.000 A 
ATOM     17  C   UNL     1      10.431  12.760  18.296  0.00  0.00    +0.000 A 
ATOM     18  C   UNL     1      10.177  11.386  18.208  0.00  0.00    +0.000 A 
ENDBRANCH   9  13
ENDBRANCH   1  10
BRANCH   5  19
ATOM     19  N   UNL     1       4.211   4.687  18.182  0.00  0.00    +0.000 N 
ATOM     20  C   UNL     1       4.260   3.697  19.154  0.00  0.00    +0.000 C 
ATOM     21  O   UNL     1       5.269   3.168  19.613  0.00  0.00    +0.000 OA
ATOM     22  H   UNL     1       3.289   5.081  18.015  0.00  0.00    +0.000 HD
BRANCH  20  23
ATOM     23  C   UNL     1       2.935   3.287  19.712  0.00  0.00    +0.000 A 
ATOM     24  C   UNL     1       2.838   3.005  21.071  0.00  0.00    +0.000 A 
ATOM     25  C   UNL     1       1.596   2.663  21.591  0.00  0.00    +0.000 A 
ATOM     26  C   UNL     1       0.502   2.607  20.737  0.00  0.00    +0.000 A 
ATOM     27  C   UNL     1       0.694   2.891  19.390  0.00  0.00    +0.000 A 
ATOM     28  N   UNL     1       1.883   3.235  18.846  0.00  0.00    +0.000 NA
ENDBRANCH  20  23
ENDBRANCH   5  19
TORSDOF 4
ENDMDL
MODEL 8
REMARK VINA RESULT:      -7.4      8.155     10.066
REMARK  Name = 
REMARK  4 active torsions:
REMARK  status: ('A' for Active; 'I' for Inactive)
REMARK    1  A    between atoms: N_3  and  C_4
REMARK    2  A    between atoms: N_10  and  C_11
REMARK    3  A    between atoms: C_15  and  N_16
REMARK    4  A    between atoms: C_17  and  C_19
REMARK                            x       y       z     vdW  Elec       q    Type
REMARK                         _______ _______ _______ _____ _____    ______ ____
ROOT
ATOM      1  C   UNL     1       0.894  10.793  19.198  0.00  0.00    +0.000 A 
ATOM      2  C   UNL     1       1.670  11.867  18.752  0.00  0.00    +0.000 A 
ATOM      3  C   UNL     1       1.083  13.069  18.380  0.00  0.00    +0.000 A 
ATOM      4  C   UNL     1      -0.295  13.216  18.457  0.00  0.00    +0.000 A 
ATOM      5  C   UNL     1      -1.103  12.176  18.926  0.00  0.00    +0.000 A 
ATOM      6  C   UNL     1      -0.496  10.973  19.331  0.00  0.00    +0.000 A 
ENDROOT
BRANCH   1  10
ATOM      7  O   UNL     1       1.908   8.843  17.320  0.00  0.00    +0.000 OA
ATOM      8  C   UNL     1       1.922   8.626  18.524  0.00  0.00    +0.000 C 
ATOM      9  N   UNL     1       2.364   7.433  19.073  0.00  0.00    +0.000 N 
ATOM     10  N   UNL     1       1.458   9.519  19.486  0.00  0.00    +0.000 N 
ATOM     11  H   UNL     1       2.126   7.244  20.032  0.00  0.00    +0.000 HD
ATOM     12  H   UNL     1       1.355   9.177  20.428  0.00  0.00    +0.000 HD
BRANCH   9  13
ATOM     13  C   UNL     1       2.888   6.345  18.324  0.00  0.00    +0.000 A 
ATOM     14  C   UNL     1       2.212   5.129  18.157  0.00  0.00    +0.000 A 
ATOM     15  C   UNL     1       2.789   4.073  17.449  0.00  0.00    +0.000 A 
ATOM     16  C   UNL     1       4.050   4.221  16.885  0.00  0.00    +0.000 A 
ATOM     17  C   UNL     1       4.726   5.433  17.019  0.00  0.00    +0.000 A 
ATOM     18  C   UNL     1       4.145   6.493  17.727  0.00  0.00    +0.000 A 
ENDBRANCH   9  13
ENDBRANCH   1  10
BRANCH   5  19
ATOM     19  N   UNL     1      -2.510  12.297  18.989  0.00  0.00    +0.000 N 
ATOM     20  C   UNL     1      -3.412  11.750  18.086  0.00  0.00    +0.000 C 
ATOM     21  O   UNL     1      -3.143  11.052  17.112  0.00  0.00    +0.000 OA
ATOM     22  H   UNL     1      -2.930  12.750  19.795  0.00  0.00    +0.000 HD
BRANCH  20  23
ATOM     23  C   UNL     1      -4.852  12.022  18.382  0.00  0.00    +0.000 A 
ATOM     24  C   UNL     1      -5.736  12.178  17.318  0.00  0.00    +0.000 A 
ATOM     25  C   UNL     1      -7.080  12.390  17.600  0.00  0.00    +0.000 A 
ATOM     26  C   UNL     1      -7.489  12.447  18.926  0.00  0.00    +0.000 A 
ATOM     27  C   UNL     1      -6.533  12.294  19.924  0.00  0.00    +0.000 A 
ATOM     28  N   UNL     1      -5.219  12.078  19.693  0.00  0.00    +0.000 NA
ENDBRANCH  20  23
ENDBRANCH   5  19
TORSDOF 4
ENDMDL
MODEL 9
REMARK VINA RESULT:      -7.4      5.055      7.319
REMARK  Name = 
REMARK  4 active torsions:
REMARK  status: ('A' for Active; 'I' for Inactive)
REMARK    1  A    between atoms: N_3  and  C_4
REMARK    2  A    between atoms: N_10  and  C_11
REMARK    3  A    between atoms: C_15  and  N_16
REMARK    4  A    between atoms: C_17  and  C_19
REMARK                            x       y       z     vdW  Elec       q    Type
REMARK                         _______ _______ _______ _____ _____    ______ ____
ROOT
ATOM      1  C   UNL     1       4.078   3.932  18.974  0.00  0.00    +0.000 A 
ATOM      2  C   UNL     1       3.561   2.958  19.833  0.00  0.00    +0.000 A 
ATOM      3  C   UNL     1       2.616   3.282  20.798  0.00  0.00    +0.000 A 
ATOM      4  C   UNL     1       2.168   4.590  20.911  0.00  0.00    +0.000 A 
ATOM      5  C   UNL     1       2.637   5.587  20.052  0.00  0.00    +0.000 A 
ATOM      6  C   UNL     1       3.571   5.242  19.057  0.00  0.00    +0.000 A 
ENDROOT
BRANCH   1  10
ATOM      7  O   UNL     1       4.304   4.838  16.239  0.00  0.00    +0.000 OA
ATOM      8  C   UNL     1       5.159   4.118  16.738  0.00  0.00    +0.000 C 
ATOM      9  N   UNL     1       6.253   3.643  16.033  0.00  0.00    +0.000 N 
ATOM     10  N   UNL     1       5.120   3.649  18.048  0.00  0.00    +0.000 N 
ATOM     11  H   UNL     1       6.772   2.880  16.435  0.00  0.00    +0.000 HD
ATOM     12  H   UNL     1       5.777   2.930  18.305  0.00  0.00    +0.000 HD
BRANCH   9  13
ATOM     13  C   UNL     1       6.541   3.960  14.678  0.00  0.00    +0.000 A 
ATOM     14  C   UNL     1       5.976   3.278  13.592  0.00  0.00    +0.000 A 
ATOM     15  C   UNL     1       6.325   3.598  12.278  0.00  0.00    +0.000 A 
ATOM     16  C   UNL     1       7.237   4.616  12.030  0.00  0.00    +0.000 A 
ATOM     17  C   UNL     1       7.789   5.322  13.098  0.00  0.00    +0.000 A 
ATOM     18  C   UNL     1       7.436   5.003  14.415  0.00  0.00    +0.000 A 
ENDBRANCH   9  13
ENDBRANCH   1  10
BRANCH   5  19
ATOM     19  N   UNL     1       2.213   6.930  20.167  0.00  0.00    +0.000 N 
ATOM     20  C   UNL     1       1.924   7.783  19.110  0.00  0.00    +0.000 C 
ATOM     21  O   UNL     1       1.957   7.506  17.914  0.00  0.00    +0.000 OA
ATOM     22  H   UNL     1       2.018   7.308  21.090  0.00  0.00    +0.000 HD
BRANCH  20  23
ATOM     23  C   UNL     1       1.489   9.158  19.503  0.00  0.00    +0.000 A 
ATOM     24  C   UNL     1       1.520  10.169  18.546  0.00  0.00    +0.000 A 
ATOM     25  C   UNL     1       1.077  11.436  18.906  0.00  0.00    +0.000 A 
ATOM     26  C   UNL     1       0.630  11.649  20.204  0.00  0.00    +0.000 A 
ATOM     27  C   UNL     1       0.648  10.584  21.097  0.00  0.00    +0.000 A 
ATOM     28  N   UNL     1       1.063   9.335  20.785  0.00  0.00    +0.000 NA
ENDBRANCH  20  23
ENDBRANCH   5  19
TORSDOF 4
ENDMDL
