MODEL 1
REMARK VINA RESULT:      -8.3      0.000      0.000
REMARK  Name = 
REMARK  1 active torsions:
REMARK  status: ('A' for Active; 'I' for Inactive)
REMARK    1  A    between atoms: C_1  and  N_2
REMARK                            x       y       z     vdW  Elec       q    Type
REMARK                         _______ _______ _______ _____ _____    ______ ____
ROOT
ATOM      1  C   UNL     1       2.210   8.980  17.811  0.00  0.00    +0.000 C 
ATOM      2  N   UNL     1       2.836   7.685  17.876  0.00  0.00    +0.000 N 
ATOM      3  C   UNL     1       2.671   6.890  19.001  0.00  0.00    +0.000 C 
ATOM      4  O   UNL     1       2.068   7.305  19.992  0.00  0.00    +0.000 OA
ATOM      5  N   UNL     1       3.120   5.580  18.798  0.00  0.00    +0.000 N 
ATOM      6  C   UNL     1       4.309   5.296  18.056  0.00  0.00    +0.000 A 
ATOM      7  C   UNL     1       5.484   6.005  18.359  0.00  0.00    +0.000 A 
ATOM      8  C   UNL     1       6.669   5.750  17.669  0.00  0.00    +0.000 A 
ATOM      9  C   UNL     1       6.680   4.818  16.638  0.00  0.00    +0.000 A 
ATOM     10  C   UNL     1       5.513   4.116  16.318  0.00  0.00    +0.000 A 
ATOM     11  C   UNL     1       4.329   4.319  17.043  0.00  0.00    +0.000 A 
ATOM     12  C   UNL     1       3.133   3.566  16.653  0.00  0.00    +0.000 C 
ATOM     13  C   UNL     1       2.200   3.117  17.504  0.00  0.00    +0.000 C 
ATOM     14  C   UNL     1       2.212   3.303  18.967  0.00  0.00    +0.000 A 
ATOM     15  C   UNL     1       1.649   2.288  19.758  0.00  0.00    +0.000 A 
ATOM     16  C   UNL     1       1.564   2.426  21.145  0.00  0.00    +0.000 A 
ATOM     17  C   UNL     1       2.029   3.583  21.758  0.00  0.00    +0.000 A 
ATOM     18  C   UNL     1       2.556   4.617  20.982  0.00  0.00    +0.000 A 
ATOM     19  C   UNL     1       2.647   4.492  19.584  0.00  0.00    +0.000 A 
ATOM     20  H   UNL     1       2.846   7.144  17.021  0.00  0.00    +0.000 HD
ENDROOT
TORSDOF 0
ENDMDL
MODEL 2
REMARK VINA RESULT:      -7.4      1.996      3.953
REMARK  Name = 
REMARK  1 active torsions:
REMARK  status: ('A' for Active; 'I' for Inactive)
REMARK    1  A    between atoms: C_1  and  N_2
REMARK                            x       y       z     vdW  Elec       q    Type
REMARK                         _______ _______ _______ _____ _____    ______ ____
ROOT
ATOM      1  C   UNL     1       7.401   5.645  19.603  0.00  0.00    +0.000 C 
ATOM      2  N   UNL     1       5.993   5.825  19.362  0.00  0.00    +0.000 N 
ATOM      3  C   UNL     1       5.246   4.795  18.808  0.00  0.00    +0.000 C 
ATOM      4  O   UNL     1       5.781   3.750  18.434  0.00  0.00    +0.000 OA
ATOM      5  N   UNL     1       3.869   5.036  18.882  0.00  0.00    +0.000 N 
ATOM      6  C   UNL     1       3.318   6.337  18.660  0.00  0.00    +0.000 A 
ATOM      7  C   UNL     1       3.720   7.059  17.524  0.00  0.00    +0.000 A 
ATOM      8  C   UNL     1       3.198   8.325  17.262  0.00  0.00    +0.000 A 
ATOM      9  C   UNL     1       2.303   8.901  18.157  0.00  0.00    +0.000 A 
ATOM     10  C   UNL     1       1.906   8.197  19.299  0.00  0.00    +0.000 A 
ATOM     11  C   UNL     1       2.378   6.898  19.544  0.00  0.00    +0.000 A 
ATOM     12  C   UNL     1       1.939   6.214  20.765  0.00  0.00    +0.000 C 
ATOM     13  C   UNL     1       1.717   4.896  20.865  0.00  0.00    +0.000 C 
ATOM     14  C   UNL     1       1.874   3.914  19.777  0.00  0.00    +0.000 A 
ATOM     15  C   UNL     1       1.015   2.804  19.770  0.00  0.00    +0.000 A 
ATOM     16  C   UNL     1       1.151   1.798  18.810  0.00  0.00    +0.000 A 
ATOM     17  C   UNL     1       2.155   1.883  17.854  0.00  0.00    +0.000 A 
ATOM     18  C   UNL     1       3.041   2.961  17.871  0.00  0.00    +0.000 A 
ATOM     19  C   UNL     1       2.917   3.980  18.831  0.00  0.00    +0.000 A 
ATOM     20  H   UNL     1       5.476   6.341  20.063  0.00  0.00    +0.000 HD
ENDROOT
TORSDOF 0
ENDMDL
MODEL 3
REMARK VINA RESULT:      -7.2      1.637      4.646
REMARK  Name = 
REMARK  1 active torsions:
REMARK  status: ('A' for Active; 'I' for Inactive)
REMARK    1  A    between atoms: C_1  and  N_2
REMARK                            x       y       z     vdW  Elec       q    Type
REMARK                         _______ _______ _______ _____ _____    ______ ____
ROOT
ATOM      1  C   UNL     1       1.826   8.321  19.779  0.00  0.00    +0.000 C 
ATOM      2  N   UNL     1       2.280   7.022  19.358  0.00  0.00    +0.000 N 
ATOM      3  C   UNL     1       3.016   6.890  18.188  0.00  0.00    +0.000 C 
ATOM      4  O   UNL     1       3.216   7.855  17.449  0.00  0.00    +0.000 OA
ATOM      5  N   UNL     1       3.594   5.621  18.062  0.00  0.00    +0.000 N 
ATOM      6  C   UNL     1       2.896   4.433  18.446  0.00  0.00    +0.000 A 
ATOM      7  C   UNL     1       1.579   4.243  17.995  0.00  0.00    +0.000 A 
ATOM      8  C   UNL     1       0.867   3.093  18.336  0.00  0.00    +0.000 A 
ATOM      9  C   UNL     1       1.448   2.143  19.167  0.00  0.00    +0.000 A 
ATOM     10  C   UNL     1       2.754   2.328  19.634  0.00  0.00    +0.000 A 
ATOM     11  C   UNL     1       3.503   3.451  19.251  0.00  0.00    +0.000 A 
ATOM     12  C   UNL     1       4.862   3.599  19.783  0.00  0.00    +0.000 C 
ATOM     13  C   UNL     1       5.890   4.137  19.114  0.00  0.00    +0.000 C 
ATOM     14  C   UNL     1       5.836   4.670  17.740  0.00  0.00    +0.000 A 
ATOM     15  C   UNL     1       6.990   4.552  16.949  0.00  0.00    +0.000 A 
ATOM     16  C   UNL     1       7.034   5.094  15.662  0.00  0.00    +0.000 A 
ATOM     17  C   UNL     1       5.932   5.772  15.156  0.00  0.00    +0.000 A 
ATOM     18  C   UNL     1       4.792   5.931  15.945  0.00  0.00    +0.000 A 
ATOM     19  C   UNL     1       4.733   5.391  17.242  0.00  0.00    +0.000 A 
ATOM     20  H   UNL     1       2.601   6.396  20.086  0.00  0.00    +0.000 HD
ENDROOT
TORSDOF 0
ENDMDL
MODEL 4
REMARK VINA RESULT:      -7.2      2.059      5.112
REMARK  Name = 
REMARK  1 active torsions:
REMARK  status: ('A' for Active; 'I' for Inactive)
REMARK    1  A    between atoms: C_1  and  N_2
REMARK                            x       y       z     vdW  Elec       q    Type
REMARK                         _______ _______ _______ _____ _____    ______ ____
ROOT
ATOM      1  C   UNL     1       1.083   2.684  18.626  0.00  0.00    +0.000 C 
ATOM      2  N   UNL     1       1.670   3.992  18.758  0.00  0.00    +0.000 N 
ATOM      3  C   UNL     1       3.023   4.121  19.041  0.00  0.00    +0.000 C 
ATOM      4  O   UNL     1       3.722   3.133  19.270  0.00  0.00    +0.000 OA
ATOM      5  N   UNL     1       3.478   5.435  18.878  0.00  0.00    +0.000 N 
ATOM      6  C   UNL     1       2.692   6.560  19.277  0.00  0.00    +0.000 A 
ATOM      7  C   UNL     1       2.116   6.566  20.559  0.00  0.00    +0.000 A 
ATOM      8  C   UNL     1       1.353   7.649  20.994  0.00  0.00    +0.000 A 
ATOM      9  C   UNL     1       1.120   8.718  20.135  0.00  0.00    +0.000 A 
ATOM     10  C   UNL     1       1.676   8.717  18.852  0.00  0.00    +0.000 A 
ATOM     11  C   UNL     1       2.496   7.661  18.423  0.00  0.00    +0.000 A 
ATOM     12  C   UNL     1       3.039   7.708  17.062  0.00  0.00    +0.000 C 
ATOM     13  C   UNL     1       4.244   7.242  16.704  0.00  0.00    +0.000 C 
ATOM     14  C   UNL     1       5.222   6.608  17.606  0.00  0.00    +0.000 A 
ATOM     15  C   UNL     1       6.585   6.798  17.328  0.00  0.00    +0.000 A 
ATOM     16  C   UNL     1       7.568   6.172  18.099  0.00  0.00    +0.000 A 
ATOM     17  C   UNL     1       7.200   5.338  19.148  0.00  0.00    +0.000 A 
ATOM     18  C   UNL     1       5.849   5.108  19.413  0.00  0.00    +0.000 A 
ATOM     19  C   UNL     1       4.850   5.732  18.644  0.00  0.00    +0.000 A 
ATOM     20  H   UNL     1       1.343   4.702  18.115  0.00  0.00    +0.000 HD
ENDROOT
TORSDOF 0
ENDMDL
MODEL 5
REMARK VINA RESULT:      -6.7      6.268      8.413
REMARK  Name = 
REMARK  1 active torsions:
REMARK  status: ('A' for Active; 'I' for Inactive)
REMARK    1  A    between atoms: C_1  and  N_2
REMARK                            x       y       z     vdW  Elec       q    Type
REMARK                         _______ _______ _______ _____ _____    ______ ____
ROOT
ATOM      1  C   UNL     1       1.179  14.900  20.694  0.00  0.00    +0.000 C 
ATOM      2  N   UNL     1       0.676  13.551  20.670  0.00  0.00    +0.000 N 
ATOM      3  C   UNL     1      -0.488  13.257  19.972  0.00  0.00    +0.000 C 
ATOM      4  O   UNL     1      -1.154  14.146  19.440  0.00  0.00    +0.000 OA
ATOM      5  N   UNL     1      -0.691  11.879  19.834  0.00  0.00    +0.000 N 
ATOM      6  C   UNL     1      -0.403  10.964  20.895  0.00  0.00    +0.000 A 
ATOM      7  C   UNL     1      -0.889  11.243  22.183  0.00  0.00    +0.000 A 
ATOM      8  C   UNL     1      -0.642  10.371  23.243  0.00  0.00    +0.000 A 
ATOM      9  C   UNL     1       0.131   9.235  23.036  0.00  0.00    +0.000 A 
ATOM     10  C   UNL     1       0.633   8.954  21.761  0.00  0.00    +0.000 A 
ATOM     11  C   UNL     1       0.342   9.791  20.672  0.00  0.00    +0.000 A 
ATOM     12  C   UNL     1       0.907   9.454  19.362  0.00  0.00    +0.000 C 
ATOM     13  C   UNL     1       0.295   9.665  18.188  0.00  0.00    +0.000 C 
ATOM     14  C   UNL     1      -1.038  10.268  18.012  0.00  0.00    +0.000 A 
ATOM     15  C   UNL     1      -1.816   9.827  16.929  0.00  0.00    +0.000 A 
ATOM     16  C   UNL     1      -3.061  10.400  16.660  0.00  0.00    +0.000 A 
ATOM     17  C   UNL     1      -3.538  11.430  17.461  0.00  0.00    +0.000 A 
ATOM     18  C   UNL     1      -2.760  11.906  18.518  0.00  0.00    +0.000 A 
ATOM     19  C   UNL     1      -1.505  11.338  18.800  0.00  0.00    +0.000 A 
ATOM     20  H   UNL     1       1.364  12.812  20.599  0.00  0.00    +0.000 HD
ENDROOT
TORSDOF 0
ENDMDL
MODEL 6
REMARK VINA RESULT:      -6.3      6.531      8.930
REMARK  Name = 
REMARK  1 active torsions:
REMARK  status: ('A' for Active; 'I' for Inactive)
REMARK    1  A    between atoms: C_1  and  N_2
REMARK                            x       y       z     vdW  Elec       q    Type
REMARK                         _______ _______ _______ _____ _____    ______ ____
ROOT
ATOM      1  C   UNL     1      -1.208  10.760  23.265  0.00  0.00    +0.000 C 
ATOM      2  N   UNL     1      -1.072  10.932  21.842  0.00  0.00    +0.000 N 
ATOM      3  C   UNL     1      -0.378  12.024  21.339  0.00  0.00    +0.000 C 
ATOM      4  O   UNL     1       0.052  12.905  22.085  0.00  0.00    +0.000 OA
ATOM      5  N   UNL     1      -0.117  11.904  19.969  0.00  0.00    +0.000 N 
ATOM      6  C   UNL     1      -1.080  11.360  19.063  0.00  0.00    +0.000 A 
ATOM      7  C   UNL     1      -2.401  11.838  19.107  0.00  0.00    +0.000 A 
ATOM      8  C   UNL     1      -3.368  11.345  18.233  0.00  0.00    +0.000 A 
ATOM      9  C   UNL     1      -3.037  10.336  17.335  0.00  0.00    +0.000 A 
ATOM     10  C   UNL     1      -1.729   9.842  17.291  0.00  0.00    +0.000 A 
ATOM     11  C   UNL     1      -0.731  10.371  18.124  0.00  0.00    +0.000 A 
ATOM     12  C   UNL     1       0.619   9.804  18.044  0.00  0.00    +0.000 C 
ATOM     13  C   UNL     1       1.752  10.502  18.202  0.00  0.00    +0.000 C 
ATOM     14  C   UNL     1       1.838  11.947  18.482  0.00  0.00    +0.000 A 
ATOM     15  C   UNL     1       2.938  12.648  17.962  0.00  0.00    +0.000 A 
ATOM     16  C   UNL     1       3.121  14.004  18.243  0.00  0.00    +0.000 A 
ATOM     17  C   UNL     1       2.216  14.673  19.058  0.00  0.00    +0.000 A 
ATOM     18  C   UNL     1       1.139  13.980  19.614  0.00  0.00    +0.000 A 
ATOM     19  C   UNL     1       0.943  12.615  19.340  0.00  0.00    +0.000 A 
ATOM     20  H   UNL     1      -0.915  10.094  21.297  0.00  0.00    +0.000 HD
ENDROOT
TORSDOF 0
ENDMDL
MODEL 7
REMARK VINA RESULT:      -6.2      4.802      8.020
REMARK  Name = 
REMARK  1 active torsions:
REMARK  status: ('A' for Active; 'I' for Inactive)
REMARK    1  A    between atoms: C_1  and  N_2
REMARK                            x       y       z     vdW  Elec       q    Type
REMARK                         _______ _______ _______ _____ _____    ______ ____
ROOT
ATOM      1  C   UNL     1      -3.158   9.675  16.900  0.00  0.00    +0.000 C 
ATOM      2  N   UNL     1      -1.999   9.790  17.746  0.00  0.00    +0.000 N 
ATOM      3  C   UNL     1      -1.425  11.034  17.971  0.00  0.00    +0.000 C 
ATOM      4  O   UNL     1      -1.834  12.039  17.388  0.00  0.00    +0.000 OA
ATOM      5  N   UNL     1      -0.484  11.006  19.007  0.00  0.00    +0.000 N 
ATOM      6  C   UNL     1       0.419   9.911  19.176  0.00  0.00    +0.000 A 
ATOM      7  C   UNL     1       1.139   9.445  18.063  0.00  0.00    +0.000 A 
ATOM      8  C   UNL     1       2.039   8.388  18.187  0.00  0.00    +0.000 A 
ATOM      9  C   UNL     1       2.196   7.756  19.415  0.00  0.00    +0.000 A 
ATOM     10  C   UNL     1       1.474   8.201  20.527  0.00  0.00    +0.000 A 
ATOM     11  C   UNL     1       0.609   9.302  20.431  0.00  0.00    +0.000 A 
ATOM     12  C   UNL     1      -0.132   9.715  21.627  0.00  0.00    +0.000 C 
ATOM     13  C   UNL     1      -0.440  10.982  21.935  0.00  0.00    +0.000 C 
ATOM     14  C   UNL     1      -0.092  12.170  21.135  0.00  0.00    +0.000 A 
ATOM     15  C   UNL     1       0.161  13.369  21.821  0.00  0.00    +0.000 A 
ATOM     16  C   UNL     1       0.429  14.550  21.125  0.00  0.00    +0.000 A 
ATOM     17  C   UNL     1       0.437  14.550  19.736  0.00  0.00    +0.000 A 
ATOM     18  C   UNL     1       0.149  13.376  19.039  0.00  0.00    +0.000 A 
ATOM     19  C   UNL     1      -0.124  12.180  19.726  0.00  0.00    +0.000 A 
ATOM     20  H   UNL     1      -1.981   9.204  18.571  0.00  0.00    +0.000 HD
ENDROOT
TORSDOF 0
ENDMDL
MODEL 8
REMARK VINA RESULT:      -6.1      6.820      9.041
REMARK  Name = 
REMARK  1 active torsions:
REMARK  status: ('A' for Active; 'I' for Inactive)
REMARK    1  A    between atoms: C_1  and  N_2
REMARK                            x       y       z     vdW  Elec       q    Type
REMARK                         _______ _______ _______ _____ _____    ______ ____
ROOT
ATOM      1  C   UNL     1       0.812  15.037  21.235  0.00  0.00    +0.000 C 
ATOM      2  N   UNL     1       0.245  13.725  21.071  0.00  0.00    +0.000 N 
ATOM      3  C   UNL     1      -1.095  13.584  20.735  0.00  0.00    +0.000 C 
ATOM      4  O   UNL     1      -1.839  14.564  20.659  0.00  0.00    +0.000 OA
ATOM      5  N   UNL     1      -1.416  12.274  20.363  0.00  0.00    +0.000 N 
ATOM      6  C   UNL     1      -0.866  11.141  21.040  0.00  0.00    +0.000 A 
ATOM      7  C   UNL     1      -0.904  11.105  22.444  0.00  0.00    +0.000 A 
ATOM      8  C   UNL     1      -0.390  10.013  23.144  0.00  0.00    +0.000 A 
ATOM      9  C   UNL     1       0.207   8.968  22.449  0.00  0.00    +0.000 A 
ATOM     10  C   UNL     1       0.263   8.999  21.052  0.00  0.00    +0.000 A 
ATOM     11  C   UNL     1      -0.303  10.063  20.332  0.00  0.00    +0.000 A 
ATOM     12  C   UNL     1      -0.201  10.049  18.869  0.00  0.00    +0.000 C 
ATOM     13  C   UNL     1      -1.137  10.519  18.034  0.00  0.00    +0.000 C 
ATOM     14  C   UNL     1      -2.418  11.128  18.434  0.00  0.00    +0.000 A 
ATOM     15  C   UNL     1      -3.523  10.940  17.588  0.00  0.00    +0.000 A 
ATOM     16  C   UNL     1      -4.751  11.544  17.868  0.00  0.00    +0.000 A 
ATOM     17  C   UNL     1      -4.887  12.352  18.991  0.00  0.00    +0.000 A 
ATOM     18  C   UNL     1      -3.789  12.579  19.821  0.00  0.00    +0.000 A 
ATOM     19  C   UNL     1      -2.546  11.979  19.550  0.00  0.00    +0.000 A 
ATOM     20  H   UNL     1       0.828  13.032  20.618  0.00  0.00    +0.000 HD
ENDROOT
TORSDOF 0
ENDMDL
MODEL 9
REMARK VINA RESULT:      -6.1      9.250     11.880
REMARK  Name = 
REMARK  1 active torsions:
REMARK  status: ('A' for Active; 'I' for Inactive)
REMARK    1  A    between atoms: C_1  and  N_2
REMARK                            x       y       z     vdW  Elec       q    Type
REMARK                         _______ _______ _______ _____ _____    ______ ____
ROOT
ATOM      1  C   UNL     1       5.511  14.904  17.826  0.00  0.00    +0.000 C 
ATOM      2  N   UNL     1       6.731  14.337  18.338  0.00  0.00    +0.000 N 
ATOM      3  C   UNL     1       7.939  14.993  18.138  0.00  0.00    +0.000 C 
ATOM      4  O   UNL     1       8.003  16.013  17.451  0.00  0.00    +0.000 OA
ATOM      5  N   UNL     1       8.972  14.453  18.912  0.00  0.00    +0.000 N 
ATOM      6  C   UNL     1       9.104  13.044  19.118  0.00  0.00    +0.000 A 
ATOM      7  C   UNL     1       9.041  12.188  18.006  0.00  0.00    +0.000 A 
ATOM      8  C   UNL     1       9.178  10.808  18.160  0.00  0.00    +0.000 A 
ATOM      9  C   UNL     1       9.334  10.268  19.431  0.00  0.00    +0.000 A 
ATOM     10  C   UNL     1       9.385  11.110  20.547  0.00  0.00    +0.000 A 
ATOM     11  C   UNL     1       9.308  12.504  20.401  0.00  0.00    +0.000 A 
ATOM     12  C   UNL     1       9.352  13.336  21.608  0.00  0.00    +0.000 C 
ATOM     13  C   UNL     1       9.923  14.546  21.681  0.00  0.00    +0.000 C 
ATOM     14  C   UNL     1      10.600  15.245  20.574  0.00  0.00    +0.000 A 
ATOM     15  C   UNL     1      11.682  16.080  20.894  0.00  0.00    +0.000 A 
ATOM     16  C   UNL     1      12.328  16.827  19.905  0.00  0.00    +0.000 A 
ATOM     17  C   UNL     1      11.892  16.757  18.588  0.00  0.00    +0.000 A 
ATOM     18  C   UNL     1      10.793  15.961  18.260  0.00  0.00    +0.000 A 
ATOM     19  C   UNL     1      10.134  15.205  19.245  0.00  0.00    +0.000 A 
ATOM     20  H   UNL     1       6.680  13.898  19.249  0.00  0.00    +0.000 HD
ENDROOT
TORSDOF 0
ENDMDL
