MODEL 1
REMARK VINA RESULT:      -6.8      0.000      0.000
REMARK  Name = 
REMARK  10 active torsions:
REMARK  status: ('A' for Active; 'I' for Inactive)
REMARK    1  A    between atoms: C_1  and  C_2
REMARK    2  A    between atoms: C_4  and  C_5
REMARK    3  A    between atoms: C_5  and  C_6
REMARK    4  A    between atoms: C_5  and  N_7
REMARK    5  A    between atoms: N_7  and  C_8
REMARK    6  A    between atoms: C_8  and  C_9
REMARK    7  A    between atoms: C_9  and  C_10
REMARK    8  A    between atoms: C_9  and  C_11
REMARK    9  A    between atoms: C_9  and  C_12
REMARK   10  A    between atoms: C_12  and  O_13
REMARK                            x       y       z     vdW  Elec       q    Type
REMARK                         _______ _______ _______ _____ _____    ______ ____
ROOT
ATOM      1  C   UNL     1       3.615   3.998  16.726  0.00  0.00    +0.000 C 
ENDROOT
BRANCH   1   2
ATOM      2  C   UNL     1       2.935   4.491  18.050  0.00  0.00    +0.000 C 
ATOM      3  C   UNL     1       3.736   5.702  18.591  0.00  0.00    +0.000 C 
ATOM      4  C   UNL     1       1.537   5.021  17.648  0.00  0.00    +0.000 C 
BRANCH   2   5
ATOM      5  C   UNL     1       2.846   3.340  19.139  0.00  0.00    +0.000 C 
ATOM      6  C   UNL     1       1.716   3.565  20.168  0.00  0.00    +0.000 C 
ATOM      7  C   UNL     1       1.707   2.481  21.241  0.00  0.00    +0.000 C 
ATOM      8  O   UNL     1       2.970   2.417  21.898  0.00  0.00    +0.000 OA
ATOM      9  C   UNL     1       4.006   2.050  20.989  0.00  0.00    +0.000 C 
ATOM     10  C   UNL     1       4.167   3.114  19.906  0.00  0.00    +0.000 C 
BRANCH   5  11
ATOM     11  O   UNL     1       2.572   2.096  18.468  0.00  0.00    +0.000 OA
ATOM     12  H   UNL     1       3.321   1.491  18.667  0.00  0.00    +0.000 HD
ENDBRANCH   5  11
ENDBRANCH   2   5
ENDBRANCH   1   2
BRANCH   1  13
ATOM     13  N   UNL     1       4.889   3.292  16.925  0.00  0.00    +0.000 NA
ATOM     14  H   UNL     1       5.142   3.335  17.915  0.00  0.00    +0.000 HD
BRANCH  13  15
ATOM     15  C   UNL     1       5.994   3.878  16.146  0.00  0.00    +0.000 C 
ATOM     16  C   UNL     1       5.539   4.553  14.845  0.00  0.00    +0.000 C 
BRANCH  15  20
ATOM     17  C   UNL     1       7.831   8.442  17.750  0.00  0.00    +0.000 C 
ATOM     18  C   UNL     1       7.516   6.985  17.708  0.00  0.00    +0.000 A 
ATOM     19  C   UNL     1       6.900   6.263  16.706  0.00  0.00    +0.000 A 
ATOM     20  C   UNL     1       6.719   4.872  17.032  0.00  0.00    +0.000 A 
ATOM     21  C   UNL     1       7.257   4.608  18.282  0.00  0.00    +0.000 A 
ATOM     22  S   UNL     1       7.933   5.988  19.030  0.00  0.00    +0.000 S 
ENDBRANCH  15  20
ENDBRANCH  13  15
ENDBRANCH   1  13
TORSDOF 6
ENDMDL
MODEL 2
REMARK VINA RESULT:      -6.8      1.114      1.613
REMARK  Name = 
REMARK  10 active torsions:
REMARK  status: ('A' for Active; 'I' for Inactive)
REMARK    1  A    between atoms: C_1  and  C_2
REMARK    2  A    between atoms: C_4  and  C_5
REMARK    3  A    between atoms: C_5  and  C_6
REMARK    4  A    between atoms: C_5  and  N_7
REMARK    5  A    between atoms: N_7  and  C_8
REMARK    6  A    between atoms: C_8  and  C_9
REMARK    7  A    between atoms: C_9  and  C_10
REMARK    8  A    between atoms: C_9  and  C_11
REMARK    9  A    between atoms: C_9  and  C_12
REMARK   10  A    between atoms: C_12  and  O_13
REMARK                            x       y       z     vdW  Elec       q    Type
REMARK                         _______ _______ _______ _____ _____    ______ ____
ROOT
ATOM      1  C   UNL     1       3.982   4.331  17.010  0.00  0.00    +0.000 C 
ENDROOT
BRANCH   1   2
ATOM      2  C   UNL     1       2.773   3.679  17.767  0.00  0.00    +0.000 C 
ATOM      3  C   UNL     1       1.477   4.419  17.350  0.00  0.00    +0.000 C 
ATOM      4  C   UNL     1       2.656   2.232  17.231  0.00  0.00    +0.000 C 
BRANCH   2   5
ATOM      5  C   UNL     1       2.964   3.718  19.342  0.00  0.00    +0.000 C 
ATOM      6  C   UNL     1       2.876   2.323  19.998  0.00  0.00    +0.000 C 
ATOM      7  C   UNL     1       2.989   2.406  21.517  0.00  0.00    +0.000 C 
ATOM      8  O   UNL     1       1.984   3.266  22.047  0.00  0.00    +0.000 OA
ATOM      9  C   UNL     1       2.149   4.603  21.575  0.00  0.00    +0.000 C 
ATOM     10  C   UNL     1       1.970   4.658  20.060  0.00  0.00    +0.000 C 
BRANCH   5  11
ATOM     11  O   UNL     1       4.272   4.246  19.631  0.00  0.00    +0.000 OA
ATOM     12  H   UNL     1       4.926   3.624  19.241  0.00  0.00    +0.000 HD
ENDBRANCH   5  11
ENDBRANCH   2   5
ENDBRANCH   1   2
BRANCH   1  13
ATOM     13  N   UNL     1       5.069   3.396  16.688  0.00  0.00    +0.000 NA
ATOM     14  H   UNL     1       5.441   3.005  17.557  0.00  0.00    +0.000 HD
BRANCH  13  15
ATOM     15  C   UNL     1       6.180   4.040  15.965  0.00  0.00    +0.000 C 
ATOM     16  C   UNL     1       5.744   4.761  14.683  0.00  0.00    +0.000 C 
BRANCH  15  20
ATOM     17  C   UNL     1       7.910   8.563  17.789  0.00  0.00    +0.000 C 
ATOM     18  C   UNL     1       7.608   7.106  17.689  0.00  0.00    +0.000 A 
ATOM     19  C   UNL     1       7.043   6.412  16.638  0.00  0.00    +0.000 A 
ATOM     20  C   UNL     1       6.858   5.011  16.913  0.00  0.00    +0.000 A 
ATOM     21  C   UNL     1       7.342   4.711  18.177  0.00  0.00    +0.000 A 
ATOM     22  S   UNL     1       7.973   6.071  18.997  0.00  0.00    +0.000 S 
ENDBRANCH  15  20
ENDBRANCH  13  15
ENDBRANCH   1  13
TORSDOF 6
ENDMDL
MODEL 3
REMARK VINA RESULT:      -6.7      2.050      3.030
REMARK  Name = 
REMARK  10 active torsions:
REMARK  status: ('A' for Active; 'I' for Inactive)
REMARK    1  A    between atoms: C_1  and  C_2
REMARK    2  A    between atoms: C_4  and  C_5
REMARK    3  A    between atoms: C_5  and  C_6
REMARK    4  A    between atoms: C_5  and  N_7
REMARK    5  A    between atoms: N_7  and  C_8
REMARK    6  A    between atoms: C_8  and  C_9
REMARK    7  A    between atoms: C_9  and  C_10
REMARK    8  A    between atoms: C_9  and  C_11
REMARK    9  A    between atoms: C_9  and  C_12
REMARK   10  A    between atoms: C_12  and  O_13
REMARK                            x       y       z     vdW  Elec       q    Type
REMARK                         _______ _______ _______ _____ _____    ______ ____
ROOT
ATOM      1  C   UNL     1       3.622   3.943  16.879  0.00  0.00    +0.000 C 
ENDROOT
BRANCH   1   2
ATOM      2  C   UNL     1       2.906   4.136  18.261  0.00  0.00    +0.000 C 
ATOM      3  C   UNL     1       1.437   3.663  18.122  0.00  0.00    +0.000 C 
ATOM      4  C   UNL     1       3.599   3.163  19.247  0.00  0.00    +0.000 C 
BRANCH   2   5
ATOM      5  C   UNL     1       2.971   5.640  18.763  0.00  0.00    +0.000 C 
ATOM      6  C   UNL     1       1.960   5.948  19.889  0.00  0.00    +0.000 C 
ATOM      7  C   UNL     1       1.999   7.418  20.294  0.00  0.00    +0.000 C 
ATOM      8  O   UNL     1       1.752   8.254  19.166  0.00  0.00    +0.000 OA
ATOM      9  C   UNL     1       2.772   8.100  18.179  0.00  0.00    +0.000 C 
ATOM     10  C   UNL     1       2.773   6.674  17.633  0.00  0.00    +0.000 C 
BRANCH   5  11
ATOM     11  O   UNL     1       4.288   5.890  19.288  0.00  0.00    +0.000 OA
ATOM     12  H   UNL     1       4.178   6.456  20.084  0.00  0.00    +0.000 HD
ENDBRANCH   5  11
ENDBRANCH   2   5
ENDBRANCH   1   2
BRANCH   1  13
ATOM     13  N   UNL     1       4.909   3.235  16.958  0.00  0.00    +0.000 NA
ATOM     14  H   UNL     1       5.221   3.218  17.931  0.00  0.00    +0.000 HD
BRANCH  13  15
ATOM     15  C   UNL     1       5.962   3.877  16.151  0.00  0.00    +0.000 C 
ATOM     16  C   UNL     1       5.434   4.572  14.890  0.00  0.00    +0.000 C 
BRANCH  15  20
ATOM     17  C   UNL     1       7.865   8.425  17.722  0.00  0.00    +0.000 C 
ATOM     18  C   UNL     1       7.521   6.974  17.695  0.00  0.00    +0.000 A 
ATOM     19  C   UNL     1       6.907   6.250  16.693  0.00  0.00    +0.000 A 
ATOM     20  C   UNL     1       6.693   4.869  17.035  0.00  0.00    +0.000 A 
ATOM     21  C   UNL     1       7.206   4.611  18.297  0.00  0.00    +0.000 A 
ATOM     22  S   UNL     1       7.897   5.987  19.038  0.00  0.00    +0.000 S 
ENDBRANCH  15  20
ENDBRANCH  13  15
ENDBRANCH   1  13
TORSDOF 6
ENDMDL
MODEL 4
REMARK VINA RESULT:      -6.6      4.089      6.210
REMARK  Name = 
REMARK  10 active torsions:
REMARK  status: ('A' for Active; 'I' for Inactive)
REMARK    1  A    between atoms: C_1  and  C_2
REMARK    2  A    between atoms: C_4  and  C_5
REMARK    3  A    between atoms: C_5  and  C_6
REMARK    4  A    between atoms: C_5  and  N_7
REMARK    5  A    between atoms: N_7  and  C_8
REMARK    6  A    between atoms: C_8  and  C_9
REMARK    7  A    between atoms: C_9  and  C_10
REMARK    8  A    between atoms: C_9  and  C_11
REMARK    9  A    between atoms: C_9  and  C_12
REMARK   10  A    between atoms: C_12  and  O_13
REMARK                            x       y       z     vdW  Elec       q    Type
REMARK                         _______ _______ _______ _____ _____    ______ ____
ROOT
ATOM      1  C   UNL     1       3.503   5.630  19.652  0.00  0.00    +0.000 C 
ENDROOT
BRANCH   1   2
ATOM      2  C   UNL     1       3.737   4.431  18.669  0.00  0.00    +0.000 C 
ATOM      3  C   UNL     1       3.737   3.117  19.490  0.00  0.00    +0.000 C 
ATOM      4  C   UNL     1       2.497   4.381  17.744  0.00  0.00    +0.000 C 
BRANCH   2   5
ATOM      5  C   UNL     1       5.087   4.585  17.850  0.00  0.00    +0.000 C 
ATOM      6  C   UNL     1       5.600   6.041  17.793  0.00  0.00    +0.000 C 
ATOM      7  C   UNL     1       6.856   6.164  16.937  0.00  0.00    +0.000 C 
ATOM      8  O   UNL     1       6.614   5.672  15.621  0.00  0.00    +0.000 OA
ATOM      9  C   UNL     1       6.296   4.281  15.641  0.00  0.00    +0.000 C 
ATOM     10  C   UNL     1       4.997   4.043  16.406  0.00  0.00    +0.000 C 
BRANCH   5  11
ATOM     11  O   UNL     1       6.106   3.797  18.494  0.00  0.00    +0.000 OA
ATOM     12  H   UNL     1       6.193   4.136  19.413  0.00  0.00    +0.000 HD
ENDBRANCH   5  11
ENDBRANCH   2   5
ENDBRANCH   1   2
BRANCH   1  13
ATOM     13  N   UNL     1       2.245   6.358  19.430  0.00  0.00    +0.000 NA
ATOM     14  H   UNL     1       1.746   5.930  18.648  0.00  0.00    +0.000 HD
BRANCH  13  15
ATOM     15  C   UNL     1       2.459   7.782  19.113  0.00  0.00    +0.000 C 
ATOM     16  C   UNL     1       2.315   8.108  17.621  0.00  0.00    +0.000 C 
BRANCH  15  20
ATOM     17  C   UNL     1      -0.120   9.433  23.283  0.00  0.00    +0.000 C 
ATOM     18  C   UNL     1       0.347   9.309  21.873  0.00  0.00    +0.000 A 
ATOM     19  C   UNL     1       1.218   8.385  21.330  0.00  0.00    +0.000 A 
ATOM     20  C   UNL     1       1.476   8.598  19.930  0.00  0.00    +0.000 A 
ATOM     21  C   UNL     1       0.737   9.678  19.474  0.00  0.00    +0.000 A 
ATOM     22  S   UNL     1      -0.211  10.410  20.693  0.00  0.00    +0.000 S 
ENDBRANCH  15  20
ENDBRANCH  13  15
ENDBRANCH   1  13
TORSDOF 6
ENDMDL
MODEL 5
REMARK VINA RESULT:      -6.5      1.794      2.731
REMARK  Name = 
REMARK  10 active torsions:
REMARK  status: ('A' for Active; 'I' for Inactive)
REMARK    1  A    between atoms: C_1  and  C_2
REMARK    2  A    between atoms: C_4  and  C_5
REMARK    3  A    between atoms: C_5  and  C_6
REMARK    4  A    between atoms: C_5  and  N_7
REMARK    5  A    between atoms: N_7  and  C_8
REMARK    6  A    between atoms: C_8  and  C_9
REMARK    7  A    between atoms: C_9  and  C_10
REMARK    8  A    between atoms: C_9  and  C_11
REMARK    9  A    between atoms: C_9  and  C_12
REMARK   10  A    between atoms: C_12  and  O_13
REMARK                            x       y       z     vdW  Elec       q    Type
REMARK                         _______ _______ _______ _____ _____    ______ ____
ROOT
ATOM      1  C   UNL     1       4.448   4.319  16.817  0.00  0.00    +0.000 C 
ENDROOT
BRANCH   1   2
ATOM      2  C   UNL     1       3.482   3.864  17.965  0.00  0.00    +0.000 C 
ATOM      3  C   UNL     1       2.592   2.713  17.431  0.00  0.00    +0.000 C 
ATOM      4  C   UNL     1       4.380   3.259  19.072  0.00  0.00    +0.000 C 
BRANCH   2   5
ATOM      5  C   UNL     1       2.592   5.061  18.507  0.00  0.00    +0.000 C 
ATOM      6  C   UNL     1       3.150   6.451  18.130  0.00  0.00    +0.000 C 
ATOM      7  C   UNL     1       2.313   7.576  18.729  0.00  0.00    +0.000 C 
ATOM      8  O   UNL     1       2.234   7.441  20.146  0.00  0.00    +0.000 OA
ATOM      9  C   UNL     1       1.571   6.231  20.512  0.00  0.00    +0.000 C 
ATOM     10  C   UNL     1       2.371   5.021  20.035  0.00  0.00    +0.000 C 
BRANCH   5  11
ATOM     11  O   UNL     1       1.279   4.955  17.924  0.00  0.00    +0.000 OA
ATOM     12  H   UNL     1       1.264   5.546  17.139  0.00  0.00    +0.000 HD
ENDBRANCH   5  11
ENDBRANCH   2   5
ENDBRANCH   1   2
BRANCH   1  13
ATOM     13  N   UNL     1       5.459   3.319  16.445  0.00  0.00    +0.000 NA
ATOM     14  H   UNL     1       5.718   2.781  17.275  0.00  0.00    +0.000 HD
BRANCH  13  15
ATOM     15  C   UNL     1       6.684   3.925  15.893  0.00  0.00    +0.000 C 
ATOM     16  C   UNL     1       6.491   4.547  14.503  0.00  0.00    +0.000 C 
BRANCH  15  20
ATOM     17  C   UNL     1       7.810   8.618  17.758  0.00  0.00    +0.000 C 
ATOM     18  C   UNL     1       7.654   7.138  17.666  0.00  0.00    +0.000 A 
ATOM     19  C   UNL     1       7.258   6.377  16.585  0.00  0.00    +0.000 A 
ATOM     20  C   UNL     1       7.176   4.970  16.876  0.00  0.00    +0.000 A 
ATOM     21  C   UNL     1       7.561   4.737  18.187  0.00  0.00    +0.000 A 
ATOM     22  S   UNL     1       7.983   6.163  19.029  0.00  0.00    +0.000 S 
ENDBRANCH  15  20
ENDBRANCH  13  15
ENDBRANCH   1  13
TORSDOF 6
ENDMDL
MODEL 6
REMARK VINA RESULT:      -6.4      4.054      5.963
REMARK  Name = 
REMARK  10 active torsions:
REMARK  status: ('A' for Active; 'I' for Inactive)
REMARK    1  A    between atoms: C_1  and  C_2
REMARK    2  A    between atoms: C_4  and  C_5
REMARK    3  A    between atoms: C_5  and  C_6
REMARK    4  A    between atoms: C_5  and  N_7
REMARK    5  A    between atoms: N_7  and  C_8
REMARK    6  A    between atoms: C_8  and  C_9
REMARK    7  A    between atoms: C_9  and  C_10
REMARK    8  A    between atoms: C_9  and  C_11
REMARK    9  A    between atoms: C_9  and  C_12
REMARK   10  A    between atoms: C_12  and  O_13
REMARK                            x       y       z     vdW  Elec       q    Type
REMARK                         _______ _______ _______ _____ _____    ______ ____
ROOT
ATOM      1  C   UNL     1       2.685   5.193  20.296  0.00  0.00    +0.000 C 
ENDROOT
BRANCH   1   2
ATOM      2  C   UNL     1       3.040   3.943  19.418  0.00  0.00    +0.000 C 
ATOM      3  C   UNL     1       2.948   2.677  20.306  0.00  0.00    +0.000 C 
ATOM      4  C   UNL     1       1.920   3.828  18.355  0.00  0.00    +0.000 C 
BRANCH   2   5
ATOM      5  C   UNL     1       4.478   4.066  18.757  0.00  0.00    +0.000 C 
ATOM      6  C   UNL     1       5.308   5.238  19.325  0.00  0.00    +0.000 C 
ATOM      7  C   UNL     1       6.652   5.372  18.616  0.00  0.00    +0.000 C 
ATOM      8  O   UNL     1       6.463   5.534  17.213  0.00  0.00    +0.000 OA
ATOM      9  C   UNL     1       5.840   4.384  16.642  0.00  0.00    +0.000 C 
ATOM     10  C   UNL     1       4.439   4.196  17.218  0.00  0.00    +0.000 C 
BRANCH   5  11
ATOM     11  O   UNL     1       5.209   2.855  19.024  0.00  0.00    +0.000 OA
ATOM     12  H   UNL     1       4.545   2.147  19.184  0.00  0.00    +0.000 HD
ENDBRANCH   5  11
ENDBRANCH   2   5
ENDBRANCH   1   2
BRANCH   1  13
ATOM     13  N   UNL     1       1.752   6.134  19.659  0.00  0.00    +0.000 NA
ATOM     14  H   UNL     1       1.467   5.759  18.752  0.00  0.00    +0.000 HD
BRANCH  13  15
ATOM     15  C   UNL     1       2.348   7.464  19.437  0.00  0.00    +0.000 C 
ATOM     16  C   UNL     1       2.608   7.784  17.959  0.00  0.00    +0.000 C 
BRANCH  15  20
ATOM     17  C   UNL     1      -0.418   9.892  23.074  0.00  0.00    +0.000 C 
ATOM     18  C   UNL     1       0.196   9.563  21.756  0.00  0.00    +0.000 A 
ATOM     19  C   UNL     1       0.957   8.465  21.409  0.00  0.00    +0.000 A 
ATOM     20  C   UNL     1       1.424   8.501  20.047  0.00  0.00    +0.000 A 
ATOM     21  C   UNL     1       0.944   9.637  19.415  0.00  0.00    +0.000 A 
ATOM     22  S   UNL     1      -0.011  10.623  20.434  0.00  0.00    +0.000 S 
ENDBRANCH  15  20
ENDBRANCH  13  15
ENDBRANCH   1  13
TORSDOF 6
ENDMDL
MODEL 7
REMARK VINA RESULT:      -6.4      3.183      6.272
REMARK  Name = 
REMARK  10 active torsions:
REMARK  status: ('A' for Active; 'I' for Inactive)
REMARK    1  A    between atoms: C_1  and  C_2
REMARK    2  A    between atoms: C_4  and  C_5
REMARK    3  A    between atoms: C_5  and  C_6
REMARK    4  A    between atoms: C_5  and  N_7
REMARK    5  A    between atoms: N_7  and  C_8
REMARK    6  A    between atoms: C_8  and  C_9
REMARK    7  A    between atoms: C_9  and  C_10
REMARK    8  A    between atoms: C_9  and  C_11
REMARK    9  A    between atoms: C_9  and  C_12
REMARK   10  A    between atoms: C_12  and  O_13
REMARK                            x       y       z     vdW  Elec       q    Type
REMARK                         _______ _______ _______ _____ _____    ______ ____
ROOT
ATOM      1  C   UNL     1       5.343   5.802  18.188  0.00  0.00    +0.000 C 
ENDROOT
BRANCH   1   2
ATOM      2  C   UNL     1       6.626   5.790  17.286  0.00  0.00    +0.000 C 
ATOM      3  C   UNL     1       7.312   7.175  17.390  0.00  0.00    +0.000 C 
ATOM      4  C   UNL     1       7.592   4.761  17.921  0.00  0.00    +0.000 C 
BRANCH   2   5
ATOM      5  C   UNL     1       6.289   5.438  15.775  0.00  0.00    +0.000 C 
ATOM      6  C   UNL     1       5.409   4.178  15.627  0.00  0.00    +0.000 C 
ATOM      7  C   UNL     1       5.168   3.828  14.162  0.00  0.00    +0.000 C 
ATOM      8  O   UNL     1       6.407   3.648  13.481  0.00  0.00    +0.000 OA
ATOM      9  C   UNL     1       7.167   4.856  13.468  0.00  0.00    +0.000 C 
ATOM     10  C   UNL     1       7.543   5.264  14.890  0.00  0.00    +0.000 C 
BRANCH   5  11
ATOM     11  O   UNL     1       5.562   6.540  15.201  0.00  0.00    +0.000 OA
ATOM     12  H   UNL     1       6.146   7.329  15.252  0.00  0.00    +0.000 HD
ENDBRANCH   5  11
ENDBRANCH   2   5
ENDBRANCH   1   2
BRANCH   1  13
ATOM     13  N   UNL     1       4.243   6.626  17.666  0.00  0.00    +0.000 NA
ATOM     14  H   UNL     1       4.607   7.549  17.418  0.00  0.00    +0.000 HD
BRANCH  13  15
ATOM     15  C   UNL     1       3.156   6.811  18.643  0.00  0.00    +0.000 C 
ATOM     16  C   UNL     1       2.093   7.824  18.197  0.00  0.00    +0.000 C 
BRANCH  15  20
ATOM     17  C   UNL     1       1.297   2.812  21.348  0.00  0.00    +0.000 C 
ATOM     18  C   UNL     1       1.682   3.678  20.197  0.00  0.00    +0.000 A 
ATOM     19  C   UNL     1       2.366   4.876  20.209  0.00  0.00    +0.000 A 
ATOM     20  C   UNL     1       2.521   5.459  18.902  0.00  0.00    +0.000 A 
ATOM     21  C   UNL     1       1.962   4.625  17.946  0.00  0.00    +0.000 A 
ATOM     22  S   UNL     1       1.266   3.212  18.608  0.00  0.00    +0.000 S 
ENDBRANCH  15  20
ENDBRANCH  13  15
ENDBRANCH   1  13
TORSDOF 6
ENDMDL
MODEL 8
REMARK VINA RESULT:      -6.4      2.439      3.814
REMARK  Name = 
REMARK  10 active torsions:
REMARK  status: ('A' for Active; 'I' for Inactive)
REMARK    1  A    between atoms: C_1  and  C_2
REMARK    2  A    between atoms: C_4  and  C_5
REMARK    3  A    between atoms: C_5  and  C_6
REMARK    4  A    between atoms: C_5  and  N_7
REMARK    5  A    between atoms: N_7  and  C_8
REMARK    6  A    between atoms: C_8  and  C_9
REMARK    7  A    between atoms: C_9  and  C_10
REMARK    8  A    between atoms: C_9  and  C_11
REMARK    9  A    between atoms: C_9  and  C_12
REMARK   10  A    between atoms: C_12  and  O_13
REMARK                            x       y       z     vdW  Elec       q    Type
REMARK                         _______ _______ _______ _____ _____    ______ ____
ROOT
ATOM      1  C   UNL     1       4.770   4.255  17.213  0.00  0.00    +0.000 C 
ENDROOT
BRANCH   1   2
ATOM      2  C   UNL     1       4.094   4.852  18.496  0.00  0.00    +0.000 C 
ATOM      3  C   UNL     1       5.209   5.263  19.491  0.00  0.00    +0.000 C 
ATOM      4  C   UNL     1       3.390   6.156  18.048  0.00  0.00    +0.000 C 
BRANCH   2   5
ATOM      5  C   UNL     1       3.084   3.829  19.169  0.00  0.00    +0.000 C 
ATOM      6  C   UNL     1       2.204   3.081  18.144  0.00  0.00    +0.000 C 
ATOM      7  C   UNL     1       1.197   2.164  18.829  0.00  0.00    +0.000 C 
ATOM      8  O   UNL     1       0.381   2.905  19.734  0.00  0.00    +0.000 OA
ATOM      9  C   UNL     1       1.162   3.472  20.785  0.00  0.00    +0.000 C 
ATOM     10  C   UNL     1       2.160   4.481  20.222  0.00  0.00    +0.000 C 
BRANCH   5  11
ATOM     11  O   UNL     1       3.846   2.839  19.885  0.00  0.00    +0.000 OA
ATOM     12  H   UNL     1       3.967   2.075  19.277  0.00  0.00    +0.000 HD
ENDBRANCH   5  11
ENDBRANCH   2   5
ENDBRANCH   1   2
BRANCH   1  13
ATOM     13  N   UNL     1       5.024   5.238  16.150  0.00  0.00    +0.000 NA
ATOM     14  H   UNL     1       4.481   4.982  15.322  0.00  0.00    +0.000 HD
BRANCH  13  15
ATOM     15  C   UNL     1       6.444   5.304  15.761  0.00  0.00    +0.000 C 
ATOM     16  C   UNL     1       7.382   4.576  16.733  0.00  0.00    +0.000 C 
BRANCH  15  20
ATOM     17  C   UNL     1       5.193   2.570  11.550  0.00  0.00    +0.000 C 
ATOM     18  C   UNL     1       5.939   3.469  12.477  0.00  0.00    +0.000 A 
ATOM     19  C   UNL     1       5.656   3.781  13.791  0.00  0.00    +0.000 A 
ATOM     20  C   UNL     1       6.577   4.727  14.365  0.00  0.00    +0.000 A 
ATOM     21  C   UNL     1       7.553   5.056  13.437  0.00  0.00    +0.000 A 
ATOM     22  S   UNL     1       7.348   4.268  11.935  0.00  0.00    +0.000 S 
ENDBRANCH  15  20
ENDBRANCH  13  15
ENDBRANCH   1  13
TORSDOF 6
ENDMDL
MODEL 9
REMARK VINA RESULT:      -6.4      3.286      6.265
REMARK  Name = 
REMARK  10 active torsions:
REMARK  status: ('A' for Active; 'I' for Inactive)
REMARK    1  A    between atoms: C_1  and  C_2
REMARK    2  A    between atoms: C_4  and  C_5
REMARK    3  A    between atoms: C_5  and  C_6
REMARK    4  A    between atoms: C_5  and  N_7
REMARK    5  A    between atoms: N_7  and  C_8
REMARK    6  A    between atoms: C_8  and  C_9
REMARK    7  A    between atoms: C_9  and  C_10
REMARK    8  A    between atoms: C_9  and  C_11
REMARK    9  A    between atoms: C_9  and  C_12
REMARK   10  A    between atoms: C_12  and  O_13
REMARK                            x       y       z     vdW  Elec       q    Type
REMARK                         _______ _______ _______ _____ _____    ______ ____
ROOT
ATOM      1  C   UNL     1       5.259   5.733  18.098  0.00  0.00    +0.000 C 
ENDROOT
BRANCH   1   2
ATOM      2  C   UNL     1       6.569   5.748  17.237  0.00  0.00    +0.000 C 
ATOM      3  C   UNL     1       7.247   7.132  17.400  0.00  0.00    +0.000 C 
ATOM      4  C   UNL     1       7.519   4.705  17.875  0.00  0.00    +0.000 C 
BRANCH   2   5
ATOM      5  C   UNL     1       6.283   5.437  15.707  0.00  0.00    +0.000 C 
ATOM      6  C   UNL     1       5.369   4.209  15.499  0.00  0.00    +0.000 C 
ATOM      7  C   UNL     1       5.176   3.895  14.019  0.00  0.00    +0.000 C 
ATOM      8  O   UNL     1       6.435   3.689  13.383  0.00  0.00    +0.000 OA
ATOM      9  C   UNL     1       7.232   4.872  13.424  0.00  0.00    +0.000 C 
ATOM     10  C   UNL     1       7.565   5.240  14.868  0.00  0.00    +0.000 C 
BRANCH   5  11
ATOM     11  O   UNL     1       5.613   6.572  15.127  0.00  0.00    +0.000 OA
ATOM     12  H   UNL     1       5.680   6.478  14.151  0.00  0.00    +0.000 HD
ENDBRANCH   5  11
ENDBRANCH   2   5
ENDBRANCH   1   2
BRANCH   1  13
ATOM     13  N   UNL     1       4.134   6.469  17.502  0.00  0.00    +0.000 NA
ATOM     14  H   UNL     1       4.498   7.276  16.991  0.00  0.00    +0.000 HD
BRANCH  13  15
ATOM     15  C   UNL     1       3.176   6.959  18.509  0.00  0.00    +0.000 C 
ATOM     16  C   UNL     1       2.176   7.984  17.959  0.00  0.00    +0.000 C 
BRANCH  15  20
ATOM     17  C   UNL     1       0.860   2.334  18.605  0.00  0.00    +0.000 C 
ATOM     18  C   UNL     1       1.413   3.643  19.056  0.00  0.00    +0.000 A 
ATOM     19  C   UNL     1       1.972   4.651  18.298  0.00  0.00    +0.000 A 
ATOM     20  C   UNL     1       2.444   5.761  19.083  0.00  0.00    +0.000 A 
ATOM     21  C   UNL     1       2.174   5.538  20.424  0.00  0.00    +0.000 A 
ATOM     22  S   UNL     1       1.400   4.043  20.716  0.00  0.00    +0.000 S 
ENDBRANCH  15  20
ENDBRANCH  13  15
ENDBRANCH   1  13
TORSDOF 6
ENDMDL
