MODEL 1
REMARK VINA RESULT:      -7.4      0.000      0.000
REMARK  Name = 
REMARK  6 active torsions:
REMARK  status: ('A' for Active; 'I' for Inactive)
REMARK    1  A    between atoms: N_1  and  S_2
REMARK    2  A    between atoms: S_2  and  C_5
REMARK    3  A    between atoms: C_8  and  N_9
REMARK    4  A    between atoms: C_11  and  C_12
REMARK    5  A    between atoms: C_12  and  O_13
REMARK    6  A    between atoms: C_16  and  C_17
REMARK                            x       y       z     vdW  Elec       q    Type
REMARK                         _______ _______ _______ _____ _____    ______ ____
ROOT
ATOM      1  N   UNL     1       2.701   5.105  19.831  0.00  0.00    +0.000 N 
ATOM      2  N   UNL     1       2.180   4.478  20.932  0.00  0.00    +0.000 NA
ATOM      3  C   UNL     1       2.544   3.199  20.799  0.00  0.00    +0.000 A 
ATOM      4  C   UNL     1       3.406   3.012  19.705  0.00  0.00    +0.000 A 
ATOM      5 CL   UNL     1       4.196   1.542  19.360  0.00  0.00    +0.000 Cl
ATOM      6  C   UNL     1       3.525   4.247  19.078  0.00  0.00    +0.000 A 
ENDROOT
BRANCH   6   7
ATOM      7  C   UNL     1       4.448   4.612  17.979  0.00  0.00    +0.000 A 
ATOM      8  C   UNL     1       4.182   4.195  16.664  0.00  0.00    +0.000 A 
ATOM      9  C   UNL     1       5.112   4.387  15.637  0.00  0.00    +0.000 A 
ATOM     10  C   UNL     1       6.297   5.064  15.899  0.00  0.00    +0.000 A 
ATOM     11 CL   UNL     1       7.453   5.286  14.646  0.00  0.00    +0.000 Cl
ATOM     12  C   UNL     1       6.558   5.545  17.177  0.00  0.00    +0.000 A 
ATOM     13  C   UNL     1       5.655   5.289  18.216  0.00  0.00    +0.000 A 
ENDBRANCH   6   7
BRANCH   1  17
ATOM     14  C   UNL     1       1.559   9.106  19.114  0.00  0.00    +0.000 A 
ATOM     15  C   UNL     1       2.128   8.351  18.083  0.00  0.00    +0.000 A 
ATOM     16  C   UNL     1       2.568   7.045  18.343  0.00  0.00    +0.000 A 
ATOM     17  C   UNL     1       2.404   6.488  19.622  0.00  0.00    +0.000 A 
ATOM     18  C   UNL     1       1.909   7.283  20.665  0.00  0.00    +0.000 A 
ATOM     19  C   UNL     1       1.476   8.589  20.408  0.00  0.00    +0.000 A 
BRANCH  14  20
ATOM     20  S   UNL     1       0.927  10.726  18.785  0.00  0.00    +0.000 S 
ATOM     21  O   UNL     1       1.020  11.515  19.990  0.00  0.00    +0.000 OA
ATOM     22  O   UNL     1      -0.289  10.616  18.014  0.00  0.00    +0.000 OA
BRANCH  20  23
ATOM     23  N   UNL     1       2.061  11.360  17.716  0.00  0.00    +0.000 NA
ATOM     24  H   UNL     1       2.570  10.592  17.274  0.00  0.00    +0.000 HD
ATOM     25  H   UNL     1       2.673  12.009  18.212  0.00  0.00    +0.000 HD
ENDBRANCH  20  23
ENDBRANCH  14  20
ENDBRANCH   1  17
BRANCH   3  26
ATOM     26  C   UNL     1       2.110   2.155  21.787  0.00  0.00    +0.000 C 
BRANCH  26  27
ATOM     27  O   UNL     1       0.863   2.470  22.408  0.00  0.00    +0.000 OA
ATOM     28  H   UNL     1       0.612   1.660  22.891  0.00  0.00    +0.000 HD
ENDBRANCH  26  27
ENDBRANCH   3  26
TORSDOF 6
ENDMDL
MODEL 2
REMARK VINA RESULT:      -7.2      0.701      1.303
REMARK  Name = 
REMARK  6 active torsions:
REMARK  status: ('A' for Active; 'I' for Inactive)
REMARK    1  A    between atoms: N_1  and  S_2
REMARK    2  A    between atoms: S_2  and  C_5
REMARK    3  A    between atoms: C_8  and  N_9
REMARK    4  A    between atoms: C_11  and  C_12
REMARK    5  A    between atoms: C_12  and  O_13
REMARK    6  A    between atoms: C_16  and  C_17
REMARK                            x       y       z     vdW  Elec       q    Type
REMARK                         _______ _______ _______ _____ _____    ______ ____
ROOT
ATOM      1  N   UNL     1       2.659   5.030  19.781  0.00  0.00    +0.000 N 
ATOM      2  N   UNL     1       2.182   4.421  20.911  0.00  0.00    +0.000 NA
ATOM      3  C   UNL     1       2.664   3.176  20.856  0.00  0.00    +0.000 A 
ATOM      4  C   UNL     1       3.555   3.006  19.782  0.00  0.00    +0.000 A 
ATOM      5 CL   UNL     1       4.480   1.599  19.531  0.00  0.00    +0.000 Cl
ATOM      6  C   UNL     1       3.569   4.210  19.086  0.00  0.00    +0.000 A 
ENDROOT
BRANCH   6   7
ATOM      7  C   UNL     1       4.471   4.596  17.977  0.00  0.00    +0.000 A 
ATOM      8  C   UNL     1       4.244   4.107  16.679  0.00  0.00    +0.000 A 
ATOM      9  C   UNL     1       5.165   4.323  15.649  0.00  0.00    +0.000 A 
ATOM     10  C   UNL     1       6.296   5.095  15.886  0.00  0.00    +0.000 A 
ATOM     11 CL   UNL     1       7.441   5.347  14.629  0.00  0.00    +0.000 Cl
ATOM     12  C   UNL     1       6.513   5.645  17.145  0.00  0.00    +0.000 A 
ATOM     13  C   UNL     1       5.624   5.367  18.190  0.00  0.00    +0.000 A 
ENDBRANCH   6   7
BRANCH   1  17
ATOM     14  C   UNL     1       1.682   9.067  19.024  0.00  0.00    +0.000 A 
ATOM     15  C   UNL     1       1.427   8.515  20.283  0.00  0.00    +0.000 A 
ATOM     16  C   UNL     1       1.690   7.156  20.510  0.00  0.00    +0.000 A 
ATOM     17  C   UNL     1       2.240   6.365  19.489  0.00  0.00    +0.000 A 
ATOM     18  C   UNL     1       2.413   6.910  18.209  0.00  0.00    +0.000 A 
ATOM     19  C   UNL     1       2.145   8.265  17.980  0.00  0.00    +0.000 A 
BRANCH  14  20
ATOM     20  S   UNL     1       1.430  10.796  18.743  0.00  0.00    +0.000 S 
ATOM     21  O   UNL     1       2.443  11.273  17.834  0.00  0.00    +0.000 OA
ATOM     22  O   UNL     1       1.140  11.446  20.000  0.00  0.00    +0.000 OA
BRANCH  20  23
ATOM     23  N   UNL     1      -0.022  10.829  17.895  0.00  0.00    +0.000 NA
ATOM     24  H   UNL     1       0.176  10.842  16.893  0.00  0.00    +0.000 HD
ATOM     25  H   UNL     1      -0.578  11.630  18.200  0.00  0.00    +0.000 HD
ENDBRANCH  20  23
ENDBRANCH  14  20
ENDBRANCH   1  17
BRANCH   3  26
ATOM     26  C   UNL     1       2.312   2.154  21.899  0.00  0.00    +0.000 C 
BRANCH  26  27
ATOM     27  O   UNL     1       1.088   2.453  22.571  0.00  0.00    +0.000 OA
ATOM     28  H   UNL     1       0.661   3.137  22.020  0.00  0.00    +0.000 HD
ENDBRANCH  26  27
ENDBRANCH   3  26
TORSDOF 6
ENDMDL
MODEL 3
REMARK VINA RESULT:      -7.1      1.569      1.805
REMARK  Name = 
REMARK  6 active torsions:
REMARK  status: ('A' for Active; 'I' for Inactive)
REMARK    1  A    between atoms: N_1  and  S_2
REMARK    2  A    between atoms: S_2  and  C_5
REMARK    3  A    between atoms: C_8  and  N_9
REMARK    4  A    between atoms: C_11  and  C_12
REMARK    5  A    between atoms: C_12  and  O_13
REMARK    6  A    between atoms: C_16  and  C_17
REMARK                            x       y       z     vdW  Elec       q    Type
REMARK                         _______ _______ _______ _____ _____    ______ ____
ROOT
ATOM      1  N   UNL     1       2.282   5.759  19.789  0.00  0.00    +0.000 N 
ATOM      2  N   UNL     1       1.459   4.957  20.533  0.00  0.00    +0.000 NA
ATOM      3  C   UNL     1       1.950   3.724  20.373  0.00  0.00    +0.000 A 
ATOM      4  C   UNL     1       3.155   3.731  19.651  0.00  0.00    +0.000 A 
ATOM      5 CL   UNL     1       4.133   2.354  19.424  0.00  0.00    +0.000 Cl
ATOM      6  C   UNL     1       3.387   5.050  19.278  0.00  0.00    +0.000 A 
ENDROOT
BRANCH   6   7
ATOM      7  C   UNL     1       4.605   5.606  18.647  0.00  0.00    +0.000 A 
ATOM      8  C   UNL     1       5.852   5.473  19.282  0.00  0.00    +0.000 A 
ATOM      9  C   UNL     1       6.990   6.122  18.792  0.00  0.00    +0.000 A 
ATOM     10  C   UNL     1       6.911   6.859  17.616  0.00  0.00    +0.000 A 
ATOM     11 CL   UNL     1       8.301   7.676  17.020  0.00  0.00    +0.000 Cl
ATOM     12  C   UNL     1       5.704   6.954  16.933  0.00  0.00    +0.000 A 
ATOM     13  C   UNL     1       4.552   6.361  17.466  0.00  0.00    +0.000 A 
ENDBRANCH   6   7
BRANCH   1  17
ATOM     14  C   UNL     1       1.079   9.782  19.355  0.00  0.00    +0.000 A 
ATOM     15  C   UNL     1       1.585   9.087  18.253  0.00  0.00    +0.000 A 
ATOM     16  C   UNL     1       2.047   7.772  18.416  0.00  0.00    +0.000 A 
ATOM     17  C   UNL     1       1.966   7.148  19.671  0.00  0.00    +0.000 A 
ATOM     18  C   UNL     1       1.534   7.884  20.784  0.00  0.00    +0.000 A 
ATOM     19  C   UNL     1       1.079   9.198  20.623  0.00  0.00    +0.000 A 
BRANCH  14  20
ATOM     20  S   UNL     1       0.420  11.413  19.152  0.00  0.00    +0.000 S 
ATOM     21  O   UNL     1       1.461  12.276  18.647  0.00  0.00    +0.000 OA
ATOM     22  O   UNL     1      -0.384  11.749  20.304  0.00  0.00    +0.000 OA
BRANCH  20  23
ATOM     23  N   UNL     1      -0.683  11.217  17.897  0.00  0.00    +0.000 NA
ATOM     24  H   UNL     1      -1.629  11.342  18.262  0.00  0.00    +0.000 HD
ATOM     25  H   UNL     1      -0.544  10.305  17.459  0.00  0.00    +0.000 HD
ENDBRANCH  20  23
ENDBRANCH  14  20
ENDBRANCH   1  17
BRANCH   3  26
ATOM     26  C   UNL     1       1.281   2.528  20.990  0.00  0.00    +0.000 C 
BRANCH  26  27
ATOM     27  O   UNL     1       1.566   2.398  22.384  0.00  0.00    +0.000 OA
ATOM     28  H   UNL     1       1.997   3.239  22.631  0.00  0.00    +0.000 HD
ENDBRANCH  26  27
ENDBRANCH   3  26
TORSDOF 6
ENDMDL
MODEL 4
REMARK VINA RESULT:      -7.0      1.834      2.050
REMARK  Name = 
REMARK  6 active torsions:
REMARK  status: ('A' for Active; 'I' for Inactive)
REMARK    1  A    between atoms: N_1  and  S_2
REMARK    2  A    between atoms: S_2  and  C_5
REMARK    3  A    between atoms: C_8  and  N_9
REMARK    4  A    between atoms: C_11  and  C_12
REMARK    5  A    between atoms: C_12  and  O_13
REMARK    6  A    between atoms: C_16  and  C_17
REMARK                            x       y       z     vdW  Elec       q    Type
REMARK                         _______ _______ _______ _____ _____    ______ ____
ROOT
ATOM      1  N   UNL     1       2.190   5.505  19.248  0.00  0.00    +0.000 N 
ATOM      2  N   UNL     1       1.296   4.574  19.707  0.00  0.00    +0.000 NA
ATOM      3  C   UNL     1       1.756   3.406  19.246  0.00  0.00    +0.000 A 
ATOM      4  C   UNL     1       3.003   3.547  18.614  0.00  0.00    +0.000 A 
ATOM      5 CL   UNL     1       3.946   2.235  18.075  0.00  0.00    +0.000 Cl
ATOM      6  C   UNL     1       3.300   4.905  18.622  0.00  0.00    +0.000 A 
ENDROOT
BRANCH   6   7
ATOM      7  C   UNL     1       4.573   5.549  18.226  0.00  0.00    +0.000 A 
ATOM      8  C   UNL     1       5.725   5.381  19.013  0.00  0.00    +0.000 A 
ATOM      9  C   UNL     1       6.895   6.101  18.754  0.00  0.00    +0.000 A 
ATOM     10  C   UNL     1       6.952   6.952  17.657  0.00  0.00    +0.000 A 
ATOM     11 CL   UNL     1       8.380   7.856  17.344  0.00  0.00    +0.000 Cl
ATOM     12  C   UNL     1       5.847   7.090  16.824  0.00  0.00    +0.000 A 
ATOM     13  C   UNL     1       4.656   6.420  17.128  0.00  0.00    +0.000 A 
ENDBRANCH   6   7
BRANCH   1  17
ATOM     14  C   UNL     1       1.140   9.544  19.881  0.00  0.00    +0.000 A 
ATOM     15  C   UNL     1       1.564   9.128  18.616  0.00  0.00    +0.000 A 
ATOM     16  C   UNL     1       1.976   7.801  18.426  0.00  0.00    +0.000 A 
ATOM     17  C   UNL     1       1.928   6.889  19.492  0.00  0.00    +0.000 A 
ATOM     18  C   UNL     1       1.580   7.340  20.774  0.00  0.00    +0.000 A 
ATOM     19  C   UNL     1       1.174   8.666  20.966  0.00  0.00    +0.000 A 
BRANCH  14  20
ATOM     20  S   UNL     1       0.541  11.193  20.121  0.00  0.00    +0.000 S 
ATOM     21  O   UNL     1       1.400  11.867  21.065  0.00  0.00    +0.000 OA
ATOM     22  O   UNL     1      -0.896  11.164  20.255  0.00  0.00    +0.000 OA
BRANCH  20  23
ATOM     23  N   UNL     1       0.822  11.914  18.627  0.00  0.00    +0.000 NA
ATOM     24  H   UNL     1       0.660  11.226  17.889  0.00  0.00    +0.000 HD
ATOM     25  H   UNL     1       1.766  12.303  18.608  0.00  0.00    +0.000 HD
ENDBRANCH  20  23
ENDBRANCH  14  20
ENDBRANCH   1  17
BRANCH   3  26
ATOM     26  C   UNL     1       1.011   2.123  19.484  0.00  0.00    +0.000 C 
BRANCH  26  27
ATOM     27  O   UNL     1       0.285   1.688  18.334  0.00  0.00    +0.000 OA
ATOM     28  H   UNL     1       0.968   1.511  17.659  0.00  0.00    +0.000 HD
ENDBRANCH  26  27
ENDBRANCH   3  26
TORSDOF 6
ENDMDL
MODEL 5
REMARK VINA RESULT:      -6.9      1.627      1.886
REMARK  Name = 
REMARK  6 active torsions:
REMARK  status: ('A' for Active; 'I' for Inactive)
REMARK    1  A    between atoms: N_1  and  S_2
REMARK    2  A    between atoms: S_2  and  C_5
REMARK    3  A    between atoms: C_8  and  N_9
REMARK    4  A    between atoms: C_11  and  C_12
REMARK    5  A    between atoms: C_12  and  O_13
REMARK    6  A    between atoms: C_16  and  C_17
REMARK                            x       y       z     vdW  Elec       q    Type
REMARK                         _______ _______ _______ _____ _____    ______ ____
ROOT
ATOM      1  N   UNL     1       2.231   5.745  19.895  0.00  0.00    +0.000 N 
ATOM      2  N   UNL     1       1.415   4.922  20.626  0.00  0.00    +0.000 NA
ATOM      3  C   UNL     1       1.868   3.689  20.381  0.00  0.00    +0.000 A 
ATOM      4  C   UNL     1       3.046   3.707  19.614  0.00  0.00    +0.000 A 
ATOM      5 CL   UNL     1       3.979   2.322  19.276  0.00  0.00    +0.000 Cl
ATOM      6  C   UNL     1       3.298   5.039  19.306  0.00  0.00    +0.000 A 
ENDROOT
BRANCH   6   7
ATOM      7  C   UNL     1       4.506   5.600  18.660  0.00  0.00    +0.000 A 
ATOM      8  C   UNL     1       5.764   5.457  19.270  0.00  0.00    +0.000 A 
ATOM      9  C   UNL     1       6.895   6.110  18.768  0.00  0.00    +0.000 A 
ATOM     10  C   UNL     1       6.796   6.860  17.603  0.00  0.00    +0.000 A 
ATOM     11 CL   UNL     1       8.178   7.681  16.992  0.00  0.00    +0.000 Cl
ATOM     12  C   UNL     1       5.578   6.966  16.943  0.00  0.00    +0.000 A 
ATOM     13  C   UNL     1       4.435   6.368  17.488  0.00  0.00    +0.000 A 
ENDBRANCH   6   7
BRANCH   1  17
ATOM     14  C   UNL     1       1.119   9.814  19.724  0.00  0.00    +0.000 A 
ATOM     15  C   UNL     1       1.577   9.171  18.571  0.00  0.00    +0.000 A 
ATOM     16  C   UNL     1       2.010   7.838  18.646  0.00  0.00    +0.000 A 
ATOM     17  C   UNL     1       1.948   7.146  19.866  0.00  0.00    +0.000 A 
ATOM     18  C   UNL     1       1.564   7.827  21.030  0.00  0.00    +0.000 A 
ATOM     19  C   UNL     1       1.138   9.158  20.957  0.00  0.00    +0.000 A 
BRANCH  14  20
ATOM     20  S   UNL     1       0.496  11.468  19.632  0.00  0.00    +0.000 S 
ATOM     21  O   UNL     1      -0.946  11.422  19.612  0.00  0.00    +0.000 OA
ATOM     22  O   UNL     1       1.268  12.215  18.667  0.00  0.00    +0.000 OA
BRANCH  20  23
ATOM     23  N   UNL     1       0.928  12.114  21.124  0.00  0.00    +0.000 NA
ATOM     24  H   UNL     1       1.459  12.975  20.974  0.00  0.00    +0.000 HD
ATOM     25  H   UNL     1       1.446  11.417  21.661  0.00  0.00    +0.000 HD
ENDBRANCH  20  23
ENDBRANCH  14  20
ENDBRANCH   1  17
BRANCH   3  26
ATOM     26  C   UNL     1       1.192   2.478  20.956  0.00  0.00    +0.000 C 
BRANCH  26  27
ATOM     27  O   UNL     1       1.572   2.228  22.311  0.00  0.00    +0.000 OA
ATOM     28  H   UNL     1       1.821   1.284  22.330  0.00  0.00    +0.000 HD
ENDBRANCH  26  27
ENDBRANCH   3  26
TORSDOF 6
ENDMDL
MODEL 6
REMARK VINA RESULT:      -6.9      1.386      1.904
REMARK  Name = 
REMARK  6 active torsions:
REMARK  status: ('A' for Active; 'I' for Inactive)
REMARK    1  A    between atoms: N_1  and  S_2
REMARK    2  A    between atoms: S_2  and  C_5
REMARK    3  A    between atoms: C_8  and  N_9
REMARK    4  A    between atoms: C_11  and  C_12
REMARK    5  A    between atoms: C_12  and  O_13
REMARK    6  A    between atoms: C_16  and  C_17
REMARK                            x       y       z     vdW  Elec       q    Type
REMARK                         _______ _______ _______ _____ _____    ______ ____
ROOT
ATOM      1  N   UNL     1       2.286   5.638  19.705  0.00  0.00    +0.000 N 
ATOM      2  N   UNL     1       1.488   4.814  20.454  0.00  0.00    +0.000 NA
ATOM      3  C   UNL     1       2.061   3.610  20.361  0.00  0.00    +0.000 A 
ATOM      4  C   UNL     1       3.289   3.666  19.679  0.00  0.00    +0.000 A 
ATOM      5 CL   UNL     1       4.357   2.347  19.542  0.00  0.00    +0.000 Cl
ATOM      6  C   UNL     1       3.451   4.982  19.262  0.00  0.00    +0.000 A 
ENDROOT
BRANCH   6   7
ATOM      7  C   UNL     1       4.654   5.590  18.650  0.00  0.00    +0.000 A 
ATOM      8  C   UNL     1       5.902   5.481  19.288  0.00  0.00    +0.000 A 
ATOM      9  C   UNL     1       7.022   6.176  18.819  0.00  0.00    +0.000 A 
ATOM     10  C   UNL     1       6.925   6.937  17.661  0.00  0.00    +0.000 A 
ATOM     11 CL   UNL     1       8.292   7.809  17.091  0.00  0.00    +0.000 Cl
ATOM     12  C   UNL     1       5.718   7.011  16.974  0.00  0.00    +0.000 A 
ATOM     13  C   UNL     1       4.584   6.370  17.486  0.00  0.00    +0.000 A 
ENDBRANCH   6   7
BRANCH   1  17
ATOM     14  C   UNL     1       1.389   9.736  19.231  0.00  0.00    +0.000 A 
ATOM     15  C   UNL     1       1.290   9.146  20.494  0.00  0.00    +0.000 A 
ATOM     16  C   UNL     1       1.523   7.770  20.636  0.00  0.00    +0.000 A 
ATOM     17  C   UNL     1       1.889   6.999  19.521  0.00  0.00    +0.000 A 
ATOM     18  C   UNL     1       1.904   7.587  18.248  0.00  0.00    +0.000 A 
ATOM     19  C   UNL     1       1.665   8.959  18.105  0.00  0.00    +0.000 A 
BRANCH  14  20
ATOM     20  S   UNL     1       1.175  11.484  19.047  0.00  0.00    +0.000 S 
ATOM     21  O   UNL     1       1.632  12.138  20.249  0.00  0.00    +0.000 OA
ATOM     22  O   UNL     1      -0.117  11.746  18.456  0.00  0.00    +0.000 OA
BRANCH  20  23
ATOM     23  N   UNL     1       2.286  11.872  17.845  0.00  0.00    +0.000 NA
ATOM     24  H   UNL     1       2.610  12.831  17.986  0.00  0.00    +0.000 HD
ATOM     25  H   UNL     1       1.861  11.727  16.927  0.00  0.00    +0.000 HD
ENDBRANCH  20  23
ENDBRANCH  14  20
ENDBRANCH   1  17
BRANCH   3  26
ATOM     26  C   UNL     1       1.446   2.399  21.002  0.00  0.00    +0.000 C 
BRANCH  26  27
ATOM     27  O   UNL     1       1.483   2.455  22.429  0.00  0.00    +0.000 OA
ATOM     28  H   UNL     1       2.312   2.003  22.676  0.00  0.00    +0.000 HD
ENDBRANCH  26  27
ENDBRANCH   3  26
TORSDOF 6
ENDMDL
MODEL 7
REMARK VINA RESULT:      -6.8      5.450      8.340
REMARK  Name = 
REMARK  6 active torsions:
REMARK  status: ('A' for Active; 'I' for Inactive)
REMARK    1  A    between atoms: N_1  and  S_2
REMARK    2  A    between atoms: S_2  and  C_5
REMARK    3  A    between atoms: C_8  and  N_9
REMARK    4  A    between atoms: C_11  and  C_12
REMARK    5  A    between atoms: C_12  and  O_13
REMARK    6  A    between atoms: C_16  and  C_17
REMARK                            x       y       z     vdW  Elec       q    Type
REMARK                         _______ _______ _______ _____ _____    ______ ____
ROOT
ATOM      1  N   UNL     1      -0.301  10.686  20.361  0.00  0.00    +0.000 N 
ATOM      2  N   UNL     1      -0.252  11.108  21.664  0.00  0.00    +0.000 NA
ATOM      3  C   UNL     1      -1.177  12.070  21.743  0.00  0.00    +0.000 A 
ATOM      4  C   UNL     1      -1.917  12.184  20.554  0.00  0.00    +0.000 A 
ATOM      5 CL   UNL     1      -3.284  13.185  20.380  0.00  0.00    +0.000 Cl
ATOM      6  C   UNL     1      -1.364  11.279  19.655  0.00  0.00    +0.000 A 
ENDROOT
BRANCH   6   7
ATOM      7  C   UNL     1      -1.889  10.900  18.323  0.00  0.00    +0.000 A 
ATOM      8  C   UNL     1      -1.852  11.820  17.261  0.00  0.00    +0.000 A 
ATOM      9  C   UNL     1      -2.482  11.549  16.042  0.00  0.00    +0.000 A 
ATOM     10  C   UNL     1      -3.100  10.321  15.844  0.00  0.00    +0.000 A 
ATOM     11 CL   UNL     1      -3.893   9.990  14.355  0.00  0.00    +0.000 Cl
ATOM     12  C   UNL     1      -3.097   9.367  16.855  0.00  0.00    +0.000 A 
ATOM     13  C   UNL     1      -2.526   9.670  18.098  0.00  0.00    +0.000 A 
ENDBRANCH   6   7
BRANCH   1  17
ATOM     14  C   UNL     1       2.270   7.633  18.985  0.00  0.00    +0.000 A 
ATOM     15  C   UNL     1       1.814   7.613  20.306  0.00  0.00    +0.000 A 
ATOM     16  C   UNL     1       1.015   8.664  20.779  0.00  0.00    +0.000 A 
ATOM     17  C   UNL     1       0.647   9.711  19.919  0.00  0.00    +0.000 A 
ATOM     18  C   UNL     1       1.178   9.761  18.622  0.00  0.00    +0.000 A 
ATOM     19  C   UNL     1       1.980   8.715  18.151  0.00  0.00    +0.000 A 
BRANCH  14  20
ATOM     20  S   UNL     1       3.213   6.276  18.348  0.00  0.00    +0.000 S 
ATOM     21  O   UNL     1       4.300   6.797  17.555  0.00  0.00    +0.000 OA
ATOM     22  O   UNL     1       2.313   5.255  17.865  0.00  0.00    +0.000 OA
BRANCH  20  23
ATOM     23  N   UNL     1       3.907   5.621  19.733  0.00  0.00    +0.000 NA
ATOM     24  H   UNL     1       3.360   5.906  20.548  0.00  0.00    +0.000 HD
ATOM     25  H   UNL     1       4.886   5.906  19.792  0.00  0.00    +0.000 HD
ENDBRANCH  20  23
ENDBRANCH  14  20
ENDBRANCH   1  17
BRANCH   3  26
ATOM     26  C   UNL     1      -1.396  12.842  23.013  0.00  0.00    +0.000 C 
BRANCH  26  27
ATOM     27  O   UNL     1      -2.592  12.455  23.692  0.00  0.00    +0.000 OA
ATOM     28  H   UNL     1      -2.781  13.191  24.305  0.00  0.00    +0.000 HD
ENDBRANCH  26  27
ENDBRANCH   3  26
TORSDOF 6
ENDMDL
MODEL 8
REMARK VINA RESULT:      -6.7      2.771      5.017
REMARK  Name = 
REMARK  6 active torsions:
REMARK  status: ('A' for Active; 'I' for Inactive)
REMARK    1  A    between atoms: N_1  and  S_2
REMARK    2  A    between atoms: S_2  and  C_5
REMARK    3  A    between atoms: C_8  and  N_9
REMARK    4  A    between atoms: C_11  and  C_12
REMARK    5  A    between atoms: C_12  and  O_13
REMARK    6  A    between atoms: C_16  and  C_17
REMARK                            x       y       z     vdW  Elec       q    Type
REMARK                         _______ _______ _______ _____ _____    ______ ____
ROOT
ATOM      1  N   UNL     1       2.982   7.048  18.277  0.00  0.00    +0.000 N 
ATOM      2  N   UNL     1       3.623   7.468  17.142  0.00  0.00    +0.000 NA
ATOM      3  C   UNL     1       4.386   6.432  16.779  0.00  0.00    +0.000 A 
ATOM      4  C   UNL     1       4.148   5.302  17.580  0.00  0.00    +0.000 A 
ATOM      5 CL   UNL     1       4.819   3.766  17.275  0.00  0.00    +0.000 Cl
ATOM      6  C   UNL     1       3.226   5.688  18.547  0.00  0.00    +0.000 A 
ENDROOT
BRANCH   6   7
ATOM      7  C   UNL     1       2.529   4.818  19.522  0.00  0.00    +0.000 A 
ATOM      8  C   UNL     1       2.998   4.721  20.843  0.00  0.00    +0.000 A 
ATOM      9  C   UNL     1       2.461   3.791  21.739  0.00  0.00    +0.000 A 
ATOM     10  C   UNL     1       1.395   2.992  21.345  0.00  0.00    +0.000 A 
ATOM     11 CL   UNL     1       0.743   1.833  22.436  0.00  0.00    +0.000 Cl
ATOM     12  C   UNL     1       0.869   3.112  20.064  0.00  0.00    +0.000 A 
ATOM     13  C   UNL     1       1.456   3.994  19.149  0.00  0.00    +0.000 A 
ENDBRANCH   6   7
BRANCH   1  17
ATOM     14  C   UNL     1       0.766   9.903  20.458  0.00  0.00    +0.000 A 
ATOM     15  C   UNL     1       1.152   8.708  21.072  0.00  0.00    +0.000 A 
ATOM     16  C   UNL     1       1.829   7.733  20.325  0.00  0.00    +0.000 A 
ATOM     17  C   UNL     1       2.148   7.973  18.979  0.00  0.00    +0.000 A 
ATOM     18  C   UNL     1       1.683   9.139  18.355  0.00  0.00    +0.000 A 
ATOM     19  C   UNL     1       1.001  10.110  19.098  0.00  0.00    +0.000 A 
BRANCH  14  20
ATOM     20  S   UNL     1      -0.020  11.177  21.405  0.00  0.00    +0.000 S 
ATOM     21  O   UNL     1      -0.035  10.782  22.793  0.00  0.00    +0.000 OA
ATOM     22  O   UNL     1      -1.201  11.629  20.708  0.00  0.00    +0.000 OA
BRANCH  20  23
ATOM     23  N   UNL     1       1.067  12.455  21.288  0.00  0.00    +0.000 NA
ATOM     24  H   UNL     1       0.547  13.333  21.244  0.00  0.00    +0.000 HD
ATOM     25  H   UNL     1       1.675  12.313  20.479  0.00  0.00    +0.000 HD
ENDBRANCH  20  23
ENDBRANCH  14  20
ENDBRANCH   1  17
BRANCH   3  26
ATOM     26  C   UNL     1       5.307   6.515  15.596  0.00  0.00    +0.000 C 
BRANCH  26  27
ATOM     27  O   UNL     1       6.670   6.260  15.942  0.00  0.00    +0.000 OA
ATOM     28  H   UNL     1       7.176   6.471  15.134  0.00  0.00    +0.000 HD
ENDBRANCH  26  27
ENDBRANCH   3  26
TORSDOF 6
ENDMDL
MODEL 9
REMARK VINA RESULT:      -6.7      5.404      8.444
REMARK  Name = 
REMARK  6 active torsions:
REMARK  status: ('A' for Active; 'I' for Inactive)
REMARK    1  A    between atoms: N_1  and  S_2
REMARK    2  A    between atoms: S_2  and  C_5
REMARK    3  A    between atoms: C_8  and  N_9
REMARK    4  A    between atoms: C_11  and  C_12
REMARK    5  A    between atoms: C_12  and  O_13
REMARK    6  A    between atoms: C_16  and  C_17
REMARK                            x       y       z     vdW  Elec       q    Type
REMARK                         _______ _______ _______ _____ _____    ______ ____
ROOT
ATOM      1  N   UNL     1      -0.246  10.942  20.621  0.00  0.00    +0.000 N 
ATOM      2  N   UNL     1      -0.110  11.379  21.912  0.00  0.00    +0.000 NA
ATOM      3  C   UNL     1      -0.996  12.373  22.029  0.00  0.00    +0.000 A 
ATOM      4  C   UNL     1      -1.798  12.497  20.881  0.00  0.00    +0.000 A 
ATOM      5 CL   UNL     1      -3.138  13.542  20.770  0.00  0.00    +0.000 Cl
ATOM      6  C   UNL     1      -1.327  11.562  19.967  0.00  0.00    +0.000 A 
ENDROOT
BRANCH   6   7
ATOM      7  C   UNL     1      -1.939  11.184  18.672  0.00  0.00    +0.000 A 
ATOM      8  C   UNL     1      -2.592   9.947  18.534  0.00  0.00    +0.000 A 
ATOM      9  C   UNL     1      -3.038   9.495  17.288  0.00  0.00    +0.000 A 
ATOM     10  C   UNL     1      -2.899  10.309  16.170  0.00  0.00    +0.000 A 
ATOM     11 CL   UNL     1      -3.427   9.751  14.632  0.00  0.00    +0.000 Cl
ATOM     12  C   UNL     1      -2.314  11.564  16.290  0.00  0.00    +0.000 A 
ATOM     13  C   UNL     1      -1.807  11.982  17.526  0.00  0.00    +0.000 A 
ENDBRANCH   6   7
BRANCH   1  17
ATOM     14  C   UNL     1       2.138   7.792  19.132  0.00  0.00    +0.000 A 
ATOM     15  C   UNL     1       1.702   7.764  20.460  0.00  0.00    +0.000 A 
ATOM     16  C   UNL     1       0.967   8.844  20.970  0.00  0.00    +0.000 A 
ATOM     17  C   UNL     1       0.642   9.929  20.141  0.00  0.00    +0.000 A 
ATOM     18  C   UNL     1       1.156   9.983  18.837  0.00  0.00    +0.000 A 
ATOM     19  C   UNL     1       1.895   8.908  18.329  0.00  0.00    +0.000 A 
BRANCH  14  20
ATOM     20  S   UNL     1       2.999   6.404  18.449  0.00  0.00    +0.000 S 
ATOM     21  O   UNL     1       4.086   6.886  17.633  0.00  0.00    +0.000 OA
ATOM     22  O   UNL     1       2.039   5.433  17.978  0.00  0.00    +0.000 OA
BRANCH  20  23
ATOM     23  N   UNL     1       3.701   5.695  19.804  0.00  0.00    +0.000 NA
ATOM     24  H   UNL     1       4.470   6.285  20.128  0.00  0.00    +0.000 HD
ATOM     25  H   UNL     1       3.997   4.745  19.577  0.00  0.00    +0.000 HD
ENDBRANCH  20  23
ENDBRANCH  14  20
ENDBRANCH   1  17
BRANCH   3  26
ATOM     26  C   UNL     1      -1.117  13.169  23.297  0.00  0.00    +0.000 C 
BRANCH  26  27
ATOM     27  O   UNL     1      -0.426  14.417  23.231  0.00  0.00    +0.000 OA
ATOM     28  H   UNL     1      -0.214  14.535  22.285  0.00  0.00    +0.000 HD
ENDBRANCH  26  27
ENDBRANCH   3  26
TORSDOF 6
ENDMDL
