MODEL 1
REMARK VINA RESULT:      -7.8      0.000      0.000
REMARK  Name = 
REMARK  8 active torsions:
REMARK  status: ('A' for Active; 'I' for Inactive)
REMARK    1  A    between atoms: C_1  and  O_2
REMARK    2  A    between atoms: O_2  and  C_3
REMARK    3  A    between atoms: C_3  and  C_5
REMARK    4  A    between atoms: C_10  and  N_11
REMARK    5  A    between atoms: N_11  and  C_12
REMARK    6  A    between atoms: C_12  and  C_13
REMARK    7  A    between atoms: C_20  and  O_21
REMARK    8  A    between atoms: C_22  and  O_23
REMARK                            x       y       z     vdW  Elec       q    Type
REMARK                         _______ _______ _______ _____ _____    ______ ____
ROOT
ATOM      1  C   UNL     1       2.741   5.400  18.808  0.00  0.00    +0.000 A 
ATOM      2  C   UNL     1       1.771   4.443  19.138  0.00  0.00    +0.000 A 
ATOM      3  C   UNL     1       1.704   3.251  18.424  0.00  0.00    +0.000 A 
ATOM      4 CL   UNL     1       0.468   2.112  18.770  0.00  0.00    +0.000 Cl
ATOM      5  C   UNL     1       2.700   2.942  17.503  0.00  0.00    +0.000 A 
ATOM      6  C   UNL     1       3.705   3.857  17.225  0.00  0.00    +0.000 A 
ATOM      7  N   UNL     1       4.810   3.469  16.561  0.00  0.00    +0.000 NA
ATOM      8  C   UNL     1       5.701   4.440  16.312  0.00  0.00    +0.000 A 
ATOM      9  C   UNL     1       5.423   5.780  16.496  0.00  0.00    +0.000 A 
ATOM     10  N   UNL     1       4.423   6.159  17.295  0.00  0.00    +0.000 NA
ATOM     11  C   UNL     1       3.614   5.175  17.740  0.00  0.00    +0.000 A 
ENDROOT
BRANCH   8  12
ATOM     12  O   UNL     1       7.031   4.086  16.403  0.00  0.00    +0.000 OA
ATOM     13  H   UNL     1       7.390   4.348  15.535  0.00  0.00    +0.000 HD
ENDBRANCH   8  12
BRANCH   9  14
ATOM     14  O   UNL     1       6.268   6.748  16.039  0.00  0.00    +0.000 OA
ATOM     15  H   UNL     1       5.725   7.309  15.455  0.00  0.00    +0.000 HD
ENDBRANCH   9  14
BRANCH   1  16
ATOM     16  C   UNL     1       3.132   6.524  19.754  0.00  0.00    +0.000 C 
BRANCH  16  17
ATOM     17  N   UNL     1       1.988   7.145  20.418  0.00  0.00    +0.000 N 
ATOM     18  H   UNL     1       1.196   6.498  20.430  0.00  0.00    +0.000 HD
BRANCH  17  24
ATOM     19  C   UNL     1       1.002   9.424  20.609  0.00  0.00    +0.000 A 
ATOM     20  C   UNL     1       0.626  10.625  19.969  0.00  0.00    +0.000 A 
ATOM     21  C   UNL     1       0.832  10.821  18.607  0.00  0.00    +0.000 A 
ATOM     22  C   UNL     1       1.450   9.829  17.864  0.00  0.00    +0.000 A 
ATOM     23  C   UNL     1       1.834   8.637  18.482  0.00  0.00    +0.000 A 
ATOM     24  C   UNL     1       1.576   8.379  19.847  0.00  0.00    +0.000 A 
BRANCH  19  25
ATOM     25  C   UNL     1       0.717   9.383  22.080  0.00  0.00    +0.000 C 
ATOM     26  O   UNL     1       1.602   9.375  22.922  0.00  0.00    +0.000 OA
BRANCH  25  28
ATOM     27  C   UNL     1      -1.015  10.489  23.184  0.00  0.00    +0.000 C 
ATOM     28  O   UNL     1      -0.602   9.393  22.349  0.00  0.00    +0.000 OA
ENDBRANCH  25  28
ENDBRANCH  19  25
ENDBRANCH  17  24
ENDBRANCH  16  17
ENDBRANCH   1  16
TORSDOF 7
ENDMDL
MODEL 2
REMARK VINA RESULT:      -7.8      3.446      6.290
REMARK  Name = 
REMARK  8 active torsions:
REMARK  status: ('A' for Active; 'I' for Inactive)
REMARK    1  A    between atoms: C_1  and  O_2
REMARK    2  A    between atoms: O_2  and  C_3
REMARK    3  A    between atoms: C_3  and  C_5
REMARK    4  A    between atoms: C_10  and  N_11
REMARK    5  A    between atoms: N_11  and  C_12
REMARK    6  A    between atoms: C_12  and  C_13
REMARK    7  A    between atoms: C_20  and  O_21
REMARK    8  A    between atoms: C_22  and  O_23
REMARK                            x       y       z     vdW  Elec       q    Type
REMARK                         _______ _______ _______ _____ _____    ______ ____
ROOT
ATOM      1  C   UNL     1       2.498   6.972  18.402  0.00  0.00    +0.000 A 
ATOM      2  C   UNL     1       2.130   7.976  19.307  0.00  0.00    +0.000 A 
ATOM      3  C   UNL     1       1.603   7.630  20.547  0.00  0.00    +0.000 A 
ATOM      4 CL   UNL     1       1.076   8.855  21.628  0.00  0.00    +0.000 Cl
ATOM      5  C   UNL     1       1.598   6.298  20.947  0.00  0.00    +0.000 A 
ATOM      6  C   UNL     1       2.029   5.305  20.080  0.00  0.00    +0.000 A 
ATOM      7  N   UNL     1       2.291   4.067  20.543  0.00  0.00    +0.000 NA
ATOM      8  C   UNL     1       2.665   3.175  19.614  0.00  0.00    +0.000 A 
ATOM      9  C   UNL     1       2.563   3.413  18.259  0.00  0.00    +0.000 A 
ATOM     10  N   UNL     1       2.471   4.663  17.797  0.00  0.00    +0.000 NA
ATOM     11  C   UNL     1       2.298   5.627  18.726  0.00  0.00    +0.000 A 
ENDROOT
BRANCH   8  12
ATOM     12  O   UNL     1       3.636   2.272  19.992  0.00  0.00    +0.000 OA
ATOM     13  H   UNL     1       3.124   1.468  20.197  0.00  0.00    +0.000 HD
ENDBRANCH   8  12
BRANCH   9  14
ATOM     14  O   UNL     1       2.753   2.416  17.347  0.00  0.00    +0.000 OA
ATOM     15  H   UNL     1       2.754   2.859  16.479  0.00  0.00    +0.000 HD
ENDBRANCH   9  14
BRANCH   1  16
ATOM     16  C   UNL     1       3.418   7.236  17.220  0.00  0.00    +0.000 C 
BRANCH  16  17
ATOM     17  N   UNL     1       4.825   6.978  17.514  0.00  0.00    +0.000 N 
ATOM     18  H   UNL     1       5.355   7.853  17.486  0.00  0.00    +0.000 HD
BRANCH  17  24
ATOM     19  C   UNL     1       6.243   4.966  17.133  0.00  0.00    +0.000 A 
ATOM     20  C   UNL     1       6.814   4.058  16.216  0.00  0.00    +0.000 A 
ATOM     21  C   UNL     1       6.584   4.163  14.847  0.00  0.00    +0.000 A 
ATOM     22  C   UNL     1       5.752   5.163  14.374  0.00  0.00    +0.000 A 
ATOM     23  C   UNL     1       5.173   6.067  15.268  0.00  0.00    +0.000 A 
ATOM     24  C   UNL     1       5.441   6.030  16.654  0.00  0.00    +0.000 A 
BRANCH  19  25
ATOM     25  C   UNL     1       6.584   4.703  18.570  0.00  0.00    +0.000 C 
ATOM     26  O   UNL     1       5.775   4.258  19.368  0.00  0.00    +0.000 OA
BRANCH  25  28
ATOM     27  C   UNL     1       8.142   6.380  19.019  0.00  0.00    +0.000 C 
ATOM     28  O   UNL     1       7.872   4.977  18.850  0.00  0.00    +0.000 OA
ENDBRANCH  25  28
ENDBRANCH  19  25
ENDBRANCH  17  24
ENDBRANCH  16  17
ENDBRANCH   1  16
TORSDOF 7
ENDMDL
MODEL 3
REMARK VINA RESULT:      -7.8      2.869      4.933
REMARK  Name = 
REMARK  8 active torsions:
REMARK  status: ('A' for Active; 'I' for Inactive)
REMARK    1  A    between atoms: C_1  and  O_2
REMARK    2  A    between atoms: O_2  and  C_3
REMARK    3  A    between atoms: C_3  and  C_5
REMARK    4  A    between atoms: C_10  and  N_11
REMARK    5  A    between atoms: N_11  and  C_12
REMARK    6  A    between atoms: C_12  and  C_13
REMARK    7  A    between atoms: C_20  and  O_21
REMARK    8  A    between atoms: C_22  and  O_23
REMARK                            x       y       z     vdW  Elec       q    Type
REMARK                         _______ _______ _______ _____ _____    ______ ____
ROOT
ATOM      1  C   UNL     1       5.109   4.081  17.058  0.00  0.00    +0.000 A 
ATOM      2  C   UNL     1       5.533   4.584  18.296  0.00  0.00    +0.000 A 
ATOM      3  C   UNL     1       6.808   5.127  18.422  0.00  0.00    +0.000 A 
ATOM      4 CL   UNL     1       7.361   5.670  19.953  0.00  0.00    +0.000 Cl
ATOM      5  C   UNL     1       7.590   5.321  17.288  0.00  0.00    +0.000 A 
ATOM      6  C   UNL     1       7.144   4.889  16.048  0.00  0.00    +0.000 A 
ATOM      7  N   UNL     1       7.752   5.314  14.923  0.00  0.00    +0.000 NA
ATOM      8  C   UNL     1       7.265   4.807  13.781  0.00  0.00    +0.000 A 
ATOM      9  C   UNL     1       6.378   3.751  13.746  0.00  0.00    +0.000 A 
ATOM     10  N   UNL     1       5.653   3.441  14.824  0.00  0.00    +0.000 NA
ATOM     11  C   UNL     1       5.978   4.088  15.963  0.00  0.00    +0.000 A 
ENDROOT
BRANCH   8  12
ATOM     12  O   UNL     1       7.217   5.667  12.704  0.00  0.00    +0.000 OA
ATOM     13  H   UNL     1       6.334   5.499  12.326  0.00  0.00    +0.000 HD
ENDBRANCH   8  12
BRANCH   9  14
ATOM     14  O   UNL     1       6.066   3.126  12.575  0.00  0.00    +0.000 OA
ATOM     15  H   UNL     1       5.823   2.215  12.826  0.00  0.00    +0.000 HD
ENDBRANCH   9  14
BRANCH   1  16
ATOM     16  C   UNL     1       3.643   3.836  16.736  0.00  0.00    +0.000 C 
BRANCH  16  17
ATOM     17  N   UNL     1       2.734   4.701  17.485  0.00  0.00    +0.000 N 
ATOM     18  H   UNL     1       3.187   5.596  17.684  0.00  0.00    +0.000 HD
BRANCH  17  24
ATOM     19  C   UNL     1       1.965   4.918  19.843  0.00  0.00    +0.000 A 
ATOM     20  C   UNL     1       1.484   4.286  21.011  0.00  0.00    +0.000 A 
ATOM     21  C   UNL     1       1.259   2.913  21.057  0.00  0.00    +0.000 A 
ATOM     22  C   UNL     1       1.482   2.151  19.923  0.00  0.00    +0.000 A 
ATOM     23  C   UNL     1       1.952   2.760  18.757  0.00  0.00    +0.000 A 
ATOM     24  C   UNL     1       2.256   4.138  18.698  0.00  0.00    +0.000 A 
BRANCH  19  25
ATOM     25  C   UNL     1       2.143   6.402  19.963  0.00  0.00    +0.000 C 
ATOM     26  O   UNL     1       2.838   7.046  19.192  0.00  0.00    +0.000 OA
BRANCH  25  28
ATOM     27  C   UNL     1       1.304   8.357  20.919  0.00  0.00    +0.000 C 
ATOM     28  O   UNL     1       1.430   6.925  20.977  0.00  0.00    +0.000 OA
ENDBRANCH  25  28
ENDBRANCH  19  25
ENDBRANCH  17  24
ENDBRANCH  16  17
ENDBRANCH   1  16
TORSDOF 7
ENDMDL
MODEL 4
REMARK VINA RESULT:      -7.7      1.689      2.507
REMARK  Name = 
REMARK  8 active torsions:
REMARK  status: ('A' for Active; 'I' for Inactive)
REMARK    1  A    between atoms: C_1  and  O_2
REMARK    2  A    between atoms: O_2  and  C_3
REMARK    3  A    between atoms: C_3  and  C_5
REMARK    4  A    between atoms: C_10  and  N_11
REMARK    5  A    between atoms: N_11  and  C_12
REMARK    6  A    between atoms: C_12  and  C_13
REMARK    7  A    between atoms: C_20  and  O_21
REMARK    8  A    between atoms: C_22  and  O_23
REMARK                            x       y       z     vdW  Elec       q    Type
REMARK                         _______ _______ _______ _____ _____    ______ ____
ROOT
ATOM      1  C   UNL     1       2.482   5.431  18.724  0.00  0.00    +0.000 A 
ATOM      2  C   UNL     1       1.549   4.430  19.027  0.00  0.00    +0.000 A 
ATOM      3  C   UNL     1       1.628   3.196  18.390  0.00  0.00    +0.000 A 
ATOM      4 CL   UNL     1       0.441   1.994  18.697  0.00  0.00    +0.000 Cl
ATOM      5  C   UNL     1       2.725   2.903  17.586  0.00  0.00    +0.000 A 
ATOM      6  C   UNL     1       3.690   3.868  17.341  0.00  0.00    +0.000 A 
ATOM      7  N   UNL     1       4.877   3.520  16.807  0.00  0.00    +0.000 NA
ATOM      8  C   UNL     1       5.722   4.535  16.576  0.00  0.00    +0.000 A 
ATOM      9  C   UNL     1       5.342   5.860  16.645  0.00  0.00    +0.000 A 
ATOM     10  N   UNL     1       4.248   6.216  17.323  0.00  0.00    +0.000 NA
ATOM     11  C   UNL     1       3.465   5.205  17.756  0.00  0.00    +0.000 A 
ENDROOT
BRANCH   8  12
ATOM     12  O   UNL     1       7.058   4.282  16.811  0.00  0.00    +0.000 OA
ATOM     13  H   UNL     1       7.469   5.161  16.720  0.00  0.00    +0.000 HD
ENDBRANCH   8  12
BRANCH   9  14
ATOM     14  O   UNL     1       6.162   6.857  16.204  0.00  0.00    +0.000 OA
ATOM     15  H   UNL     1       6.955   6.806  16.770  0.00  0.00    +0.000 HD
ENDBRANCH   9  14
BRANCH   1  16
ATOM     16  C   UNL     1       2.708   6.635  19.625  0.00  0.00    +0.000 C 
BRANCH  16  17
ATOM     17  N   UNL     1       2.203   7.884  19.059  0.00  0.00    +0.000 N 
ATOM     18  H   UNL     1       2.981   8.449  18.709  0.00  0.00    +0.000 HD
BRANCH  17  24
ATOM     19  C   UNL     1       1.084  10.013  19.703  0.00  0.00    +0.000 A 
ATOM     20  C   UNL     1       0.298  10.719  20.640  0.00  0.00    +0.000 A 
ATOM     21  C   UNL     1      -0.179  10.111  21.797  0.00  0.00    +0.000 A 
ATOM     22  C   UNL     1       0.096   8.772  22.023  0.00  0.00    +0.000 A 
ATOM     23  C   UNL     1       0.868   8.057  21.104  0.00  0.00    +0.000 A 
ATOM     24  C   UNL     1       1.424   8.663  19.956  0.00  0.00    +0.000 A 
BRANCH  19  25
ATOM     25  C   UNL     1       1.506  10.816  18.509  0.00  0.00    +0.000 C 
ATOM     26  O   UNL     1       2.002  10.307  17.516  0.00  0.00    +0.000 OA
BRANCH  25  28
ATOM     27  C   UNL     1       2.334  12.983  18.273  0.00  0.00    +0.000 C 
ATOM     28  O   UNL     1       1.242  12.127  18.652  0.00  0.00    +0.000 OA
ENDBRANCH  25  28
ENDBRANCH  19  25
ENDBRANCH  17  24
ENDBRANCH  16  17
ENDBRANCH   1  16
TORSDOF 7
ENDMDL
MODEL 5
REMARK VINA RESULT:      -7.7      2.136      2.839
REMARK  Name = 
REMARK  8 active torsions:
REMARK  status: ('A' for Active; 'I' for Inactive)
REMARK    1  A    between atoms: C_1  and  O_2
REMARK    2  A    between atoms: O_2  and  C_3
REMARK    3  A    between atoms: C_3  and  C_5
REMARK    4  A    between atoms: C_10  and  N_11
REMARK    5  A    between atoms: N_11  and  C_12
REMARK    6  A    between atoms: C_12  and  C_13
REMARK    7  A    between atoms: C_20  and  O_21
REMARK    8  A    between atoms: C_22  and  O_23
REMARK                            x       y       z     vdW  Elec       q    Type
REMARK                         _______ _______ _______ _____ _____    ______ ____
ROOT
ATOM      1  C   UNL     1       3.163   6.469  17.882  0.00  0.00    +0.000 A 
ATOM      2  C   UNL     1       2.126   5.558  18.121  0.00  0.00    +0.000 A 
ATOM      3  C   UNL     1       2.410   4.200  18.234  0.00  0.00    +0.000 A 
ATOM      4 CL   UNL     1       1.134   3.072  18.446  0.00  0.00    +0.000 Cl
ATOM      5  C   UNL     1       3.733   3.775  18.278  0.00  0.00    +0.000 A 
ATOM      6  C   UNL     1       4.767   4.684  18.114  0.00  0.00    +0.000 A 
ATOM      7  N   UNL     1       6.030   4.338  18.430  0.00  0.00    +0.000 NA
ATOM      8  C   UNL     1       6.957   5.279  18.197  0.00  0.00    +0.000 A 
ATOM      9  C   UNL     1       6.701   6.424  17.471  0.00  0.00    +0.000 A 
ATOM     10  N   UNL     1       5.447   6.852  17.305  0.00  0.00    +0.000 NA
ATOM     11  C   UNL     1       4.474   6.013  17.718  0.00  0.00    +0.000 A 
ENDROOT
BRANCH   8  12
ATOM     12  O   UNL     1       7.977   5.372  19.122  0.00  0.00    +0.000 OA
ATOM     13  H   UNL     1       8.032   6.329  19.296  0.00  0.00    +0.000 HD
ENDBRANCH   8  12
BRANCH   9  14
ATOM     14  O   UNL     1       7.709   7.254  17.076  0.00  0.00    +0.000 OA
ATOM     15  H   UNL     1       8.067   6.854  16.262  0.00  0.00    +0.000 HD
ENDBRANCH   9  14
BRANCH   1  16
ATOM     16  C   UNL     1       3.009   7.962  18.127  0.00  0.00    +0.000 C 
BRANCH  16  17
ATOM     17  N   UNL     1       1.617   8.403  18.155  0.00  0.00    +0.000 N 
ATOM     18  H   UNL     1       1.464   9.127  17.448  0.00  0.00    +0.000 HD
BRANCH  17  24
ATOM     19  C   UNL     1       0.226   9.920  19.557  0.00  0.00    +0.000 A 
ATOM     20  C   UNL     1      -0.167  10.336  20.848  0.00  0.00    +0.000 A 
ATOM     21  C   UNL     1       0.339   9.729  21.994  0.00  0.00    +0.000 A 
ATOM     22  C   UNL     1       1.224   8.672  21.868  0.00  0.00    +0.000 A 
ATOM     23  C   UNL     1       1.619   8.244  20.599  0.00  0.00    +0.000 A 
ATOM     24  C   UNL     1       1.178   8.882  19.418  0.00  0.00    +0.000 A 
BRANCH  19  25
ATOM     25  C   UNL     1      -0.421  10.673  18.433  0.00  0.00    +0.000 C 
ATOM     26  O   UNL     1      -0.457  11.893  18.393  0.00  0.00    +0.000 OA
BRANCH  25  28
ATOM     27  C   UNL     1      -2.342   9.915  17.349  0.00  0.00    +0.000 C 
ATOM     28  O   UNL     1      -0.911   9.857  17.482  0.00  0.00    +0.000 OA
ENDBRANCH  25  28
ENDBRANCH  19  25
ENDBRANCH  17  24
ENDBRANCH  16  17
ENDBRANCH   1  16
TORSDOF 7
ENDMDL
MODEL 6
REMARK VINA RESULT:      -7.6      3.295      7.076
REMARK  Name = 
REMARK  8 active torsions:
REMARK  status: ('A' for Active; 'I' for Inactive)
REMARK    1  A    between atoms: C_1  and  O_2
REMARK    2  A    between atoms: O_2  and  C_3
REMARK    3  A    between atoms: C_3  and  C_5
REMARK    4  A    between atoms: C_10  and  N_11
REMARK    5  A    between atoms: N_11  and  C_12
REMARK    6  A    between atoms: C_12  and  C_13
REMARK    7  A    between atoms: C_20  and  O_21
REMARK    8  A    between atoms: C_22  and  O_23
REMARK                            x       y       z     vdW  Elec       q    Type
REMARK                         _______ _______ _______ _____ _____    ______ ____
ROOT
ATOM      1  C   UNL     1       2.964   5.142  17.698  0.00  0.00    +0.000 A 
ATOM      2  C   UNL     1       3.072   6.526  17.507  0.00  0.00    +0.000 A 
ATOM      3  C   UNL     1       2.569   7.398  18.466  0.00  0.00    +0.000 A 
ATOM      4 CL   UNL     1       2.626   9.093  18.199  0.00  0.00    +0.000 Cl
ATOM      5  C   UNL     1       2.114   6.899  19.682  0.00  0.00    +0.000 A 
ATOM      6  C   UNL     1       2.072   5.530  19.905  0.00  0.00    +0.000 A 
ATOM      7  N   UNL     1       1.905   5.052  21.153  0.00  0.00    +0.000 NA
ATOM      8  C   UNL     1       1.841   3.716  21.250  0.00  0.00    +0.000 A 
ATOM      9  C   UNL     1       1.711   2.887  20.155  0.00  0.00    +0.000 A 
ATOM     10  N   UNL     1       2.041   3.321  18.936  0.00  0.00    +0.000 NA
ATOM     11  C   UNL     1       2.317   4.639  18.831  0.00  0.00    +0.000 A 
ENDROOT
BRANCH   8  12
ATOM     12  O   UNL     1       2.445   3.156  22.357  0.00  0.00    +0.000 OA
ATOM     13  H   UNL     1       1.695   2.776  22.851  0.00  0.00    +0.000 HD
ENDBRANCH   8  12
BRANCH   9  14
ATOM     14  O   UNL     1       1.440   1.558  20.299  0.00  0.00    +0.000 OA
ATOM     15  H   UNL     1       1.819   1.311  21.162  0.00  0.00    +0.000 HD
ENDBRANCH   9  14
BRANCH   1  16
ATOM     16  C   UNL     1       3.806   4.142  16.920  0.00  0.00    +0.000 C 
BRANCH  16  17
ATOM     17  N   UNL     1       4.959   3.651  17.670  0.00  0.00    +0.000 N 
ATOM     18  H   UNL     1       4.655   3.261  18.566  0.00  0.00    +0.000 HD
BRANCH  17  24
ATOM     19  C   UNL     1       6.540   5.400  16.865  0.00  0.00    +0.000 A 
ATOM     20  C   UNL     1       7.531   6.356  17.177  0.00  0.00    +0.000 A 
ATOM     21  C   UNL     1       7.941   6.580  18.488  0.00  0.00    +0.000 A 
ATOM     22  C   UNL     1       7.342   5.872  19.517  0.00  0.00    +0.000 A 
ATOM     23  C   UNL     1       6.356   4.927  19.227  0.00  0.00    +0.000 A 
ATOM     24  C   UNL     1       5.967   4.626  17.902  0.00  0.00    +0.000 A 
BRANCH  19  25
ATOM     25  C   UNL     1       6.210   5.293  15.406  0.00  0.00    +0.000 C 
ATOM     26  O   UNL     1       5.760   6.228  14.762  0.00  0.00    +0.000 OA
BRANCH  25  28
ATOM     27  C   UNL     1       6.605   4.058  13.467  0.00  0.00    +0.000 C 
ATOM     28  O   UNL     1       6.501   4.079  14.901  0.00  0.00    +0.000 OA
ENDBRANCH  25  28
ENDBRANCH  19  25
ENDBRANCH  17  24
ENDBRANCH  16  17
ENDBRANCH   1  16
TORSDOF 7
ENDMDL
MODEL 7
REMARK VINA RESULT:      -7.6      1.630      2.457
REMARK  Name = 
REMARK  8 active torsions:
REMARK  status: ('A' for Active; 'I' for Inactive)
REMARK    1  A    between atoms: C_1  and  O_2
REMARK    2  A    between atoms: O_2  and  C_3
REMARK    3  A    between atoms: C_3  and  C_5
REMARK    4  A    between atoms: C_10  and  N_11
REMARK    5  A    between atoms: N_11  and  C_12
REMARK    6  A    between atoms: C_12  and  C_13
REMARK    7  A    between atoms: C_20  and  O_21
REMARK    8  A    between atoms: C_22  and  O_23
REMARK                            x       y       z     vdW  Elec       q    Type
REMARK                         _______ _______ _______ _____ _____    ______ ____
ROOT
ATOM      1  C   UNL     1       2.477   5.430  18.780  0.00  0.00    +0.000 A 
ATOM      2  C   UNL     1       1.542   4.429  19.079  0.00  0.00    +0.000 A 
ATOM      3  C   UNL     1       1.607   3.204  18.423  0.00  0.00    +0.000 A 
ATOM      4 CL   UNL     1       0.417   2.005  18.725  0.00  0.00    +0.000 Cl
ATOM      5  C   UNL     1       2.692   2.918  17.602  0.00  0.00    +0.000 A 
ATOM      6  C   UNL     1       3.660   3.882  17.359  0.00  0.00    +0.000 A 
ATOM      7  N   UNL     1       4.838   3.535  16.806  0.00  0.00    +0.000 NA
ATOM      8  C   UNL     1       5.686   4.550  16.581  0.00  0.00    +0.000 A 
ATOM      9  C   UNL     1       5.315   5.875  16.673  0.00  0.00    +0.000 A 
ATOM     10  N   UNL     1       4.230   6.226  17.370  0.00  0.00    +0.000 NA
ATOM     11  C   UNL     1       3.447   5.213  17.798  0.00  0.00    +0.000 A 
ENDROOT
BRANCH   8  12
ATOM     12  O   UNL     1       7.023   4.286  16.795  0.00  0.00    +0.000 OA
ATOM     13  H   UNL     1       7.216   4.775  17.617  0.00  0.00    +0.000 HD
ENDBRANCH   8  12
BRANCH   9  14
ATOM     14  O   UNL     1       6.135   6.874  16.238  0.00  0.00    +0.000 OA
ATOM     15  H   UNL     1       6.749   6.448  15.612  0.00  0.00    +0.000 HD
ENDBRANCH   9  14
BRANCH   1  16
ATOM     16  C   UNL     1       2.720   6.619  19.697  0.00  0.00    +0.000 C 
BRANCH  16  17
ATOM     17  N   UNL     1       2.197   7.875  19.165  0.00  0.00    +0.000 N 
ATOM     18  H   UNL     1       2.965   8.458  18.824  0.00  0.00    +0.000 HD
BRANCH  17  24
ATOM     19  C   UNL     1       0.584   9.698  19.693  0.00  0.00    +0.000 A 
ATOM     20  C   UNL     1      -0.170  10.387  20.667  0.00  0.00    +0.000 A 
ATOM     21  C   UNL     1      -0.141  10.016  22.008  0.00  0.00    +0.000 A 
ATOM     22  C   UNL     1       0.621   8.926  22.394  0.00  0.00    +0.000 A 
ATOM     23  C   UNL     1       1.369   8.229  21.442  0.00  0.00    +0.000 A 
ATOM     24  C   UNL     1       1.415   8.622  20.086  0.00  0.00    +0.000 A 
BRANCH  19  25
ATOM     25  C   UNL     1       0.429  10.222  18.296  0.00  0.00    +0.000 C 
ATOM     26  O   UNL     1       1.298  10.096  17.446  0.00  0.00    +0.000 OA
BRANCH  25  28
ATOM     27  C   UNL     1      -1.669  10.003  17.301  0.00  0.00    +0.000 C 
ATOM     28  O   UNL     1      -0.769  10.799  18.093  0.00  0.00    +0.000 OA
ENDBRANCH  25  28
ENDBRANCH  19  25
ENDBRANCH  17  24
ENDBRANCH  16  17
ENDBRANCH   1  16
TORSDOF 7
ENDMDL
MODEL 8
REMARK VINA RESULT:      -7.6      3.270      4.387
REMARK  Name = 
REMARK  8 active torsions:
REMARK  status: ('A' for Active; 'I' for Inactive)
REMARK    1  A    between atoms: C_1  and  O_2
REMARK    2  A    between atoms: O_2  and  C_3
REMARK    3  A    between atoms: C_3  and  C_5
REMARK    4  A    between atoms: C_10  and  N_11
REMARK    5  A    between atoms: N_11  and  C_12
REMARK    6  A    between atoms: C_12  and  C_13
REMARK    7  A    between atoms: C_20  and  O_21
REMARK    8  A    between atoms: C_22  and  O_23
REMARK                            x       y       z     vdW  Elec       q    Type
REMARK                         _______ _______ _______ _____ _____    ______ ____
ROOT
ATOM      1  C   UNL     1       2.646   6.380  19.475  0.00  0.00    +0.000 A 
ATOM      2  C   UNL     1       3.410   6.959  18.452  0.00  0.00    +0.000 A 
ATOM      3  C   UNL     1       3.946   6.157  17.450  0.00  0.00    +0.000 A 
ATOM      4 CL   UNL     1       4.949   6.850  16.241  0.00  0.00    +0.000 Cl
ATOM      5  C   UNL     1       3.586   4.816  17.374  0.00  0.00    +0.000 A 
ATOM      6  C   UNL     1       2.771   4.253  18.344  0.00  0.00    +0.000 A 
ATOM      7  N   UNL     1       2.195   3.053  18.134  0.00  0.00    +0.000 NA
ATOM      8  C   UNL     1       1.457   2.585  19.152  0.00  0.00    +0.000 A 
ATOM      9  C   UNL     1       1.468   3.151  20.411  0.00  0.00    +0.000 A 
ATOM     10  N   UNL     1       1.886   4.407  20.584  0.00  0.00    +0.000 NA
ATOM     11  C   UNL     1       2.457   4.995  19.511  0.00  0.00    +0.000 A 
ENDROOT
BRANCH   8  12
ATOM     12  O   UNL     1       0.306   1.908  18.809  0.00  0.00    +0.000 OA
ATOM     13  H   UNL     1       0.485   1.612  17.897  0.00  0.00    +0.000 HD
ENDBRANCH   8  12
BRANCH   9  14
ATOM     14  O   UNL     1       0.874   2.532  21.471  0.00  0.00    +0.000 OA
ATOM     15  H   UNL     1       0.356   3.228  21.917  0.00  0.00    +0.000 HD
ENDBRANCH   9  14
BRANCH   1  16
ATOM     16  C   UNL     1       1.720   7.196  20.364  0.00  0.00    +0.000 C 
BRANCH  16  17
ATOM     17  N   UNL     1       1.547   8.573  19.908  0.00  0.00    +0.000 N 
ATOM     18  H   UNL     1       2.459   9.013  19.769  0.00  0.00    +0.000 HD
BRANCH  17  24
ATOM     19  C   UNL     1       0.053  10.521  20.324  0.00  0.00    +0.000 A 
ATOM     20  C   UNL     1      -0.712  11.272  21.243  0.00  0.00    +0.000 A 
ATOM     21  C   UNL     1      -0.812  10.902  22.581  0.00  0.00    +0.000 A 
ATOM     22  C   UNL     1      -0.171   9.754  23.018  0.00  0.00    +0.000 A 
ATOM     23  C   UNL     1       0.585   8.997  22.120  0.00  0.00    +0.000 A 
ATOM     24  C   UNL     1       0.763   9.382  20.773  0.00  0.00    +0.000 A 
BRANCH  19  25
ATOM     25  C   UNL     1       0.045  11.053  18.922  0.00  0.00    +0.000 C 
ATOM     26  O   UNL     1       0.390  12.193  18.648  0.00  0.00    +0.000 OA
BRANCH  25  28
ATOM     27  C   UNL     1      -1.763  10.118  17.783  0.00  0.00    +0.000 C 
ATOM     28  O   UNL     1      -0.345  10.130  18.024  0.00  0.00    +0.000 OA
ENDBRANCH  25  28
ENDBRANCH  19  25
ENDBRANCH  17  24
ENDBRANCH  16  17
ENDBRANCH   1  16
TORSDOF 7
ENDMDL
MODEL 9
REMARK VINA RESULT:      -7.6      1.689      1.785
REMARK  Name = 
REMARK  8 active torsions:
REMARK  status: ('A' for Active; 'I' for Inactive)
REMARK    1  A    between atoms: C_1  and  O_2
REMARK    2  A    between atoms: O_2  and  C_3
REMARK    3  A    between atoms: C_3  and  C_5
REMARK    4  A    between atoms: C_10  and  N_11
REMARK    5  A    between atoms: N_11  and  C_12
REMARK    6  A    between atoms: C_12  and  C_13
REMARK    7  A    between atoms: C_20  and  O_21
REMARK    8  A    between atoms: C_22  and  O_23
REMARK                            x       y       z     vdW  Elec       q    Type
REMARK                         _______ _______ _______ _____ _____    ______ ____
ROOT
ATOM      1  C   UNL     1       3.167   6.233  17.925  0.00  0.00    +0.000 A 
ATOM      2  C   UNL     1       2.175   5.259  18.098  0.00  0.00    +0.000 A 
ATOM      3  C   UNL     1       2.537   3.938  18.342  0.00  0.00    +0.000 A 
ATOM      4 CL   UNL     1       1.327   2.727  18.474  0.00  0.00    +0.000 Cl
ATOM      5  C   UNL     1       3.870   3.621  18.579  0.00  0.00    +0.000 A 
ATOM      6  C   UNL     1       4.850   4.597  18.480  0.00  0.00    +0.000 A 
ATOM      7  N   UNL     1       6.083   4.371  18.973  0.00  0.00    +0.000 NA
ATOM      8  C   UNL     1       6.964   5.366  18.791  0.00  0.00    +0.000 A 
ATOM      9  C   UNL     1       6.723   6.441  17.959  0.00  0.00    +0.000 A 
ATOM     10  N   UNL     1       5.474   6.758  17.609  0.00  0.00    +0.000 NA
ATOM     11  C   UNL     1       4.518   5.872  17.958  0.00  0.00    +0.000 A 
ENDROOT
BRANCH   8  12
ATOM     12  O   UNL     1       7.847   5.596  19.825  0.00  0.00    +0.000 OA
ATOM     13  H   UNL     1       8.677   5.199  19.501  0.00  0.00    +0.000 HD
ENDBRANCH   8  12
BRANCH   9  14
ATOM     14  O   UNL     1       7.712   7.322  17.634  0.00  0.00    +0.000 OA
ATOM     15  H   UNL     1       7.284   7.994  17.073  0.00  0.00    +0.000 HD
ENDBRANCH   9  14
BRANCH   1  16
ATOM     16  C   UNL     1       2.879   7.721  18.043  0.00  0.00    +0.000 C 
BRANCH  16  17
ATOM     17  N   UNL     1       2.206   8.083  19.288  0.00  0.00    +0.000 N 
ATOM     18  H   UNL     1       1.907   7.239  19.783  0.00  0.00    +0.000 HD
BRANCH  17  24
ATOM     19  C   UNL     1       0.490   9.639  20.203  0.00  0.00    +0.000 A 
ATOM     20  C   UNL     1      -0.609  10.490  19.958  0.00  0.00    +0.000 A 
ATOM     21  C   UNL     1      -1.100  10.694  18.671  0.00  0.00    +0.000 A 
ATOM     22  C   UNL     1      -0.479  10.073  17.601  0.00  0.00    +0.000 A 
ATOM     23  C   UNL     1       0.614   9.232  17.825  0.00  0.00    +0.000 A 
ATOM     24  C   UNL     1       1.093   8.950  19.123  0.00  0.00    +0.000 A 
BRANCH  19  25
ATOM     25  C   UNL     1       0.896   9.540  21.643  0.00  0.00    +0.000 C 
ATOM     26  O   UNL     1       1.647   8.670  22.057  0.00  0.00    +0.000 OA
BRANCH  25  28
ATOM     27  C   UNL     1      -0.669  10.084  23.284  0.00  0.00    +0.000 C 
ATOM     28  O   UNL     1       0.371  10.526  22.394  0.00  0.00    +0.000 OA
ENDBRANCH  25  28
ENDBRANCH  19  25
ENDBRANCH  17  24
ENDBRANCH  16  17
ENDBRANCH   1  16
TORSDOF 7
ENDMDL
