MODEL 1
REMARK VINA RESULT:      -9.1      0.000      0.000
REMARK  Name = 
REMARK  5 active torsions:
REMARK  status: ('A' for Active; 'I' for Inactive)
REMARK    1  A    between atoms: C_1  and  O_2
REMARK    2  A    between atoms: O_2  and  C_3
REMARK    3  A    between atoms: C_10  and  C_12
REMARK    4  A    between atoms: N_14  and  C_15
REMARK    5  A    between atoms: C_22  and  C_23
REMARK                            x       y       z     vdW  Elec       q    Type
REMARK                         _______ _______ _______ _____ _____    ______ ____
ROOT
ATOM      1  C   UNL     1       3.615   6.680  17.311  0.00  0.00    +0.000 A 
ATOM      2  C   UNL     1       4.445   6.708  16.207  0.00  0.00    +0.000 A 
ATOM      3  N   UNL     1       4.763   5.404  15.901  0.00  0.00    +0.000 N 
ATOM      4  N   UNL     1       4.141   4.536  16.734  0.00  0.00    +0.000 NA
ATOM      5  C   UNL     1       3.483   5.293  17.626  0.00  0.00    +0.000 A 
ENDROOT
BRANCH   1  13
ATOM      6  C   UNL     1      -1.108  11.262  22.455  0.00  0.00    +0.000 A 
ATOM      7  C   UNL     1      -0.814  10.247  23.363  0.00  0.00    +0.000 A 
ATOM      8  C   UNL     1      -0.041   9.142  22.973  0.00  0.00    +0.000 A 
ATOM      9  C   UNL     1       0.456   9.057  21.658  0.00  0.00    +0.000 A 
ATOM     10  N   UNL     1       1.222   8.025  21.132  0.00  0.00    +0.000 NA
ATOM     11  C   UNL     1       1.576   8.328  19.907  0.00  0.00    +0.000 A 
ATOM     12  N   UNL     1       2.356   7.483  19.157  0.00  0.00    +0.000 N 
ATOM     13  C   UNL     1       2.982   7.810  17.977  0.00  0.00    +0.000 C 
ATOM     14  O   UNL     1       3.034   8.926  17.482  0.00  0.00    +0.000 OA
ATOM     15  S   UNL     1       0.926   9.768  19.270  0.00  0.00    +0.000 S 
ATOM     16  C   UNL     1       0.169  10.098  20.774  0.00  0.00    +0.000 A 
ATOM     17  C   UNL     1      -0.615  11.199  21.147  0.00  0.00    +0.000 A 
ATOM     18  H   UNL     1       2.501   6.578  19.578  0.00  0.00    +0.000 HD
BRANCH   6  20
ATOM     19  C   UNL     1      -1.152  13.583  22.975  0.00  0.00    +0.000 C 
ATOM     20  O   UNL     1      -1.858  12.376  22.715  0.00  0.00    +0.000 OA
ENDBRANCH   6  20
ENDBRANCH   1  13
BRANCH   5  21
ATOM     21  C   UNL     1       2.778   4.678  18.760  0.00  0.00    +0.000 A 
ATOM     22  C   UNL     1       1.537   4.045  18.577  0.00  0.00    +0.000 A 
ATOM     23  C   UNL     1       0.889   3.418  19.645  0.00  0.00    +0.000 A 
ATOM     24  C   UNL     1       1.465   3.450  20.904  0.00  0.00    +0.000 A 
ATOM     25  F   UNL     1       0.845   2.846  21.927  0.00  0.00    +0.000 F 
ATOM     26  C   UNL     1       2.672   4.100  21.121  0.00  0.00    +0.000 A 
ATOM     27  C   UNL     1       3.331   4.714  20.049  0.00  0.00    +0.000 A 
ENDBRANCH   5  21
BRANCH   3  28
ATOM     28  C   UNL     1       5.641   4.941  14.880  0.00  0.00    +0.000 A 
ATOM     29  C   UNL     1       5.225   3.981  13.947  0.00  0.00    +0.000 A 
ATOM     30  C   UNL     1       6.089   3.571  12.928  0.00  0.00    +0.000 A 
ATOM     31  C   UNL     1       7.373   4.106  12.838  0.00  0.00    +0.000 A 
ATOM     32  C   UNL     1       7.798   5.053  13.768  0.00  0.00    +0.000 A 
ATOM     33  C   UNL     1       6.936   5.474  14.785  0.00  0.00    +0.000 A 
ENDBRANCH   3  28
TORSDOF 4
ENDMDL
MODEL 2
REMARK VINA RESULT:      -8.9      0.489      1.297
REMARK  Name = 
REMARK  5 active torsions:
REMARK  status: ('A' for Active; 'I' for Inactive)
REMARK    1  A    between atoms: C_1  and  O_2
REMARK    2  A    between atoms: O_2  and  C_3
REMARK    3  A    between atoms: C_10  and  C_12
REMARK    4  A    between atoms: N_14  and  C_15
REMARK    5  A    between atoms: C_22  and  C_23
REMARK                            x       y       z     vdW  Elec       q    Type
REMARK                         _______ _______ _______ _____ _____    ______ ____
ROOT
ATOM      1  C   UNL     1       3.769   6.587  17.191  0.00  0.00    +0.000 A 
ATOM      2  C   UNL     1       4.583   6.637  16.076  0.00  0.00    +0.000 A 
ATOM      3  N   UNL     1       4.877   5.339  15.726  0.00  0.00    +0.000 N 
ATOM      4  N   UNL     1       4.257   4.455  16.543  0.00  0.00    +0.000 NA
ATOM      5  C   UNL     1       3.624   5.193  17.467  0.00  0.00    +0.000 A 
ENDROOT
BRANCH   1  13
ATOM      6  C   UNL     1      -0.915  11.078  22.449  0.00  0.00    +0.000 A 
ATOM      7  C   UNL     1      -0.688  10.004  23.308  0.00  0.00    +0.000 A 
ATOM      8  C   UNL     1       0.052   8.891  22.880  0.00  0.00    +0.000 A 
ATOM      9  C   UNL     1       0.583   8.857  21.576  0.00  0.00    +0.000 A 
ATOM     10  N   UNL     1       1.322   7.824  21.015  0.00  0.00    +0.000 NA
ATOM     11  C   UNL     1       1.723   8.176  19.818  0.00  0.00    +0.000 A 
ATOM     12  N   UNL     1       2.490   7.341  19.044  0.00  0.00    +0.000 N 
ATOM     13  C   UNL     1       3.163   7.704  17.901  0.00  0.00    +0.000 C 
ATOM     14  O   UNL     1       3.273   8.843  17.469  0.00  0.00    +0.000 OA
ATOM     15  S   UNL     1       1.149   9.674  19.244  0.00  0.00    +0.000 S 
ATOM     16  C   UNL     1       0.363   9.954  20.742  0.00  0.00    +0.000 A 
ATOM     17  C   UNL     1      -0.387  11.065  21.154  0.00  0.00    +0.000 A 
ATOM     18  H   UNL     1       2.587   6.410  19.419  0.00  0.00    +0.000 HD
BRANCH   6  20
ATOM     19  C   UNL     1      -2.887  12.025  23.384  0.00  0.00    +0.000 C 
ATOM     20  O   UNL     1      -1.628  12.207  22.749  0.00  0.00    +0.000 OA
ENDBRANCH   6  20
ENDBRANCH   1  13
BRANCH   5  21
ATOM     21  C   UNL     1       2.928   4.554  18.594  0.00  0.00    +0.000 A 
ATOM     22  C   UNL     1       3.580   4.360  19.824  0.00  0.00    +0.000 A 
ATOM     23  C   UNL     1       2.905   3.797  20.911  0.00  0.00    +0.000 A 
ATOM     24  C   UNL     1       1.587   3.398  20.760  0.00  0.00    +0.000 A 
ATOM     25  F   UNL     1       0.939   2.860  21.803  0.00  0.00    +0.000 F 
ATOM     26  C   UNL     1       0.931   3.542  19.545  0.00  0.00    +0.000 A 
ATOM     27  C   UNL     1       1.601   4.122  18.461  0.00  0.00    +0.000 A 
ENDBRANCH   5  21
BRANCH   3  28
ATOM     28  C   UNL     1       5.734   4.895  14.678  0.00  0.00    +0.000 A 
ATOM     29  C   UNL     1       7.030   5.410  14.535  0.00  0.00    +0.000 A 
ATOM     30  C   UNL     1       7.869   4.931  13.525  0.00  0.00    +0.000 A 
ATOM     31  C   UNL     1       7.420   3.946  12.647  0.00  0.00    +0.000 A 
ATOM     32  C   UNL     1       6.129   3.437  12.776  0.00  0.00    +0.000 A 
ATOM     33  C   UNL     1       5.287   3.905  13.789  0.00  0.00    +0.000 A 
ENDBRANCH   3  28
TORSDOF 4
ENDMDL
MODEL 3
REMARK VINA RESULT:      -8.5      1.601      2.354
REMARK  Name = 
REMARK  5 active torsions:
REMARK  status: ('A' for Active; 'I' for Inactive)
REMARK    1  A    between atoms: C_1  and  O_2
REMARK    2  A    between atoms: O_2  and  C_3
REMARK    3  A    between atoms: C_10  and  C_12
REMARK    4  A    between atoms: N_14  and  C_15
REMARK    5  A    between atoms: C_22  and  C_23
REMARK                            x       y       z     vdW  Elec       q    Type
REMARK                         _______ _______ _______ _____ _____    ______ ____
ROOT
ATOM      1  C   UNL     1       3.235   6.242  18.215  0.00  0.00    +0.000 A 
ATOM      2  C   UNL     1       4.032   6.490  17.114  0.00  0.00    +0.000 A 
ATOM      3  N   UNL     1       4.510   5.276  16.674  0.00  0.00    +0.000 N 
ATOM      4  N   UNL     1       4.024   4.255  17.420  0.00  0.00    +0.000 NA
ATOM      5  C   UNL     1       3.292   4.827  18.389  0.00  0.00    +0.000 A 
ENDROOT
BRANCH   1  13
ATOM      6  C   UNL     1      -1.059  13.042  20.473  0.00  0.00    +0.000 A 
ATOM      7  C   UNL     1      -1.527  12.979  19.163  0.00  0.00    +0.000 A 
ATOM      8  C   UNL     1      -1.062  11.989  18.284  0.00  0.00    +0.000 A 
ATOM      9  C   UNL     1      -0.122  11.038  18.727  0.00  0.00    +0.000 A 
ATOM     10  N   UNL     1       0.431  10.013  17.971  0.00  0.00    +0.000 NA
ATOM     11  C   UNL     1       1.198   9.275  18.735  0.00  0.00    +0.000 A 
ATOM     12  N   UNL     1       1.859   8.178  18.241  0.00  0.00    +0.000 N 
ATOM     13  C   UNL     1       2.475   7.207  18.997  0.00  0.00    +0.000 C 
ATOM     14  O   UNL     1       2.426   7.115  20.215  0.00  0.00    +0.000 OA
ATOM     15  S   UNL     1       1.410   9.817  20.336  0.00  0.00    +0.000 S 
ATOM     16  C   UNL     1       0.315  11.106  20.050  0.00  0.00    +0.000 A 
ATOM     17  C   UNL     1      -0.132  12.100  20.933  0.00  0.00    +0.000 A 
ATOM     18  H   UNL     1       1.810   8.088  17.237  0.00  0.00    +0.000 HD
BRANCH   6  20
ATOM     19  C   UNL     1      -0.573  14.118  22.539  0.00  0.00    +0.000 C 
ATOM     20  O   UNL     1      -1.428  13.965  21.414  0.00  0.00    +0.000 OA
ENDBRANCH   6  20
ENDBRANCH   1  13
BRANCH   5  21
ATOM     21  C   UNL     1       2.696   4.014  19.460  0.00  0.00    +0.000 A 
ATOM     22  C   UNL     1       3.509   3.302  20.359  0.00  0.00    +0.000 A 
ATOM     23  C   UNL     1       2.946   2.569  21.407  0.00  0.00    +0.000 A 
ATOM     24  C   UNL     1       1.568   2.520  21.540  0.00  0.00    +0.000 A 
ATOM     25  F   UNL     1       1.028   1.819  22.546  0.00  0.00    +0.000 F 
ATOM     26  C   UNL     1       0.740   3.183  20.644  0.00  0.00    +0.000 A 
ATOM     27  C   UNL     1       1.303   3.932  19.603  0.00  0.00    +0.000 A 
ENDBRANCH   5  21
BRANCH   3  28
ATOM     28  C   UNL     1       5.420   5.037  15.606  0.00  0.00    +0.000 A 
ATOM     29  C   UNL     1       6.743   5.499  15.664  0.00  0.00    +0.000 A 
ATOM     30  C   UNL     1       7.632   5.218  14.623  0.00  0.00    +0.000 A 
ATOM     31  C   UNL     1       7.208   4.486  13.516  0.00  0.00    +0.000 A 
ATOM     32  C   UNL     1       5.892   4.032  13.446  0.00  0.00    +0.000 A 
ATOM     33  C   UNL     1       4.999   4.302  14.486  0.00  0.00    +0.000 A 
ENDBRANCH   3  28
TORSDOF 4
ENDMDL
MODEL 4
REMARK VINA RESULT:      -8.4      4.595      9.932
REMARK  Name = 
REMARK  5 active torsions:
REMARK  status: ('A' for Active; 'I' for Inactive)
REMARK    1  A    between atoms: C_1  and  O_2
REMARK    2  A    between atoms: O_2  and  C_3
REMARK    3  A    between atoms: C_10  and  C_12
REMARK    4  A    between atoms: N_14  and  C_15
REMARK    5  A    between atoms: C_22  and  C_23
REMARK                            x       y       z     vdW  Elec       q    Type
REMARK                         _______ _______ _______ _____ _____    ______ ____
ROOT
ATOM      1  C   UNL     1       0.434  13.210  20.003  0.00  0.00    +0.000 A 
ATOM      2  C   UNL     1       1.010  14.077  19.095  0.00  0.00    +0.000 A 
ATOM      3  N   UNL     1       0.271  15.238  19.112  0.00  0.00    +0.000 N 
ATOM      4  N   UNL     1      -0.732  15.170  20.020  0.00  0.00    +0.000 NA
ATOM      5  C   UNL     1      -0.680  13.930  20.531  0.00  0.00    +0.000 A 
ENDROOT
BRANCH   1  13
ATOM      6  C   UNL     1       2.554   5.140  19.615  0.00  0.00    +0.000 A 
ATOM      7  C   UNL     1       2.998   5.488  18.342  0.00  0.00    +0.000 A 
ATOM      8  C   UNL     1       2.833   6.796  17.860  0.00  0.00    +0.000 A 
ATOM      9  C   UNL     1       2.225   7.774  18.670  0.00  0.00    +0.000 A 
ATOM     10  N   UNL     1       1.988   9.098  18.324  0.00  0.00    +0.000 NA
ATOM     11  C   UNL     1       1.487   9.733  19.355  0.00  0.00    +0.000 A 
ATOM     12  N   UNL     1       1.173  11.068  19.292  0.00  0.00    +0.000 N 
ATOM     13  C   UNL     1       0.886  11.875  20.368  0.00  0.00    +0.000 C 
ATOM     14  O   UNL     1       0.980  11.555  21.544  0.00  0.00    +0.000 OA
ATOM     15  S   UNL     1       1.152   8.787  20.731  0.00  0.00    +0.000 S 
ATOM     16  C   UNL     1       1.810   7.409  19.951  0.00  0.00    +0.000 A 
ATOM     17  C   UNL     1       1.956   6.101  20.438  0.00  0.00    +0.000 A 
ATOM     18  H   UNL     1       1.230  11.458  18.363  0.00  0.00    +0.000 HD
BRANCH   6  20
ATOM     19  C   UNL     1       1.761   3.614  21.260  0.00  0.00    +0.000 C 
ATOM     20  O   UNL     1       2.649   3.900  20.186  0.00  0.00    +0.000 OA
ENDBRANCH   6  20
ENDBRANCH   1  13
BRANCH   5  21
ATOM     21  C   UNL     1      -1.703  13.463  21.479  0.00  0.00    +0.000 A 
ATOM     22  C   UNL     1      -1.443  13.436  22.860  0.00  0.00    +0.000 A 
ATOM     23  C   UNL     1      -2.431  13.039  23.766  0.00  0.00    +0.000 A 
ATOM     24  C   UNL     1      -3.669  12.638  23.291  0.00  0.00    +0.000 A 
ATOM     25  F   UNL     1      -4.616  12.260  24.159  0.00  0.00    +0.000 F 
ATOM     26  C   UNL     1      -3.939  12.619  21.929  0.00  0.00    +0.000 A 
ATOM     27  C   UNL     1      -2.957  13.033  21.021  0.00  0.00    +0.000 A 
ENDBRANCH   5  21
BRANCH   3  28
ATOM     28  C   UNL     1       0.449  16.392  18.298  0.00  0.00    +0.000 A 
ATOM     29  C   UNL     1       1.721  16.771  17.846  0.00  0.00    +0.000 A 
ATOM     30  C   UNL     1       1.869  17.884  17.014  0.00  0.00    +0.000 A 
ATOM     31  C   UNL     1       0.754  18.630  16.636  0.00  0.00    +0.000 A 
ATOM     32  C   UNL     1      -0.513  18.267  17.089  0.00  0.00    +0.000 A 
ATOM     33  C   UNL     1      -0.669  17.151  17.915  0.00  0.00    +0.000 A 
ENDBRANCH   3  28
TORSDOF 4
ENDMDL
MODEL 5
REMARK VINA RESULT:      -8.4      3.954     10.414
REMARK  Name = 
REMARK  5 active torsions:
REMARK  status: ('A' for Active; 'I' for Inactive)
REMARK    1  A    between atoms: C_1  and  O_2
REMARK    2  A    between atoms: O_2  and  C_3
REMARK    3  A    between atoms: C_10  and  C_12
REMARK    4  A    between atoms: N_14  and  C_15
REMARK    5  A    between atoms: C_22  and  C_23
REMARK                            x       y       z     vdW  Elec       q    Type
REMARK                         _______ _______ _______ _____ _____    ______ ____
ROOT
ATOM      1  C   UNL     1      -0.188  11.081  19.924  0.00  0.00    +0.000 A 
ATOM      2  C   UNL     1      -1.394  10.925  20.579  0.00  0.00    +0.000 A 
ATOM      3  N   UNL     1      -1.701  12.133  21.163  0.00  0.00    +0.000 N 
ATOM      4  N   UNL     1      -0.765  13.070  20.879  0.00  0.00    +0.000 NA
ATOM      5  C   UNL     1       0.184  12.436  20.173  0.00  0.00    +0.000 A 
ENDROOT
BRANCH   1  13
ATOM      6  C   UNL     1       4.789   4.773  17.643  0.00  0.00    +0.000 A 
ATOM      7  C   UNL     1       4.389   4.234  18.863  0.00  0.00    +0.000 A 
ATOM      8  C   UNL     1       3.534   4.950  19.715  0.00  0.00    +0.000 A 
ATOM      9  C   UNL     1       3.061   6.220  19.334  0.00  0.00    +0.000 A 
ATOM     10  N   UNL     1       2.223   7.043  20.075  0.00  0.00    +0.000 NA
ATOM     11  C   UNL     1       1.924   8.106  19.370  0.00  0.00    +0.000 A 
ATOM     12  N   UNL     1       1.092   9.082  19.861  0.00  0.00    +0.000 N 
ATOM     13  C   UNL     1       0.523  10.093  19.123  0.00  0.00    +0.000 C 
ATOM     14  O   UNL     1       0.578  10.208  17.908  0.00  0.00    +0.000 OA
ATOM     15  S   UNL     1       2.709   8.256  17.865  0.00  0.00    +0.000 S 
ATOM     16  C   UNL     1       3.456   6.730  18.097  0.00  0.00    +0.000 A 
ATOM     17  C   UNL     1       4.322   6.030  17.244  0.00  0.00    +0.000 A 
ATOM     18  H   UNL     1       0.861   8.969  20.836  0.00  0.00    +0.000 HD
BRANCH   6  20
ATOM     19  C   UNL     1       6.996   4.555  16.779  0.00  0.00    +0.000 C 
ATOM     20  O   UNL     1       5.625   4.176  16.739  0.00  0.00    +0.000 OA
ENDBRANCH   6  20
ENDBRANCH   1  13
BRANCH   5  21
ATOM     21  C   UNL     1       1.421  13.129  19.784  0.00  0.00    +0.000 A 
ATOM     22  C   UNL     1       1.661  13.474  18.443  0.00  0.00    +0.000 A 
ATOM     23  C   UNL     1       2.813  14.176  18.079  0.00  0.00    +0.000 A 
ATOM     24  C   UNL     1       3.744  14.506  19.051  0.00  0.00    +0.000 A 
ATOM     25  F   UNL     1       4.848  15.181  18.703  0.00  0.00    +0.000 F 
ATOM     26  C   UNL     1       3.551  14.145  20.378  0.00  0.00    +0.000 A 
ATOM     27  C   UNL     1       2.388  13.457  20.746  0.00  0.00    +0.000 A 
ENDBRANCH   5  21
BRANCH   3  28
ATOM     28  C   UNL     1      -2.816  12.437  21.995  0.00  0.00    +0.000 A 
ATOM     29  C   UNL     1      -4.035  12.860  21.445  0.00  0.00    +0.000 A 
ATOM     30  C   UNL     1      -5.130  13.113  22.276  0.00  0.00    +0.000 A 
ATOM     31  C   UNL     1      -5.016  12.956  23.656  0.00  0.00    +0.000 A 
ATOM     32  C   UNL     1      -3.804  12.546  24.211  0.00  0.00    +0.000 A 
ATOM     33  C   UNL     1      -2.707  12.284  23.386  0.00  0.00    +0.000 A 
ENDBRANCH   3  28
TORSDOF 4
ENDMDL
MODEL 6
REMARK VINA RESULT:      -8.3      3.916     10.549
REMARK  Name = 
REMARK  5 active torsions:
REMARK  status: ('A' for Active; 'I' for Inactive)
REMARK    1  A    between atoms: C_1  and  O_2
REMARK    2  A    between atoms: O_2  and  C_3
REMARK    3  A    between atoms: C_10  and  C_12
REMARK    4  A    between atoms: N_14  and  C_15
REMARK    5  A    between atoms: C_22  and  C_23
REMARK                            x       y       z     vdW  Elec       q    Type
REMARK                         _______ _______ _______ _____ _____    ______ ____
ROOT
ATOM      1  C   UNL     1       0.140  11.389  20.511  0.00  0.00    +0.000 A 
ATOM      2  C   UNL     1      -0.909  11.355  21.409  0.00  0.00    +0.000 A 
ATOM      3  N   UNL     1      -1.029  12.617  21.945  0.00  0.00    +0.000 N 
ATOM      4  N   UNL     1      -0.129  13.471  21.403  0.00  0.00    +0.000 NA
ATOM      5  C   UNL     1       0.621  12.732  20.571  0.00  0.00    +0.000 A 
ENDROOT
BRANCH   1  13
ATOM      6  C   UNL     1       3.899   4.410  17.877  0.00  0.00    +0.000 A 
ATOM      7  C   UNL     1       3.537   3.937  19.137  0.00  0.00    +0.000 A 
ATOM      8  C   UNL     1       2.879   4.773  20.053  0.00  0.00    +0.000 A 
ATOM      9  C   UNL     1       2.567   6.099  19.698  0.00  0.00    +0.000 A 
ATOM     10  N   UNL     1       1.930   7.038  20.500  0.00  0.00    +0.000 NA
ATOM     11  C   UNL     1       1.729   8.133  19.810  0.00  0.00    +0.000 A 
ATOM     12  N   UNL     1       1.100   9.222  20.361  0.00  0.00    +0.000 N 
ATOM     13  C   UNL     1       0.621  10.307  19.663  0.00  0.00    +0.000 C 
ATOM     14  O   UNL     1       0.581  10.411  18.446  0.00  0.00    +0.000 OA
ATOM     15  S   UNL     1       2.386   8.164  18.238  0.00  0.00    +0.000 S 
ATOM     16  C   UNL     1       2.917   6.544  18.423  0.00  0.00    +0.000 A 
ATOM     17  C   UNL     1       3.588   5.723  17.505  0.00  0.00    +0.000 A 
ATOM     18  H   UNL     1       0.945   9.146  21.355  0.00  0.00    +0.000 HD
BRANCH   6  20
ATOM     19  C   UNL     1       5.288   4.437  15.946  0.00  0.00    +0.000 C 
ATOM     20  O   UNL     1       4.551   3.696  16.910  0.00  0.00    +0.000 OA
ENDBRANCH   6  20
ENDBRANCH   1  13
BRANCH   5  21
ATOM     21  C   UNL     1       1.783  13.317  19.885  0.00  0.00    +0.000 A 
ATOM     22  C   UNL     1       1.803  13.441  18.485  0.00  0.00    +0.000 A 
ATOM     23  C   UNL     1       2.885  14.041  17.835  0.00  0.00    +0.000 A 
ATOM     24  C   UNL     1       3.963  14.490  18.581  0.00  0.00    +0.000 A 
ATOM     25  F   UNL     1       5.000  15.067  17.959  0.00  0.00    +0.000 F 
ATOM     26  C   UNL     1       3.986  14.346  19.962  0.00  0.00    +0.000 A 
ATOM     27  C   UNL     1       2.895  13.760  20.616  0.00  0.00    +0.000 A 
ENDBRANCH   5  21
BRANCH   3  28
ATOM     28  C   UNL     1      -1.931  13.047  22.960  0.00  0.00    +0.000 A 
ATOM     29  C   UNL     1      -1.789  14.300  23.571  0.00  0.00    +0.000 A 
ATOM     30  C   UNL     1      -2.710  14.720  24.536  0.00  0.00    +0.000 A 
ATOM     31  C   UNL     1      -3.769  13.892  24.902  0.00  0.00    +0.000 A 
ATOM     32  C   UNL     1      -3.911  12.640  24.306  0.00  0.00    +0.000 A 
ATOM     33  C   UNL     1      -2.999  12.217  23.336  0.00  0.00    +0.000 A 
ENDBRANCH   3  28
TORSDOF 4
ENDMDL
MODEL 7
REMARK VINA RESULT:      -8.3      1.653      2.107
REMARK  Name = 
REMARK  5 active torsions:
REMARK  status: ('A' for Active; 'I' for Inactive)
REMARK    1  A    between atoms: C_1  and  O_2
REMARK    2  A    between atoms: O_2  and  C_3
REMARK    3  A    between atoms: C_10  and  C_12
REMARK    4  A    between atoms: N_14  and  C_15
REMARK    5  A    between atoms: C_22  and  C_23
REMARK                            x       y       z     vdW  Elec       q    Type
REMARK                         _______ _______ _______ _____ _____    ______ ____
ROOT
ATOM      1  C   UNL     1       3.234   6.291  18.196  0.00  0.00    +0.000 A 
ATOM      2  C   UNL     1       4.042   6.506  17.096  0.00  0.00    +0.000 A 
ATOM      3  N   UNL     1       4.517   5.279  16.692  0.00  0.00    +0.000 N 
ATOM      4  N   UNL     1       4.019   4.280  17.459  0.00  0.00    +0.000 NA
ATOM      5  C   UNL     1       3.282   4.880  18.406  0.00  0.00    +0.000 A 
ENDROOT
BRANCH   1  13
ATOM      6  C   UNL     1      -1.307  13.018  20.171  0.00  0.00    +0.000 A 
ATOM      7  C   UNL     1      -1.863  12.808  18.912  0.00  0.00    +0.000 A 
ATOM      8  C   UNL     1      -1.401  11.768  18.090  0.00  0.00    +0.000 A 
ATOM      9  C   UNL     1      -0.373  10.917  18.541  0.00  0.00    +0.000 A 
ATOM     10  N   UNL     1       0.188   9.859  17.838  0.00  0.00    +0.000 NA
ATOM     11  C   UNL     1       1.053   9.240  18.602  0.00  0.00    +0.000 A 
ATOM     12  N   UNL     1       1.745   8.140  18.158  0.00  0.00    +0.000 N 
ATOM     13  C   UNL     1       2.473   7.280  18.946  0.00  0.00    +0.000 C 
ATOM     14  O   UNL     1       2.518   7.298  20.168  0.00  0.00    +0.000 OA
ATOM     15  S   UNL     1       1.344   9.938  20.128  0.00  0.00    +0.000 S 
ATOM     16  C   UNL     1       0.152  11.131  19.816  0.00  0.00    +0.000 A 
ATOM     17  C   UNL     1      -0.292  12.177  20.639  0.00  0.00    +0.000 A 
ATOM     18  H   UNL     1       1.629   7.955  17.173  0.00  0.00    +0.000 HD
BRANCH   6  20
ATOM     19  C   UNL     1      -1.891  13.610  22.400  0.00  0.00    +0.000 C 
ATOM     20  O   UNL     1      -1.666  14.001  21.052  0.00  0.00    +0.000 OA
ENDBRANCH   6  20
ENDBRANCH   1  13
BRANCH   5  21
ATOM     21  C   UNL     1       2.672   4.099  19.493  0.00  0.00    +0.000 A 
ATOM     22  C   UNL     1       1.275   3.983  19.599  0.00  0.00    +0.000 A 
ATOM     23  C   UNL     1       0.695   3.201  20.602  0.00  0.00    +0.000 A 
ATOM     24  C   UNL     1       1.510   2.558  21.520  0.00  0.00    +0.000 A 
ATOM     25  F   UNL     1       0.955   1.807  22.480  0.00  0.00    +0.000 F 
ATOM     26  C   UNL     1       2.892   2.686  21.461  0.00  0.00    +0.000 A 
ATOM     27  C   UNL     1       3.474   3.455  20.447  0.00  0.00    +0.000 A 
ENDBRANCH   5  21
BRANCH   3  28
ATOM     28  C   UNL     1       5.436   5.008  15.638  0.00  0.00    +0.000 A 
ATOM     29  C   UNL     1       5.064   4.221  14.539  0.00  0.00    +0.000 A 
ATOM     30  C   UNL     1       5.967   4.000  13.495  0.00  0.00    +0.000 A 
ATOM     31  C   UNL     1       7.246   4.554  13.544  0.00  0.00    +0.000 A 
ATOM     32  C   UNL     1       7.626   5.329  14.639  0.00  0.00    +0.000 A 
ATOM     33  C   UNL     1       6.726   5.559  15.682  0.00  0.00    +0.000 A 
ENDBRANCH   3  28
TORSDOF 4
ENDMDL
MODEL 8
REMARK VINA RESULT:      -8.2      3.902     10.561
REMARK  Name = 
REMARK  5 active torsions:
REMARK  status: ('A' for Active; 'I' for Inactive)
REMARK    1  A    between atoms: C_1  and  O_2
REMARK    2  A    between atoms: O_2  and  C_3
REMARK    3  A    between atoms: C_10  and  C_12
REMARK    4  A    between atoms: N_14  and  C_15
REMARK    5  A    between atoms: C_22  and  C_23
REMARK                            x       y       z     vdW  Elec       q    Type
REMARK                         _______ _______ _______ _____ _____    ______ ____
ROOT
ATOM      1  C   UNL     1       0.108  11.423  20.534  0.00  0.00    +0.000 A 
ATOM      2  C   UNL     1      -0.947  11.370  21.424  0.00  0.00    +0.000 A 
ATOM      3  N   UNL     1      -1.083  12.626  21.972  0.00  0.00    +0.000 N 
ATOM      4  N   UNL     1      -0.186  13.493  21.445  0.00  0.00    +0.000 NA
ATOM      5  C   UNL     1       0.576  12.770  20.611  0.00  0.00    +0.000 A 
ENDROOT
BRANCH   1  13
ATOM      6  C   UNL     1       3.951   4.508  17.856  0.00  0.00    +0.000 A 
ATOM      7  C   UNL     1       3.586   4.019  19.108  0.00  0.00    +0.000 A 
ATOM      8  C   UNL     1       2.914   4.839  20.028  0.00  0.00    +0.000 A 
ATOM      9  C   UNL     1       2.591   6.166  19.684  0.00  0.00    +0.000 A 
ATOM     10  N   UNL     1       1.941   7.090  20.491  0.00  0.00    +0.000 NA
ATOM     11  C   UNL     1       1.733   8.190  19.811  0.00  0.00    +0.000 A 
ATOM     12  N   UNL     1       1.090   9.267  20.368  0.00  0.00    +0.000 N 
ATOM     13  C   UNL     1       0.605  10.354  19.679  0.00  0.00    +0.000 C 
ATOM     14  O   UNL     1       0.571  10.470  18.463  0.00  0.00    +0.000 OA
ATOM     15  S   UNL     1       2.400   8.243  18.244  0.00  0.00    +0.000 S 
ATOM     16  C   UNL     1       2.945   6.626  18.416  0.00  0.00    +0.000 A 
ATOM     17  C   UNL     1       3.631   5.821  17.494  0.00  0.00    +0.000 A 
ATOM     18  H   UNL     1       0.929   9.180  21.361  0.00  0.00    +0.000 HD
BRANCH   6  20
ATOM     19  C   UNL     1       5.260   4.569  15.870  0.00  0.00    +0.000 C 
ATOM     20  O   UNL     1       4.617   3.809  16.886  0.00  0.00    +0.000 OA
ENDBRANCH   6  20
ENDBRANCH   1  13
BRANCH   5  21
ATOM     21  C   UNL     1       1.737  13.372  19.939  0.00  0.00    +0.000 A 
ATOM     22  C   UNL     1       2.879  13.741  20.671  0.00  0.00    +0.000 A 
ATOM     23  C   UNL     1       4.002  14.269  20.028  0.00  0.00    +0.000 A 
ATOM     24  C   UNL     1       3.974  14.458  18.655  0.00  0.00    +0.000 A 
ATOM     25  F   UNL     1       5.051  14.962  18.038  0.00  0.00    +0.000 F 
ATOM     26  C   UNL     1       2.845  14.138  17.913  0.00  0.00    +0.000 A 
ATOM     27  C   UNL     1       1.725  13.593  18.554  0.00  0.00    +0.000 A 
ENDBRANCH   5  21
BRANCH   3  28
ATOM     28  C   UNL     1      -1.996  13.037  22.984  0.00  0.00    +0.000 A 
ATOM     29  C   UNL     1      -3.070  12.220  23.366  0.00  0.00    +0.000 A 
ATOM     30  C   UNL     1      -3.931  12.624  24.390  0.00  0.00    +0.000 A 
ATOM     31  C   UNL     1      -3.734  13.844  25.033  0.00  0.00    +0.000 A 
ATOM     32  C   UNL     1      -2.674  14.667  24.652  0.00  0.00    +0.000 A 
ATOM     33  C   UNL     1      -1.805  14.266  23.634  0.00  0.00    +0.000 A 
ENDBRANCH   3  28
TORSDOF 4
ENDMDL
MODEL 9
REMARK VINA RESULT:      -8.2      4.459      9.964
REMARK  Name = 
REMARK  5 active torsions:
REMARK  status: ('A' for Active; 'I' for Inactive)
REMARK    1  A    between atoms: C_1  and  O_2
REMARK    2  A    between atoms: O_2  and  C_3
REMARK    3  A    between atoms: C_10  and  C_12
REMARK    4  A    between atoms: N_14  and  C_15
REMARK    5  A    between atoms: C_22  and  C_23
REMARK                            x       y       z     vdW  Elec       q    Type
REMARK                         _______ _______ _______ _____ _____    ______ ____
ROOT
ATOM      1  C   UNL     1      -0.412  10.704  19.423  0.00  0.00    +0.000 A 
ATOM      2  C   UNL     1      -1.768  10.545  19.212  0.00  0.00    +0.000 A 
ATOM      3  N   UNL     1      -2.278  11.778  18.875  0.00  0.00    +0.000 N 
ATOM      4  N   UNL     1      -1.303  12.716  18.820  0.00  0.00    +0.000 NA
ATOM      5  C   UNL     1      -0.176  12.095  19.200  0.00  0.00    +0.000 A 
ENDROOT
BRANCH   1  13
ATOM      6  C   UNL     1       4.881   4.269  18.853  0.00  0.00    +0.000 A 
ATOM      7  C   UNL     1       5.119   4.790  17.583  0.00  0.00    +0.000 A 
ATOM      8  C   UNL     1       4.414   5.916  17.129  0.00  0.00    +0.000 A 
ATOM      9  C   UNL     1       3.466   6.538  17.964  0.00  0.00    +0.000 A 
ATOM     10  N   UNL     1       2.692   7.646  17.648  0.00  0.00    +0.000 NA
ATOM     11  C   UNL     1       1.988   7.998  18.695  0.00  0.00    +0.000 A 
ATOM     12  N   UNL     1       1.143   9.080  18.662  0.00  0.00    +0.000 N 
ATOM     13  C   UNL     1       0.563   9.676  19.757  0.00  0.00    +0.000 C 
ATOM     14  O   UNL     1       0.801   9.407  20.925  0.00  0.00    +0.000 OA
ATOM     15  S   UNL     1       2.100   6.977  20.054  0.00  0.00    +0.000 S 
ATOM     16  C   UNL     1       3.262   6.013  19.241  0.00  0.00    +0.000 A 
ATOM     17  C   UNL     1       3.949   4.879  19.700  0.00  0.00    +0.000 A 
ATOM     18  H   UNL     1       1.017   9.472  17.741  0.00  0.00    +0.000 HD
BRANCH   6  20
ATOM     19  C   UNL     1       4.658   2.207  20.019  0.00  0.00    +0.000 C 
ATOM     20  O   UNL     1       5.495   3.174  19.398  0.00  0.00    +0.000 OA
ENDBRANCH   6  20
ENDBRANCH   1  13
BRANCH   5  21
ATOM     21  C   UNL     1       1.078  12.845  19.365  0.00  0.00    +0.000 A 
ATOM     22  C   UNL     1       1.907  13.112  18.262  0.00  0.00    +0.000 A 
ATOM     23  C   UNL     1       3.074  13.866  18.409  0.00  0.00    +0.000 A 
ATOM     24  C   UNL     1       3.431  14.329  19.665  0.00  0.00    +0.000 A 
ATOM     25  F   UNL     1       4.549  15.054  19.806  0.00  0.00    +0.000 F 
ATOM     26  C   UNL     1       2.651  14.047  20.779  0.00  0.00    +0.000 A 
ATOM     27  C   UNL     1       1.472  13.306  20.630  0.00  0.00    +0.000 A 
ENDBRANCH   5  21
BRANCH   3  28
ATOM     28  C   UNL     1      -3.639  12.117  18.628  0.00  0.00    +0.000 A 
ATOM     29  C   UNL     1      -4.250  11.816  17.403  0.00  0.00    +0.000 A 
ATOM     30  C   UNL     1      -5.598  12.120  17.196  0.00  0.00    +0.000 A 
ATOM     31  C   UNL     1      -6.342  12.733  18.202  0.00  0.00    +0.000 A 
ATOM     32  C   UNL     1      -5.739  13.045  19.420  0.00  0.00    +0.000 A 
ATOM     33  C   UNL     1      -4.393  12.737  19.637  0.00  0.00    +0.000 A 
ENDBRANCH   3  28
TORSDOF 4
ENDMDL
