MODEL 1
REMARK VINA RESULT:      -7.9      0.000      0.000
REMARK  Name = 
REMARK  8 active torsions:
REMARK  status: ('A' for Active; 'I' for Inactive)
REMARK    1  A    between atoms: C_1  and  C_2
REMARK    2  A    between atoms: C_5  and  S_6
REMARK    3  A    between atoms: S_6  and  N_9
REMARK    4  A    between atoms: C_13  and  C_15
REMARK    5  A    between atoms: C_15  and  S_16
REMARK    6  A    between atoms: S_16  and  C_17
REMARK    7  A    between atoms: C_22  and  O_23
REMARK    8  A    between atoms: C_27  and  C_28
REMARK                            x       y       z     vdW  Elec       q    Type
REMARK                         _______ _______ _______ _____ _____    ______ ____
ROOT
ATOM      1  N   UNL     1      -0.790  10.404  19.165  0.00  0.00    +0.000 NA
ATOM      2  C   UNL     1      -0.024   9.986  17.960  0.00  0.00    +0.000 C 
ATOM      3  C   UNL     1       1.464   9.961  18.291  0.00  0.00    +0.000 C 
ATOM      4  N   UNL     1       1.686   8.932  19.300  0.00  0.00    +0.000 N 
ATOM      5  C   UNL     1       2.198   7.715  18.870  0.00  0.00    +0.000 C 
ATOM      6  O   UNL     1       2.383   7.511  17.664  0.00  0.00    +0.000 OA
ATOM      7  C   UNL     1       1.013   9.216  20.574  0.00  0.00    +0.000 C 
ATOM      8  C   UNL     1      -0.474   9.637  20.407  0.00  0.00    +0.000 C 
ENDROOT
BRANCH   1   9
ATOM      9  S   UNL     1      -1.200  12.043  19.265  0.00  0.00    +0.000 S 
ATOM     10  O   UNL     1      -0.560  12.711  18.148  0.00  0.00    +0.000 OA
ATOM     11  O   UNL     1      -1.017  12.516  20.617  0.00  0.00    +0.000 OA
BRANCH   9  16
ATOM     12  C   UNL     1      -7.214  12.210  18.216  0.00  0.00    +0.000 C 
ATOM     13  C   UNL     1      -5.743  12.107  18.498  0.00  0.00    +0.000 A 
ATOM     14  C   UNL     1      -5.215  12.478  19.736  0.00  0.00    +0.000 A 
ATOM     15  C   UNL     1      -3.838  12.419  19.960  0.00  0.00    +0.000 A 
ATOM     16  C   UNL     1      -2.970  11.977  18.948  0.00  0.00    +0.000 A 
ATOM     17  C   UNL     1      -3.483  11.568  17.703  0.00  0.00    +0.000 A 
ATOM     18  C   UNL     1      -2.664  11.060  16.550  0.00  0.00    +0.000 C 
ATOM     19  C   UNL     1      -4.875  11.643  17.500  0.00  0.00    +0.000 A 
ENDBRANCH   9  16
ENDBRANCH   1   9
BRANCH   5  20
ATOM     20  C   UNL     1       2.508   6.636  19.903  0.00  0.00    +0.000 C 
BRANCH  20  21
ATOM     21  S   UNL     1       3.969   5.644  19.412  0.00  0.00    +0.000 S 
BRANCH  21  22
ATOM     22  C   UNL     1       3.173   4.066  19.216  0.00  0.00    +0.000 A 
ATOM     23  N   UNL     1       3.926   3.026  18.817  0.00  0.00    +0.000 NA
ATOM     24  C   UNL     1       3.308   1.845  18.712  0.00  0.00    +0.000 A 
ATOM     25  N   UNL     1       4.072   0.761  18.275  0.00  0.00    +0.000 N 
ATOM     26  C   UNL     1       1.965   1.682  18.963  0.00  0.00    +0.000 A 
ATOM     27  C   UNL     1       1.293   2.814  19.342  0.00  0.00    +0.000 A 
ATOM     28  N   UNL     1       1.860   4.012  19.472  0.00  0.00    +0.000 NA
ATOM     29  H   UNL     1       5.038   1.074  18.199  0.00  0.00    +0.000 HD
ATOM     30  H   UNL     1       3.988  -0.045  18.885  0.00  0.00    +0.000 HD
BRANCH  27  31
ATOM     31  O   UNL     1      -0.040   2.792  19.629  0.00  0.00    +0.000 OA
ATOM     32  H   UNL     1      -0.449   3.578  19.238  0.00  0.00    +0.000 HD
ENDBRANCH  27  31
ENDBRANCH  21  22
ENDBRANCH  20  21
ENDBRANCH   5  20
TORSDOF 6
ENDMDL
MODEL 2
REMARK VINA RESULT:      -7.9      3.432      9.983
REMARK  Name = 
REMARK  8 active torsions:
REMARK  status: ('A' for Active; 'I' for Inactive)
REMARK    1  A    between atoms: C_1  and  C_2
REMARK    2  A    between atoms: C_5  and  S_6
REMARK    3  A    between atoms: S_6  and  N_9
REMARK    4  A    between atoms: C_13  and  C_15
REMARK    5  A    between atoms: C_15  and  S_16
REMARK    6  A    between atoms: S_16  and  C_17
REMARK    7  A    between atoms: C_22  and  O_23
REMARK    8  A    between atoms: C_27  and  C_28
REMARK                            x       y       z     vdW  Elec       q    Type
REMARK                         _______ _______ _______ _____ _____    ______ ____
ROOT
ATOM      1  N   UNL     1       4.283   5.608  18.913  0.00  0.00    +0.000 NA
ATOM      2  C   UNL     1       4.234   6.608  17.812  0.00  0.00    +0.000 C 
ATOM      3  C   UNL     1       2.784   6.830  17.396  0.00  0.00    +0.000 C 
ATOM      4  N   UNL     1       2.076   7.423  18.525  0.00  0.00    +0.000 N 
ATOM      5  C   UNL     1       1.848   8.793  18.489  0.00  0.00    +0.000 C 
ATOM      6  O   UNL     1       2.302   9.473  17.561  0.00  0.00    +0.000 OA
ATOM      7  C   UNL     1       2.009   6.539  19.695  0.00  0.00    +0.000 C 
ATOM      8  C   UNL     1       3.376   5.898  20.065  0.00  0.00    +0.000 C 
ENDROOT
BRANCH   1   9
ATOM      9  S   UNL     1       4.591   4.006  18.463  0.00  0.00    +0.000 S 
ATOM     10  O   UNL     1       3.318   3.413  18.103  0.00  0.00    +0.000 OA
ATOM     11  O   UNL     1       5.456   3.377  19.433  0.00  0.00    +0.000 OA
BRANCH   9  16
ATOM     12  C   UNL     1       7.588   5.114  13.257  0.00  0.00    +0.000 C 
ATOM     13  C   UNL     1       6.874   4.779  14.535  0.00  0.00    +0.000 A 
ATOM     14  C   UNL     1       5.582   4.249  14.527  0.00  0.00    +0.000 A 
ATOM     15  C   UNL     1       4.920   3.989  15.729  0.00  0.00    +0.000 A 
ATOM     16  C   UNL     1       5.548   4.249  16.958  0.00  0.00    +0.000 A 
ATOM     17  C   UNL     1       6.861   4.753  16.991  0.00  0.00    +0.000 A 
ATOM     18  C   UNL     1       7.646   5.053  18.236  0.00  0.00    +0.000 C 
ATOM     19  C   UNL     1       7.505   5.012  15.764  0.00  0.00    +0.000 A 
ENDBRANCH   9  16
ENDBRANCH   1   9
BRANCH   5  20
ATOM     20  C   UNL     1       1.052   9.440  19.618  0.00  0.00    +0.000 C 
BRANCH  20  21
ATOM     21  S   UNL     1       0.803  11.232  19.314  0.00  0.00    +0.000 S 
BRANCH  21  22
ATOM     22  C   UNL     1      -0.871  11.176  18.719  0.00  0.00    +0.000 A 
ATOM     23  N   UNL     1      -1.789  11.929  19.350  0.00  0.00    +0.000 NA
ATOM     24  C   UNL     1      -3.033  11.894  18.859  0.00  0.00    +0.000 A 
ATOM     25  N   UNL     1      -4.001  12.653  19.519  0.00  0.00    +0.000 N 
ATOM     26  C   UNL     1      -3.388  11.112  17.785  0.00  0.00    +0.000 A 
ATOM     27  C   UNL     1      -2.375  10.371  17.233  0.00  0.00    +0.000 A 
ATOM     28  N   UNL     1      -1.119  10.375  17.675  0.00  0.00    +0.000 NA
ATOM     29  H   UNL     1      -3.531  13.193  20.243  0.00  0.00    +0.000 HD
ATOM     30  H   UNL     1      -4.524  13.249  18.889  0.00  0.00    +0.000 HD
BRANCH  27  31
ATOM     31  O   UNL     1      -2.587   9.559  16.158  0.00  0.00    +0.000 OA
ATOM     32  H   UNL     1      -3.167  10.022  15.536  0.00  0.00    +0.000 HD
ENDBRANCH  27  31
ENDBRANCH  21  22
ENDBRANCH  20  21
ENDBRANCH   5  20
TORSDOF 6
ENDMDL
MODEL 3
REMARK VINA RESULT:      -7.8      2.277      2.982
REMARK  Name = 
REMARK  8 active torsions:
REMARK  status: ('A' for Active; 'I' for Inactive)
REMARK    1  A    between atoms: C_1  and  C_2
REMARK    2  A    between atoms: C_5  and  S_6
REMARK    3  A    between atoms: S_6  and  N_9
REMARK    4  A    between atoms: C_13  and  C_15
REMARK    5  A    between atoms: C_15  and  S_16
REMARK    6  A    between atoms: S_16  and  C_17
REMARK    7  A    between atoms: C_22  and  O_23
REMARK    8  A    between atoms: C_27  and  C_28
REMARK                            x       y       z     vdW  Elec       q    Type
REMARK                         _______ _______ _______ _____ _____    ______ ____
ROOT
ATOM      1  N   UNL     1      -0.700  10.498  19.150  0.00  0.00    +0.000 NA
ATOM      2  C   UNL     1       0.028  10.099  17.915  0.00  0.00    +0.000 C 
ATOM      3  C   UNL     1       1.525  10.057  18.203  0.00  0.00    +0.000 C 
ATOM      4  N   UNL     1       1.768   9.007  19.186  0.00  0.00    +0.000 N 
ATOM      5  C   UNL     1       2.258   7.795  18.718  0.00  0.00    +0.000 C 
ATOM      6  O   UNL     1       2.406   7.613  17.503  0.00  0.00    +0.000 OA
ATOM      7  C   UNL     1       1.134   9.271  20.483  0.00  0.00    +0.000 C 
ATOM      8  C   UNL     1      -0.354   9.705  20.368  0.00  0.00    +0.000 C 
ENDROOT
BRANCH   1   9
ATOM      9  S   UNL     1      -1.094  12.138  19.294  0.00  0.00    +0.000 S 
ATOM     10  O   UNL     1      -0.727  12.776  18.044  0.00  0.00    +0.000 OA
ATOM     11  O   UNL     1      -0.618  12.652  20.556  0.00  0.00    +0.000 OA
BRANCH   9  16
ATOM     12  C   UNL     1      -7.192  12.250  19.609  0.00  0.00    +0.000 C 
ATOM     13  C   UNL     1      -5.694  12.162  19.559  0.00  0.00    +0.000 A 
ATOM     14  C   UNL     1      -4.907  12.585  20.632  0.00  0.00    +0.000 A 
ATOM     15  C   UNL     1      -3.515  12.537  20.545  0.00  0.00    +0.000 A 
ATOM     16  C   UNL     1      -2.889  12.056  19.383  0.00  0.00    +0.000 A 
ATOM     17  C   UNL     1      -3.663  11.594  18.302  0.00  0.00    +0.000 A 
ATOM     18  C   UNL     1      -3.117  11.041  17.016  0.00  0.00    +0.000 C 
ATOM     19  C   UNL     1      -5.066  11.659  18.412  0.00  0.00    +0.000 A 
ENDBRANCH   9  16
ENDBRANCH   1   9
BRANCH   5  20
ATOM     20  C   UNL     1       2.589   6.694  19.720  0.00  0.00    +0.000 C 
BRANCH  20  21
ATOM     21  S   UNL     1       2.948   5.108  18.874  0.00  0.00    +0.000 S 
BRANCH  21  22
ATOM     22  C   UNL     1       4.672   5.369  18.527  0.00  0.00    +0.000 A 
ATOM     23  N   UNL     1       5.030   5.600  17.251  0.00  0.00    +0.000 NA
ATOM     24  C   UNL     1       6.329   5.827  17.025  0.00  0.00    +0.000 A 
ATOM     25  N   UNL     1       6.718   6.044  15.702  0.00  0.00    +0.000 N 
ATOM     26  C   UNL     1       7.274   5.801  18.023  0.00  0.00    +0.000 A 
ATOM     27  C   UNL     1       6.799   5.536  19.281  0.00  0.00    +0.000 A 
ATOM     28  N   UNL     1       5.517   5.312  19.564  0.00  0.00    +0.000 NA
ATOM     29  H   UNL     1       5.874   6.078  15.133  0.00  0.00    +0.000 HD
ATOM     30  H   UNL     1       7.275   6.884  15.593  0.00  0.00    +0.000 HD
BRANCH  27  31
ATOM     31  O   UNL     1       7.627   5.488  20.363  0.00  0.00    +0.000 OA
ATOM     32  H   UNL     1       7.550   4.612  20.769  0.00  0.00    +0.000 HD
ENDBRANCH  27  31
ENDBRANCH  21  22
ENDBRANCH  20  21
ENDBRANCH   5  20
TORSDOF 6
ENDMDL
MODEL 4
REMARK VINA RESULT:      -7.8      2.364      3.235
REMARK  Name = 
REMARK  8 active torsions:
REMARK  status: ('A' for Active; 'I' for Inactive)
REMARK    1  A    between atoms: C_1  and  C_2
REMARK    2  A    between atoms: C_5  and  S_6
REMARK    3  A    between atoms: S_6  and  N_9
REMARK    4  A    between atoms: C_13  and  C_15
REMARK    5  A    between atoms: C_15  and  S_16
REMARK    6  A    between atoms: S_16  and  C_17
REMARK    7  A    between atoms: C_22  and  O_23
REMARK    8  A    between atoms: C_27  and  C_28
REMARK                            x       y       z     vdW  Elec       q    Type
REMARK                         _______ _______ _______ _____ _____    ______ ____
ROOT
ATOM      1  N   UNL     1      -0.230   9.980  19.290  0.00  0.00    +0.000 NA
ATOM      2  C   UNL     1       0.471   9.594  18.036  0.00  0.00    +0.000 C 
ATOM      3  C   UNL     1       1.969   9.502  18.302  0.00  0.00    +0.000 C 
ATOM      4  N   UNL     1       2.194   8.418  19.252  0.00  0.00    +0.000 N 
ATOM      5  C   UNL     1       2.643   7.205  18.744  0.00  0.00    +0.000 C 
ATOM      6  O   UNL     1       2.771   7.054  17.523  0.00  0.00    +0.000 OA
ATOM      7  C   UNL     1       1.584   8.663  20.565  0.00  0.00    +0.000 C 
ATOM      8  C   UNL     1       0.108   9.143  20.481  0.00  0.00    +0.000 C 
ENDROOT
BRANCH   1   9
ATOM      9  S   UNL     1      -0.574  11.626  19.485  0.00  0.00    +0.000 S 
ATOM     10  O   UNL     1       0.147  12.337  18.447  0.00  0.00    +0.000 OA
ATOM     11  O   UNL     1      -0.438  11.998  20.873  0.00  0.00    +0.000 OA
BRANCH   9  16
ATOM     12  C   UNL     1      -6.551  11.379  18.253  0.00  0.00    +0.000 C 
ATOM     13  C   UNL     1      -5.075  11.485  18.507  0.00  0.00    +0.000 A 
ATOM     14  C   UNL     1      -4.160  10.694  17.810  0.00  0.00    +0.000 A 
ATOM     15  C   UNL     1      -2.796  10.777  18.097  0.00  0.00    +0.000 A 
ATOM     16  C   UNL     1      -2.327  11.661  19.083  0.00  0.00    +0.000 A 
ATOM     17  C   UNL     1      -3.228  12.491  19.775  0.00  0.00    +0.000 A 
ATOM     18  C   UNL     1      -2.852  13.489  20.834  0.00  0.00    +0.000 C 
ATOM     19  C   UNL     1      -4.600  12.385  19.471  0.00  0.00    +0.000 A 
ENDBRANCH   9  16
ENDBRANCH   1   9
BRANCH   5  20
ATOM     20  C   UNL     1       2.954   6.068  19.711  0.00  0.00    +0.000 C 
BRANCH  20  21
ATOM     21  S   UNL     1       3.351   4.520  18.813  0.00  0.00    +0.000 S 
BRANCH  21  22
ATOM     22  C   UNL     1       5.094   4.783  18.575  0.00  0.00    +0.000 A 
ATOM     23  N   UNL     1       5.585   4.657  17.330  0.00  0.00    +0.000 NA
ATOM     24  C   UNL     1       6.892   4.895  17.175  0.00  0.00    +0.000 A 
ATOM     25  N   UNL     1       7.421   4.744  15.891  0.00  0.00    +0.000 N 
ATOM     26  C   UNL     1       7.719   5.222  18.224  0.00  0.00    +0.000 A 
ATOM     27  C   UNL     1       7.114   5.301  19.451  0.00  0.00    +0.000 A 
ATOM     28  N   UNL     1       5.817   5.085  19.660  0.00  0.00    +0.000 NA
ATOM     29  H   UNL     1       6.646   4.556  15.258  0.00  0.00    +0.000 HD
ATOM     30  H   UNL     1       7.958   5.551  15.595  0.00  0.00    +0.000 HD
BRANCH  27  31
ATOM     31  O   UNL     1       7.815   5.625  20.575  0.00  0.00    +0.000 OA
ATOM     32  H   UNL     1       8.176   6.516  20.463  0.00  0.00    +0.000 HD
ENDBRANCH  27  31
ENDBRANCH  21  22
ENDBRANCH  20  21
ENDBRANCH   5  20
TORSDOF 6
ENDMDL
MODEL 5
REMARK VINA RESULT:      -7.7      3.690     10.123
REMARK  Name = 
REMARK  8 active torsions:
REMARK  status: ('A' for Active; 'I' for Inactive)
REMARK    1  A    between atoms: C_1  and  C_2
REMARK    2  A    between atoms: C_5  and  S_6
REMARK    3  A    between atoms: S_6  and  N_9
REMARK    4  A    between atoms: C_13  and  C_15
REMARK    5  A    between atoms: C_15  and  S_16
REMARK    6  A    between atoms: S_16  and  C_17
REMARK    7  A    between atoms: C_22  and  O_23
REMARK    8  A    between atoms: C_27  and  C_28
REMARK                            x       y       z     vdW  Elec       q    Type
REMARK                         _______ _______ _______ _____ _____    ______ ____
ROOT
ATOM      1  N   UNL     1       4.348   5.551  18.721  0.00  0.00    +0.000 NA
ATOM      2  C   UNL     1       4.246   6.562  17.633  0.00  0.00    +0.000 C 
ATOM      3  C   UNL     1       2.777   6.794  17.296  0.00  0.00    +0.000 C 
ATOM      4  N   UNL     1       2.131   7.378  18.466  0.00  0.00    +0.000 N 
ATOM      5  C   UNL     1       1.908   8.749  18.456  0.00  0.00    +0.000 C 
ATOM      6  O   UNL     1       2.315   9.436  17.512  0.00  0.00    +0.000 OA
ATOM      7  C   UNL     1       2.122   6.483  19.629  0.00  0.00    +0.000 C 
ATOM      8  C   UNL     1       3.503   5.832  19.921  0.00  0.00    +0.000 C 
ENDROOT
BRANCH   1   9
ATOM      9  S   UNL     1       4.626   3.953  18.239  0.00  0.00    +0.000 S 
ATOM     10  O   UNL     1       3.342   3.392  17.863  0.00  0.00    +0.000 OA
ATOM     11  O   UNL     1       5.474   3.287  19.199  0.00  0.00    +0.000 OA
BRANCH   9  16
ATOM     12  C   UNL     1       7.663   5.101  13.066  0.00  0.00    +0.000 C 
ATOM     13  C   UNL     1       6.938   4.756  14.335  0.00  0.00    +0.000 A 
ATOM     14  C   UNL     1       5.641   4.240  14.312  0.00  0.00    +0.000 A 
ATOM     15  C   UNL     1       4.970   3.971  15.507  0.00  0.00    +0.000 A 
ATOM     16  C   UNL     1       5.594   4.206  16.743  0.00  0.00    +0.000 A 
ATOM     17  C   UNL     1       6.912   4.695  16.790  0.00  0.00    +0.000 A 
ATOM     18  C   UNL     1       7.693   4.970  18.044  0.00  0.00    +0.000 C 
ATOM     19  C   UNL     1       7.566   4.965  15.571  0.00  0.00    +0.000 A 
ENDBRANCH   9  16
ENDBRANCH   1   9
BRANCH   5  20
ATOM     20  C   UNL     1       1.174   9.388  19.630  0.00  0.00    +0.000 C 
BRANCH  20  21
ATOM     21  S   UNL     1      -0.003  10.672  19.060  0.00  0.00    +0.000 S 
BRANCH  21  22
ATOM     22  C   UNL     1      -0.726  11.094  20.629  0.00  0.00    +0.000 A 
ATOM     23  N   UNL     1      -1.609  12.107  20.663  0.00  0.00    +0.000 NA
ATOM     24  C   UNL     1      -2.162  12.379  21.851  0.00  0.00    +0.000 A 
ATOM     25  N   UNL     1      -3.064  13.445  21.906  0.00  0.00    +0.000 N 
ATOM     26  C   UNL     1      -1.838  11.695  22.998  0.00  0.00    +0.000 A 
ATOM     27  C   UNL     1      -0.910  10.697  22.848  0.00  0.00    +0.000 A 
ATOM     28  N   UNL     1      -0.336  10.377  21.691  0.00  0.00    +0.000 NA
ATOM     29  H   UNL     1      -3.206  13.778  20.954  0.00  0.00    +0.000 HD
ATOM     30  H   UNL     1      -3.940  13.190  22.347  0.00  0.00    +0.000 HD
BRANCH  27  31
ATOM     31  O   UNL     1      -0.504   9.934  23.903  0.00  0.00    +0.000 OA
ATOM     32  H   UNL     1      -1.042   9.129  23.922  0.00  0.00    +0.000 HD
ENDBRANCH  27  31
ENDBRANCH  21  22
ENDBRANCH  20  21
ENDBRANCH   5  20
TORSDOF 6
ENDMDL
MODEL 6
REMARK VINA RESULT:      -7.7      2.250      3.048
REMARK  Name = 
REMARK  8 active torsions:
REMARK  status: ('A' for Active; 'I' for Inactive)
REMARK    1  A    between atoms: C_1  and  C_2
REMARK    2  A    between atoms: C_5  and  S_6
REMARK    3  A    between atoms: S_6  and  N_9
REMARK    4  A    between atoms: C_13  and  C_15
REMARK    5  A    between atoms: C_15  and  S_16
REMARK    6  A    between atoms: S_16  and  C_17
REMARK    7  A    between atoms: C_22  and  O_23
REMARK    8  A    between atoms: C_27  and  C_28
REMARK                            x       y       z     vdW  Elec       q    Type
REMARK                         _______ _______ _______ _____ _____    ______ ____
ROOT
ATOM      1  N   UNL     1      -0.796  11.595  20.388  0.00  0.00    +0.000 NA
ATOM      2  C   UNL     1      -0.275  11.567  18.994  0.00  0.00    +0.000 C 
ATOM      3  C   UNL     1       1.231  11.331  19.023  0.00  0.00    +0.000 C 
ATOM      4  N   UNL     1       1.471  10.005  19.582  0.00  0.00    +0.000 N 
ATOM      5  C   UNL     1       1.758   8.978  18.691  0.00  0.00    +0.000 C 
ATOM      6  O   UNL     1       1.734   9.190  17.473  0.00  0.00    +0.000 OA
ATOM      7  C   UNL     1       1.035   9.878  20.978  0.00  0.00    +0.000 C 
ATOM      8  C   UNL     1      -0.397  10.428  21.232  0.00  0.00    +0.000 C 
ENDROOT
BRANCH   1   9
ATOM      9  S   UNL     1      -0.980  13.123  21.092  0.00  0.00    +0.000 S 
ATOM     10  O   UNL     1      -1.160  14.072  20.010  0.00  0.00    +0.000 OA
ATOM     11  O   UNL     1       0.036  13.329  22.098  0.00  0.00    +0.000 OA
BRANCH   9  16
ATOM     12  C   UNL     1      -6.291  12.825  24.092  0.00  0.00    +0.000 C 
ATOM     13  C   UNL     1      -4.978  12.833  23.363  0.00  0.00    +0.000 A 
ATOM     14  C   UNL     1      -3.771  12.991  24.046  0.00  0.00    +0.000 A 
ATOM     15  C   UNL     1      -2.566  13.042  23.342  0.00  0.00    +0.000 A 
ATOM     16  C   UNL     1      -2.554  12.925  21.942  0.00  0.00    +0.000 A 
ATOM     17  C   UNL     1      -3.756  12.733  21.236  0.00  0.00    +0.000 A 
ATOM     18  C   UNL     1      -3.873  12.577  19.746  0.00  0.00    +0.000 C 
ATOM     19  C   UNL     1      -4.959  12.691  21.969  0.00  0.00    +0.000 A 
ENDBRANCH   9  16
ENDBRANCH   1   9
BRANCH   5  20
ATOM     20  C   UNL     1       2.082   7.593  19.240  0.00  0.00    +0.000 C 
BRANCH  20  21
ATOM     21  S   UNL     1       3.226   6.688  18.129  0.00  0.00    +0.000 S 
BRANCH  21  22
ATOM     22  C   UNL     1       3.067   5.065  18.838  0.00  0.00    +0.000 A 
ATOM     23  N   UNL     1       1.846   4.673  19.244  0.00  0.00    +0.000 NA
ATOM     24  C   UNL     1       1.750   3.435  19.741  0.00  0.00    +0.000 A 
ATOM     25  N   UNL     1       0.493   3.022  20.189  0.00  0.00    +0.000 N 
ATOM     26  C   UNL     1       2.833   2.598  19.871  0.00  0.00    +0.000 A 
ATOM     27  C   UNL     1       4.031   3.110  19.444  0.00  0.00    +0.000 A 
ATOM     28  N   UNL     1       4.182   4.330  18.933  0.00  0.00    +0.000 NA
ATOM     29  H   UNL     1      -0.173   3.756  19.957  0.00  0.00    +0.000 HD
ATOM     30  H   UNL     1       0.215   2.129  19.799  0.00  0.00    +0.000 HD
BRANCH  27  31
ATOM     31  O   UNL     1       5.183   2.384  19.508  0.00  0.00    +0.000 OA
ATOM     32  H   UNL     1       5.036   1.539  19.059  0.00  0.00    +0.000 HD
ENDBRANCH  27  31
ENDBRANCH  21  22
ENDBRANCH  20  21
ENDBRANCH   5  20
TORSDOF 6
ENDMDL
MODEL 7
REMARK VINA RESULT:      -7.6      2.285      3.298
REMARK  Name = 
REMARK  8 active torsions:
REMARK  status: ('A' for Active; 'I' for Inactive)
REMARK    1  A    between atoms: C_1  and  C_2
REMARK    2  A    between atoms: C_5  and  S_6
REMARK    3  A    between atoms: S_6  and  N_9
REMARK    4  A    between atoms: C_13  and  C_15
REMARK    5  A    between atoms: C_15  and  S_16
REMARK    6  A    between atoms: S_16  and  C_17
REMARK    7  A    between atoms: C_22  and  O_23
REMARK    8  A    between atoms: C_27  and  C_28
REMARK                            x       y       z     vdW  Elec       q    Type
REMARK                         _______ _______ _______ _____ _____    ______ ____
ROOT
ATOM      1  N   UNL     1      -0.660  10.340  19.295  0.00  0.00    +0.000 NA
ATOM      2  C   UNL     1       0.120  10.132  18.045  0.00  0.00    +0.000 C 
ATOM      3  C   UNL     1       1.607  10.087  18.380  0.00  0.00    +0.000 C 
ATOM      4  N   UNL     1       1.847   8.918  19.218  0.00  0.00    +0.000 N 
ATOM      5  C   UNL     1       2.388   7.794  18.607  0.00  0.00    +0.000 C 
ATOM      6  O   UNL     1       2.581   7.785  17.385  0.00  0.00    +0.000 OA
ATOM      7  C   UNL     1       1.163   8.985  20.515  0.00  0.00    +0.000 C 
ATOM      8  C   UNL     1      -0.332   9.395  20.405  0.00  0.00    +0.000 C 
ENDROOT
BRANCH   1   9
ATOM      9  S   UNL     1      -1.106  11.935  19.647  0.00  0.00    +0.000 S 
ATOM     10  O   UNL     1      -0.403  12.790  18.711  0.00  0.00    +0.000 OA
ATOM     11  O   UNL     1      -1.025  12.168  21.070  0.00  0.00    +0.000 OA
BRANCH   9  16
ATOM     12  C   UNL     1      -7.031  11.488  18.237  0.00  0.00    +0.000 C 
ATOM     13  C   UNL     1      -5.568  11.646  18.538  0.00  0.00    +0.000 A 
ATOM     14  C   UNL     1      -4.602  10.929  17.831  0.00  0.00    +0.000 A 
ATOM     15  C   UNL     1      -3.251  11.058  18.159  0.00  0.00    +0.000 A 
ATOM     16  C   UNL     1      -2.848  11.914  19.198  0.00  0.00    +0.000 A 
ATOM     17  C   UNL     1      -3.803  12.669  19.903  0.00  0.00    +0.000 A 
ATOM     18  C   UNL     1      -3.499  13.630  21.018  0.00  0.00    +0.000 C 
ATOM     19  C   UNL     1      -5.160  12.518  19.556  0.00  0.00    +0.000 A 
ENDBRANCH   9  16
ENDBRANCH   1   9
BRANCH   5  20
ATOM     20  C   UNL     1       2.717   6.574  19.461  0.00  0.00    +0.000 C 
BRANCH  20  21
ATOM     21  S   UNL     1       3.012   5.093  18.421  0.00  0.00    +0.000 S 
BRANCH  21  22
ATOM     22  C   UNL     1       4.749   5.317  18.115  0.00  0.00    +0.000 A 
ATOM     23  N   UNL     1       5.576   5.345  19.175  0.00  0.00    +0.000 NA
ATOM     24  C   UNL     1       6.880   5.480  18.912  0.00  0.00    +0.000 A 
ATOM     25  N   UNL     1       7.749   5.535  20.004  0.00  0.00    +0.000 N 
ATOM     26  C   UNL     1       7.373   5.617  17.636  0.00  0.00    +0.000 A 
ATOM     27  C   UNL     1       6.437   5.595  16.635  0.00  0.00    +0.000 A 
ATOM     28  N   UNL     1       5.129   5.453  16.839  0.00  0.00    +0.000 NA
ATOM     29  H   UNL     1       7.200   5.362  20.844  0.00  0.00    +0.000 HD
ATOM     30  H   UNL     1       8.520   4.882  19.921  0.00  0.00    +0.000 HD
BRANCH  27  31
ATOM     31  O   UNL     1       6.789   5.712  15.323  0.00  0.00    +0.000 OA
ATOM     32  H   UNL     1       6.170   6.320  14.894  0.00  0.00    +0.000 HD
ENDBRANCH  27  31
ENDBRANCH  21  22
ENDBRANCH  20  21
ENDBRANCH   5  20
TORSDOF 6
ENDMDL
MODEL 8
REMARK VINA RESULT:      -7.6      4.053     10.240
REMARK  Name = 
REMARK  8 active torsions:
REMARK  status: ('A' for Active; 'I' for Inactive)
REMARK    1  A    between atoms: C_1  and  C_2
REMARK    2  A    between atoms: C_5  and  S_6
REMARK    3  A    between atoms: S_6  and  N_9
REMARK    4  A    between atoms: C_13  and  C_15
REMARK    5  A    between atoms: C_15  and  S_16
REMARK    6  A    between atoms: S_16  and  C_17
REMARK    7  A    between atoms: C_22  and  O_23
REMARK    8  A    between atoms: C_27  and  C_28
REMARK                            x       y       z     vdW  Elec       q    Type
REMARK                         _______ _______ _______ _____ _____    ______ ____
ROOT
ATOM      1  N   UNL     1       4.290   5.649  18.815  0.00  0.00    +0.000 NA
ATOM      2  C   UNL     1       4.190   6.633  17.703  0.00  0.00    +0.000 C 
ATOM      3  C   UNL     1       2.722   6.854  17.356  0.00  0.00    +0.000 C 
ATOM      4  N   UNL     1       2.071   7.464  18.509  0.00  0.00    +0.000 N 
ATOM      5  C   UNL     1       1.845   8.834  18.466  0.00  0.00    +0.000 C 
ATOM      6  O   UNL     1       2.254   9.499  17.507  0.00  0.00    +0.000 OA
ATOM      7  C   UNL     1       2.059   6.597  19.694  0.00  0.00    +0.000 C 
ATOM      8  C   UNL     1       3.441   5.957  20.005  0.00  0.00    +0.000 C 
ENDROOT
BRANCH   1   9
ATOM      9  S   UNL     1       4.572   4.039  18.372  0.00  0.00    +0.000 S 
ATOM     10  O   UNL     1       3.291   3.467  18.008  0.00  0.00    +0.000 OA
ATOM     11  O   UNL     1       5.421   3.399  19.350  0.00  0.00    +0.000 OA
BRANCH   9  16
ATOM     12  C   UNL     1       7.616   5.071  13.178  0.00  0.00    +0.000 C 
ATOM     13  C   UNL     1       6.890   4.754  14.454  0.00  0.00    +0.000 A 
ATOM     14  C   UNL     1       5.593   4.238  14.441  0.00  0.00    +0.000 A 
ATOM     15  C   UNL     1       4.921   3.995  15.641  0.00  0.00    +0.000 A 
ATOM     16  C   UNL     1       5.542   4.259  16.873  0.00  0.00    +0.000 A 
ATOM     17  C   UNL     1       6.860   4.750  16.910  0.00  0.00    +0.000 A 
ATOM     18  C   UNL     1       7.639   5.054  18.158  0.00  0.00    +0.000 C 
ATOM     19  C   UNL     1       7.515   4.992  15.686  0.00  0.00    +0.000 A 
ENDBRANCH   9  16
ENDBRANCH   1   9
BRANCH   5  20
ATOM     20  C   UNL     1       1.106   9.499  19.623  0.00  0.00    +0.000 C 
BRANCH  20  21
ATOM     21  S   UNL     1       0.086  10.906  19.039  0.00  0.00    +0.000 S 
BRANCH  21  22
ATOM     22  C   UNL     1       1.209  12.232  19.417  0.00  0.00    +0.000 A 
ATOM     23  N   UNL     1       2.076  12.613  18.464  0.00  0.00    +0.000 NA
ATOM     24  C   UNL     1       2.885  13.635  18.764  0.00  0.00    +0.000 A 
ATOM     25  N   UNL     1       3.808  14.026  17.791  0.00  0.00    +0.000 N 
ATOM     26  C   UNL     1       2.872  14.260  19.989  0.00  0.00    +0.000 A 
ATOM     27  C   UNL     1       1.962  13.774  20.891  0.00  0.00    +0.000 A 
ATOM     28  N   UNL     1       1.127  12.768  20.642  0.00  0.00    +0.000 NA
ATOM     29  H   UNL     1       3.619  13.484  16.951  0.00  0.00    +0.000 HD
ATOM     30  H   UNL     1       3.779  15.023  17.606  0.00  0.00    +0.000 HD
BRANCH  27  31
ATOM     31  O   UNL     1       1.838  14.308  22.139  0.00  0.00    +0.000 OA
ATOM     32  H   UNL     1       2.716  14.344  22.545  0.00  0.00    +0.000 HD
ENDBRANCH  27  31
ENDBRANCH  21  22
ENDBRANCH  20  21
ENDBRANCH   5  20
TORSDOF 6
ENDMDL
MODEL 9
REMARK VINA RESULT:      -7.6      0.515      1.417
REMARK  Name = 
REMARK  8 active torsions:
REMARK  status: ('A' for Active; 'I' for Inactive)
REMARK    1  A    between atoms: C_1  and  C_2
REMARK    2  A    between atoms: C_5  and  S_6
REMARK    3  A    between atoms: S_6  and  N_9
REMARK    4  A    between atoms: C_13  and  C_15
REMARK    5  A    between atoms: C_15  and  S_16
REMARK    6  A    between atoms: S_16  and  C_17
REMARK    7  A    between atoms: C_22  and  O_23
REMARK    8  A    between atoms: C_27  and  C_28
REMARK                            x       y       z     vdW  Elec       q    Type
REMARK                         _______ _______ _______ _____ _____    ______ ____
ROOT
ATOM      1  N   UNL     1      -0.824  10.549  19.246  0.00  0.00    +0.000 NA
ATOM      2  C   UNL     1      -0.123  10.090  18.016  0.00  0.00    +0.000 C 
ATOM      3  C   UNL     1       1.377  10.028  18.282  0.00  0.00    +0.000 C 
ATOM      4  N   UNL     1       1.614   9.009  19.298  0.00  0.00    +0.000 N 
ATOM      5  C   UNL     1       2.072   7.771  18.867  0.00  0.00    +0.000 C 
ATOM      6  O   UNL     1       2.197   7.543  17.658  0.00  0.00    +0.000 OA
ATOM      7  C   UNL     1       1.007   9.332  20.595  0.00  0.00    +0.000 C 
ATOM      8  C   UNL     1      -0.474   9.792  20.487  0.00  0.00    +0.000 C 
ENDROOT
BRANCH   1   9
ATOM      9  S   UNL     1      -1.182  12.200  19.337  0.00  0.00    +0.000 S 
ATOM     10  O   UNL     1      -0.716  12.806  18.104  0.00  0.00    +0.000 OA
ATOM     11  O   UNL     1      -0.778  12.724  20.620  0.00  0.00    +0.000 OA
BRANCH   9  16
ATOM     12  C   UNL     1      -7.267  11.690  19.222  0.00  0.00    +0.000 C 
ATOM     13  C   UNL     1      -5.777  11.876  19.222  0.00  0.00    +0.000 A 
ATOM     14  C   UNL     1      -4.999  11.495  18.127  0.00  0.00    +0.000 A 
ATOM     15  C   UNL     1      -3.611  11.634  18.168  0.00  0.00    +0.000 A 
ATOM     16  C   UNL     1      -2.981  12.165  19.306  0.00  0.00    +0.000 A 
ATOM     17  C   UNL     1      -3.748  12.585  20.409  0.00  0.00    +0.000 A 
ATOM     18  C   UNL     1      -3.197  13.183  21.672  0.00  0.00    +0.000 C 
ATOM     19  C   UNL     1      -5.147  12.429  20.345  0.00  0.00    +0.000 A 
ENDBRANCH   9  16
ENDBRANCH   1   9
BRANCH   5  20
ATOM     20  C   UNL     1       2.397   6.700  19.903  0.00  0.00    +0.000 C 
BRANCH  20  21
ATOM     21  S   UNL     1       3.865   5.718  19.409  0.00  0.00    +0.000 S 
BRANCH  21  22
ATOM     22  C   UNL     1       3.082   4.132  19.229  0.00  0.00    +0.000 A 
ATOM     23  N   UNL     1       3.842   3.096  18.833  0.00  0.00    +0.000 NA
ATOM     24  C   UNL     1       3.234   1.908  18.739  0.00  0.00    +0.000 A 
ATOM     25  N   UNL     1       4.007   0.828  18.306  0.00  0.00    +0.000 N 
ATOM     26  C   UNL     1       1.895   1.734  18.999  0.00  0.00    +0.000 A 
ATOM     27  C   UNL     1       1.215   2.863  19.374  0.00  0.00    +0.000 A 
ATOM     28  N   UNL     1       1.771   4.067  19.492  0.00  0.00    +0.000 NA
ATOM     29  H   UNL     1       4.969   1.151  18.222  0.00  0.00    +0.000 HD
ATOM     30  H   UNL     1       3.934   0.027  18.922  0.00  0.00    +0.000 HD
BRANCH  27  31
ATOM     31  O   UNL     1      -0.116   2.831  19.669  0.00  0.00    +0.000 OA
ATOM     32  H   UNL     1      -0.245   2.252  20.434  0.00  0.00    +0.000 HD
ENDBRANCH  27  31
ENDBRANCH  21  22
ENDBRANCH  20  21
ENDBRANCH   5  20
TORSDOF 6
ENDMDL
