MODEL 1
REMARK VINA RESULT:      -7.7      0.000      0.000
REMARK  Name = 
REMARK  6 active torsions:
REMARK  status: ('A' for Active; 'I' for Inactive)
REMARK    1  A    between atoms: C_1  and  N_2
REMARK    2  A    between atoms: N_2  and  C_3
REMARK    3  A    between atoms: C_8  and  N_9
REMARK    4  A    between atoms: C_12  and  O_13
REMARK    5  A    between atoms: N_18  and  C_19
REMARK    6  A    between atoms: C_19  and  C_20
REMARK                            x       y       z     vdW  Elec       q    Type
REMARK                         _______ _______ _______ _____ _____    ______ ____
ROOT
ATOM      1  C   UNL     1       4.371   1.899  20.675  0.00  0.00    +0.000 C 
ATOM      2  N   UNL     1       3.333   2.813  21.111  0.00  0.00    +0.000 N 
ATOM      3  C   UNL     1       2.040   2.253  21.469  0.00  0.00    +0.000 C 
ATOM      4  C   UNL     1       3.237   4.006  20.389  0.00  0.00    +0.000 A 
ATOM      5  N   UNL     1       2.282   4.872  20.741  0.00  0.00    +0.000 NA
ATOM      6  C   UNL     1       2.217   6.041  20.074  0.00  0.00    +0.000 A 
ATOM      7  C   UNL     1       3.028   6.340  18.992  0.00  0.00    +0.000 A 
ATOM      8  C   UNL     1       3.995   5.392  18.664  0.00  0.00    +0.000 A 
ATOM      9  N   UNL     1       4.108   4.254  19.393  0.00  0.00    +0.000 NA
ATOM     10  C   UNL     1       2.924   7.692  18.336  0.00  0.00    +0.000 C 
ATOM     11  N   UNL     1       1.742   8.488  18.708  0.00  0.00    +0.000 NA
ATOM     12  C   UNL     1       1.586   8.473  20.163  0.00  0.00    +0.000 C 
ATOM     13  C   UNL     1       1.200   7.043  20.561  0.00  0.00    +0.000 C 
ENDROOT
BRANCH   8  14
ATOM     14  N   UNL     1       4.903   5.566  17.628  0.00  0.00    +0.000 N 
ATOM     15  C   UNL     1       6.264   6.004  17.944  0.00  0.00    +0.000 C 
ATOM     16  C   UNL     1       7.305   4.993  17.470  0.00  0.00    +0.000 C 
ATOM     17  C   UNL     1       7.094   4.586  16.016  0.00  0.00    +0.000 C 
ATOM     18  C   UNL     1       5.680   4.084  15.797  0.00  0.00    +0.000 C 
ATOM     19  C   UNL     1       4.631   5.065  16.285  0.00  0.00    +0.000 C 
BRANCH  17  20
ATOM     20  O   UNL     1       7.391   5.660  15.125  0.00  0.00    +0.000 OA
ATOM     21  H   UNL     1       8.259   5.508  14.718  0.00  0.00    +0.000 HD
ENDBRANCH  17  20
ENDBRANCH   8  14
BRANCH  11  22
ATOM     22  C   UNL     1       1.763   9.836  18.115  0.00  0.00    +0.000 C 
BRANCH  22  23
ATOM     23  C   UNL     1       1.140  10.906  19.050  0.00  0.00    +0.000 C 
ATOM     24  C   UNL     1      -0.382  10.933  19.020  0.00  0.00    +0.000 C 
ATOM     25  C   UNL     1      -0.741  12.075  18.096  0.00  0.00    +0.000 C 
ATOM     26  N   UNL     1       0.357  13.032  18.169  0.00  0.00    +0.000 NA
ATOM     27  C   UNL     1       1.543  12.334  18.680  0.00  0.00    +0.000 C 
ATOM     28  H   UNL     1       0.117  13.795  18.801  0.00  0.00    +0.000 HD
ENDBRANCH  22  23
ENDBRANCH  11  22
TORSDOF 4
ENDMDL
MODEL 2
REMARK VINA RESULT:      -7.0      0.896      1.123
REMARK  Name = 
REMARK  6 active torsions:
REMARK  status: ('A' for Active; 'I' for Inactive)
REMARK    1  A    between atoms: C_1  and  N_2
REMARK    2  A    between atoms: N_2  and  C_3
REMARK    3  A    between atoms: C_8  and  N_9
REMARK    4  A    between atoms: C_12  and  O_13
REMARK    5  A    between atoms: N_18  and  C_19
REMARK    6  A    between atoms: C_19  and  C_20
REMARK                            x       y       z     vdW  Elec       q    Type
REMARK                         _______ _______ _______ _____ _____    ______ ____
ROOT
ATOM      1  C   UNL     1       3.899   1.973  20.676  0.00  0.00    +0.000 C 
ATOM      2  N   UNL     1       2.936   2.964  21.118  0.00  0.00    +0.000 N 
ATOM      3  C   UNL     1       1.601   2.506  21.465  0.00  0.00    +0.000 C 
ATOM      4  C   UNL     1       2.940   4.168  20.407  0.00  0.00    +0.000 A 
ATOM      5  N   UNL     1       2.057   5.105  20.764  0.00  0.00    +0.000 NA
ATOM      6  C   UNL     1       2.089   6.281  20.108  0.00  0.00    +0.000 A 
ATOM      7  C   UNL     1       2.926   6.524  19.032  0.00  0.00    +0.000 A 
ATOM      8  C   UNL     1       3.815   5.504  18.698  0.00  0.00    +0.000 A 
ATOM      9  N   UNL     1       3.833   4.354  19.416  0.00  0.00    +0.000 NA
ATOM     10  C   UNL     1       2.934   7.887  18.388  0.00  0.00    +0.000 C 
ATOM     11  N   UNL     1       1.819   8.772  18.764  0.00  0.00    +0.000 NA
ATOM     12  C   UNL     1       1.656   8.755  20.218  0.00  0.00    +0.000 C 
ATOM     13  C   UNL     1       1.153   7.357  20.601  0.00  0.00    +0.000 C 
ENDROOT
BRANCH   8  14
ATOM     14  N   UNL     1       4.739   5.614  17.667  0.00  0.00    +0.000 N 
ATOM     15  C   UNL     1       6.061   6.172  17.957  0.00  0.00    +0.000 C 
ATOM     16  C   UNL     1       7.174   5.180  17.625  0.00  0.00    +0.000 C 
ATOM     17  C   UNL     1       7.028   4.595  16.225  0.00  0.00    +0.000 C 
ATOM     18  C   UNL     1       5.654   3.982  16.038  0.00  0.00    +0.000 C 
ATOM     19  C   UNL     1       4.534   4.945  16.387  0.00  0.00    +0.000 C 
BRANCH  17  20
ATOM     20  O   UNL     1       7.283   5.576  15.220  0.00  0.00    +0.000 OA
ATOM     21  H   UNL     1       6.559   6.222  15.214  0.00  0.00    +0.000 HD
ENDBRANCH  17  20
ENDBRANCH   8  14
BRANCH  11  22
ATOM     22  C   UNL     1       1.950  10.119  18.184  0.00  0.00    +0.000 C 
BRANCH  22  23
ATOM     23  C   UNL     1       0.577  10.764  17.864  0.00  0.00    +0.000 C 
ATOM     24  C   UNL     1       0.174  11.862  18.839  0.00  0.00    +0.000 C 
ATOM     25  C   UNL     1      -0.783  11.203  19.806  0.00  0.00    +0.000 C 
ATOM     26  N   UNL     1      -1.425  10.112  19.081  0.00  0.00    +0.000 NA
ATOM     27  C   UNL     1      -0.584   9.770  17.928  0.00  0.00    +0.000 C 
ATOM     28  H   UNL     1      -2.345  10.402  18.752  0.00  0.00    +0.000 HD
ENDBRANCH  22  23
ENDBRANCH  11  22
TORSDOF 4
ENDMDL
MODEL 3
REMARK VINA RESULT:      -6.9      2.876      4.888
REMARK  Name = 
REMARK  6 active torsions:
REMARK  status: ('A' for Active; 'I' for Inactive)
REMARK    1  A    between atoms: C_1  and  N_2
REMARK    2  A    between atoms: N_2  and  C_3
REMARK    3  A    between atoms: C_8  and  N_9
REMARK    4  A    between atoms: C_12  and  O_13
REMARK    5  A    between atoms: N_18  and  C_19
REMARK    6  A    between atoms: C_19  and  C_20
REMARK                            x       y       z     vdW  Elec       q    Type
REMARK                         _______ _______ _______ _____ _____    ______ ____
ROOT
ATOM      1  C   UNL     1       5.398   4.178  16.825  0.00  0.00    +0.000 C 
ATOM      2  N   UNL     1       5.064   5.573  16.610  0.00  0.00    +0.000 N 
ATOM      3  C   UNL     1       6.149   6.496  16.323  0.00  0.00    +0.000 C 
ATOM      4  C   UNL     1       4.102   6.103  17.476  0.00  0.00    +0.000 A 
ATOM      5  N   UNL     1       3.775   7.390  17.330  0.00  0.00    +0.000 NA
ATOM      6  C   UNL     1       2.818   7.891  18.135  0.00  0.00    +0.000 A 
ATOM      7  C   UNL     1       2.232   7.161  19.156  0.00  0.00    +0.000 A 
ATOM      8  C   UNL     1       2.624   5.829  19.267  0.00  0.00    +0.000 A 
ATOM      9  N   UNL     1       3.528   5.310  18.400  0.00  0.00    +0.000 NA
ATOM     10  C   UNL     1       1.131   7.782  19.977  0.00  0.00    +0.000 C 
ATOM     11  N   UNL     1       0.972   9.239  19.826  0.00  0.00    +0.000 NA
ATOM     12  C   UNL     1       0.977   9.582  18.403  0.00  0.00    +0.000 C 
ATOM     13  C   UNL     1       2.394   9.316  17.878  0.00  0.00    +0.000 C 
ENDROOT
BRANCH   8  14
ATOM     14  N   UNL     1       2.098   4.964  20.218  0.00  0.00    +0.000 N 
ATOM     15  C   UNL     1       0.787   4.357  19.978  0.00  0.00    +0.000 C 
ATOM     16  C   UNL     1       0.868   2.833  19.960  0.00  0.00    +0.000 C 
ATOM     17  C   UNL     1       1.606   2.279  21.174  0.00  0.00    +0.000 C 
ATOM     18  C   UNL     1       2.977   2.914  21.305  0.00  0.00    +0.000 C 
ATOM     19  C   UNL     1       2.921   4.431  21.299  0.00  0.00    +0.000 C 
BRANCH  17  20
ATOM     20  O   UNL     1       0.852   2.459  22.371  0.00  0.00    +0.000 OA
ATOM     21  H   UNL     1       0.405   1.627  22.595  0.00  0.00    +0.000 HD
ENDBRANCH  17  20
ENDBRANCH   8  14
BRANCH  11  22
ATOM     22  C   UNL     1      -0.188   9.758  20.570  0.00  0.00    +0.000 C 
BRANCH  22  23
ATOM     23  C   UNL     1       0.227  10.560  21.831  0.00  0.00    +0.000 C 
ATOM     24  C   UNL     1      -0.612  10.243  23.061  0.00  0.00    +0.000 C 
ATOM     25  C   UNL     1      -1.629  11.360  23.147  0.00  0.00    +0.000 C 
ATOM     26  N   UNL     1      -1.017  12.529  22.526  0.00  0.00    +0.000 NA
ATOM     27  C   UNL     1       0.075  12.072  21.659  0.00  0.00    +0.000 C 
ATOM     28  H   UNL     1      -0.641  13.151  23.241  0.00  0.00    +0.000 HD
ENDBRANCH  22  23
ENDBRANCH  11  22
TORSDOF 4
ENDMDL
MODEL 4
REMARK VINA RESULT:      -6.5      0.754      1.057
REMARK  Name = 
REMARK  6 active torsions:
REMARK  status: ('A' for Active; 'I' for Inactive)
REMARK    1  A    between atoms: C_1  and  N_2
REMARK    2  A    between atoms: N_2  and  C_3
REMARK    3  A    between atoms: C_8  and  N_9
REMARK    4  A    between atoms: C_12  and  O_13
REMARK    5  A    between atoms: N_18  and  C_19
REMARK    6  A    between atoms: C_19  and  C_20
REMARK                            x       y       z     vdW  Elec       q    Type
REMARK                         _______ _______ _______ _____ _____    ______ ____
ROOT
ATOM      1  C   UNL     1       4.285   1.795  20.533  0.00  0.00    +0.000 C 
ATOM      2  N   UNL     1       3.281   2.725  21.010  0.00  0.00    +0.000 N 
ATOM      3  C   UNL     1       1.978   2.193  21.372  0.00  0.00    +0.000 C 
ATOM      4  C   UNL     1       3.210   3.941  20.324  0.00  0.00    +0.000 A 
ATOM      5  N   UNL     1       2.286   4.824  20.714  0.00  0.00    +0.000 NA
ATOM      6  C   UNL     1       2.246   6.013  20.082  0.00  0.00    +0.000 A 
ATOM      7  C   UNL     1       3.050   6.319  18.997  0.00  0.00    +0.000 A 
ATOM      8  C   UNL     1       3.983   5.353  18.627  0.00  0.00    +0.000 A 
ATOM      9  N   UNL     1       4.074   4.192  19.322  0.00  0.00    +0.000 NA
ATOM     10  C   UNL     1       2.977   7.693  18.381  0.00  0.00    +0.000 C 
ATOM     11  N   UNL     1       1.824   8.512  18.793  0.00  0.00    +0.000 NA
ATOM     12  C   UNL     1       1.689   8.458  20.250  0.00  0.00    +0.000 C 
ATOM     13  C   UNL     1       1.266   7.030  20.613  0.00  0.00    +0.000 C 
ENDROOT
BRANCH   8  14
ATOM     14  N   UNL     1       4.881   5.531  17.583  0.00  0.00    +0.000 N 
ATOM     15  C   UNL     1       6.216   6.057  17.877  0.00  0.00    +0.000 C 
ATOM     16  C   UNL     1       7.311   5.084  17.446  0.00  0.00    +0.000 C 
ATOM     17  C   UNL     1       7.124   4.602  16.011  0.00  0.00    +0.000 C 
ATOM     18  C   UNL     1       5.740   4.013  15.818  0.00  0.00    +0.000 C 
ATOM     19  C   UNL     1       4.638   4.957  16.264  0.00  0.00    +0.000 C 
BRANCH  17  20
ATOM     20  O   UNL     1       7.362   5.650  15.073  0.00  0.00    +0.000 OA
ATOM     21  H   UNL     1       8.149   6.149  15.344  0.00  0.00    +0.000 HD
ENDBRANCH  17  20
ENDBRANCH   8  14
BRANCH  11  22
ATOM     22  C   UNL     1       1.876   9.875  18.239  0.00  0.00    +0.000 C 
BRANCH  22  23
ATOM     23  C   UNL     1       0.821  10.816  18.876  0.00  0.00    +0.000 C 
ATOM     24  C   UNL     1       1.028  12.286  18.539  0.00  0.00    +0.000 C 
ATOM     25  C   UNL     1       1.730  12.874  19.742  0.00  0.00    +0.000 C 
ATOM     26  N   UNL     1       1.326  12.075  20.894  0.00  0.00    +0.000 NA
ATOM     27  C   UNL     1       0.833  10.782  20.406  0.00  0.00    +0.000 C 
ATOM     28  H   UNL     1       0.582  12.547  21.406  0.00  0.00    +0.000 HD
ENDBRANCH  22  23
ENDBRANCH  11  22
TORSDOF 4
ENDMDL
MODEL 5
REMARK VINA RESULT:      -6.5      2.733      4.952
REMARK  Name = 
REMARK  6 active torsions:
REMARK  status: ('A' for Active; 'I' for Inactive)
REMARK    1  A    between atoms: C_1  and  N_2
REMARK    2  A    between atoms: N_2  and  C_3
REMARK    3  A    between atoms: C_8  and  N_9
REMARK    4  A    between atoms: C_12  and  O_13
REMARK    5  A    between atoms: N_18  and  C_19
REMARK    6  A    between atoms: C_19  and  C_20
REMARK                            x       y       z     vdW  Elec       q    Type
REMARK                         _______ _______ _______ _____ _____    ______ ____
ROOT
ATOM      1  C   UNL     1       5.677   3.616  16.271  0.00  0.00    +0.000 C 
ATOM      2  N   UNL     1       5.361   5.007  16.011  0.00  0.00    +0.000 N 
ATOM      3  C   UNL     1       6.435   5.874  15.557  0.00  0.00    +0.000 C 
ATOM      4  C   UNL     1       4.513   5.617  16.941  0.00  0.00    +0.000 A 
ATOM      5  N   UNL     1       4.210   6.905  16.755  0.00  0.00    +0.000 NA
ATOM      6  C   UNL     1       3.359   7.482  17.626  0.00  0.00    +0.000 A 
ATOM      7  C   UNL     1       2.865   6.831  18.744  0.00  0.00    +0.000 A 
ATOM      8  C   UNL     1       3.229   5.494  18.891  0.00  0.00    +0.000 A 
ATOM      9  N   UNL     1       4.020   4.897  17.965  0.00  0.00    +0.000 NA
ATOM     10  C   UNL     1       1.877   7.534  19.639  0.00  0.00    +0.000 C 
ATOM     11  N   UNL     1       1.744   8.984  19.420  0.00  0.00    +0.000 NA
ATOM     12  C   UNL     1       1.606   9.247  17.987  0.00  0.00    +0.000 C 
ATOM     13  C   UNL     1       2.950   8.904  17.332  0.00  0.00    +0.000 C 
ENDROOT
BRANCH   8  14
ATOM     14  N   UNL     1       2.785   4.702  19.941  0.00  0.00    +0.000 N 
ATOM     15  C   UNL     1       1.355   4.678  20.257  0.00  0.00    +0.000 C 
ATOM     16  C   UNL     1       0.779   3.268  20.149  0.00  0.00    +0.000 C 
ATOM     17  C   UNL     1       1.610   2.244  20.913  0.00  0.00    +0.000 C 
ATOM     18  C   UNL     1       3.061   2.294  20.475  0.00  0.00    +0.000 C 
ATOM     19  C   UNL     1       3.645   3.693  20.551  0.00  0.00    +0.000 C 
BRANCH  17  20
ATOM     20  O   UNL     1       1.503   2.432  22.323  0.00  0.00    +0.000 OA
ATOM     21  H   UNL     1       0.571   2.565  22.558  0.00  0.00    +0.000 HD
ENDBRANCH  17  20
ENDBRANCH   8  14
BRANCH  11  22
ATOM     22  C   UNL     1       0.687   9.584  20.251  0.00  0.00    +0.000 C 
BRANCH  22  23
ATOM     23  C   UNL     1       0.429   8.782  21.553  0.00  0.00    +0.000 C 
ATOM     24  C   UNL     1      -0.970   8.971  22.122  0.00  0.00    +0.000 C 
ATOM     25  C   UNL     1      -0.816   9.992  23.227  0.00  0.00    +0.000 C 
ATOM     26  N   UNL     1       0.547   9.860  23.729  0.00  0.00    +0.000 NA
ATOM     27  C   UNL     1       1.353   9.189  22.702  0.00  0.00    +0.000 C 
ATOM     28  H   UNL     1       0.555   9.300  24.581  0.00  0.00    +0.000 HD
ENDBRANCH  22  23
ENDBRANCH  11  22
TORSDOF 4
ENDMDL
MODEL 6
REMARK VINA RESULT:      -6.5      2.629      4.821
REMARK  Name = 
REMARK  6 active torsions:
REMARK  status: ('A' for Active; 'I' for Inactive)
REMARK    1  A    between atoms: C_1  and  N_2
REMARK    2  A    between atoms: N_2  and  C_3
REMARK    3  A    between atoms: C_8  and  N_9
REMARK    4  A    between atoms: C_12  and  O_13
REMARK    5  A    between atoms: N_18  and  C_19
REMARK    6  A    between atoms: C_19  and  C_20
REMARK                            x       y       z     vdW  Elec       q    Type
REMARK                         _______ _______ _______ _____ _____    ______ ____
ROOT
ATOM      1  C   UNL     1       6.079   3.640  15.602  0.00  0.00    +0.000 C 
ATOM      2  N   UNL     1       5.732   5.048  15.609  0.00  0.00    +0.000 N 
ATOM      3  C   UNL     1       6.796   6.012  15.383  0.00  0.00    +0.000 C 
ATOM      4  C   UNL     1       4.831   5.442  16.602  0.00  0.00    +0.000 A 
ATOM      5  N   UNL     1       4.495   6.734  16.661  0.00  0.00    +0.000 NA
ATOM      6  C   UNL     1       3.594   7.107  17.591  0.00  0.00    +0.000 A 
ATOM      7  C   UNL     1       3.077   6.236  18.535  0.00  0.00    +0.000 A 
ATOM      8  C   UNL     1       3.475   4.905  18.430  0.00  0.00    +0.000 A 
ATOM      9  N   UNL     1       4.319   4.521  17.441  0.00  0.00    +0.000 NA
ATOM     10  C   UNL     1       2.033   6.725  19.506  0.00  0.00    +0.000 C 
ATOM     11  N   UNL     1       1.865   8.186  19.573  0.00  0.00    +0.000 NA
ATOM     12  C   UNL     1       1.776   8.726  18.216  0.00  0.00    +0.000 C 
ATOM     13  C   UNL     1       3.154   8.550  17.566  0.00  0.00    +0.000 C 
ENDROOT
BRANCH   8  14
ATOM     14  N   UNL     1       3.014   3.909  19.282  0.00  0.00    +0.000 N 
ATOM     15  C   UNL     1       3.563   3.823  20.636  0.00  0.00    +0.000 C 
ATOM     16  C   UNL     1       2.473   3.968  21.695  0.00  0.00    +0.000 C 
ATOM     17  C   UNL     1       1.288   3.045  21.435  0.00  0.00    +0.000 C 
ATOM     18  C   UNL     1       0.743   3.250  20.035  0.00  0.00    +0.000 C 
ATOM     19  C   UNL     1       1.817   3.135  18.969  0.00  0.00    +0.000 C 
BRANCH  17  20
ATOM     20  O   UNL     1       1.636   1.677  21.645  0.00  0.00    +0.000 OA
ATOM     21  H   UNL     1       0.840   1.179  21.890  0.00  0.00    +0.000 HD
ENDBRANCH  17  20
ENDBRANCH   8  14
BRANCH  11  22
ATOM     22  C   UNL     1       0.758   8.585  20.458  0.00  0.00    +0.000 C 
BRANCH  22  23
ATOM     23  C   UNL     1       1.205   9.591  21.551  0.00  0.00    +0.000 C 
ATOM     24  C   UNL     1       0.531   9.371  22.898  0.00  0.00    +0.000 C 
ATOM     25  C   UNL     1      -0.589  10.386  22.952  0.00  0.00    +0.000 C 
ATOM     26  N   UNL     1      -0.174  11.511  22.121  0.00  0.00    +0.000 NA
ATOM     27  C   UNL     1       0.871  11.043  21.203  0.00  0.00    +0.000 C 
ATOM     28  H   UNL     1       0.200  12.259  22.703  0.00  0.00    +0.000 HD
ENDBRANCH  22  23
ENDBRANCH  11  22
TORSDOF 4
ENDMDL
MODEL 7
REMARK VINA RESULT:      -6.2      1.350      1.501
REMARK  Name = 
REMARK  6 active torsions:
REMARK  status: ('A' for Active; 'I' for Inactive)
REMARK    1  A    between atoms: C_1  and  N_2
REMARK    2  A    between atoms: N_2  and  C_3
REMARK    3  A    between atoms: C_8  and  N_9
REMARK    4  A    between atoms: C_12  and  O_13
REMARK    5  A    between atoms: N_18  and  C_19
REMARK    6  A    between atoms: C_19  and  C_20
REMARK                            x       y       z     vdW  Elec       q    Type
REMARK                         _______ _______ _______ _____ _____    ______ ____
ROOT
ATOM      1  C   UNL     1       3.709   1.233  18.711  0.00  0.00    +0.000 C 
ATOM      2  N   UNL     1       2.790   2.177  19.319  0.00  0.00    +0.000 N 
ATOM      3  C   UNL     1       1.402   1.774  19.469  0.00  0.00    +0.000 C 
ATOM      4  C   UNL     1       2.939   3.508  18.917  0.00  0.00    +0.000 A 
ATOM      5  N   UNL     1       2.103   4.412  19.434  0.00  0.00    +0.000 NA
ATOM      6  C   UNL     1       2.273   5.701  19.081  0.00  0.00    +0.000 A 
ATOM      7  C   UNL     1       3.207   6.110  18.144  0.00  0.00    +0.000 A 
ATOM      8  C   UNL     1       4.041   5.120  17.629  0.00  0.00    +0.000 A 
ATOM      9  N   UNL     1       3.917   3.837  18.052  0.00  0.00    +0.000 NA
ATOM     10  C   UNL     1       3.367   7.579  17.845  0.00  0.00    +0.000 C 
ATOM     11  N   UNL     1       2.294   8.450  18.355  0.00  0.00    +0.000 NA
ATOM     12  C   UNL     1       2.017   8.110  19.752  0.00  0.00    +0.000 C 
ATOM     13  C   UNL     1       1.385   6.713  19.761  0.00  0.00    +0.000 C 
ENDROOT
BRANCH   8  14
ATOM     14  N   UNL     1       5.048   5.383  16.710  0.00  0.00    +0.000 N 
ATOM     15  C   UNL     1       6.393   5.689  17.199  0.00  0.00    +0.000 C 
ATOM     16  C   UNL     1       7.424   4.694  16.672  0.00  0.00    +0.000 C 
ATOM     17  C   UNL     1       7.329   4.508  15.162  0.00  0.00    +0.000 C 
ATOM     18  C   UNL     1       5.919   4.128  14.754  0.00  0.00    +0.000 C 
ATOM     19  C   UNL     1       4.876   5.092  15.290  0.00  0.00    +0.000 C 
BRANCH  17  20
ATOM     20  O   UNL     1       7.756   5.677  14.464  0.00  0.00    +0.000 OA
ATOM     21  H   UNL     1       8.687   5.574  14.208  0.00  0.00    +0.000 HD
ENDBRANCH  17  20
ENDBRANCH   8  14
BRANCH  11  22
ATOM     22  C   UNL     1       2.570   9.877  18.122  0.00  0.00    +0.000 C 
BRANCH  22  23
ATOM     23  C   UNL     1       1.274  10.714  17.960  0.00  0.00    +0.000 C 
ATOM     24  C   UNL     1       1.257  11.985  18.796  0.00  0.00    +0.000 C 
ATOM     25  C   UNL     1       0.437  11.645  20.020  0.00  0.00    +0.000 C 
ATOM     26  N   UNL     1      -0.501  10.603  19.617  0.00  0.00    +0.000 NA
ATOM     27  C   UNL     1       0.016   9.964  18.401  0.00  0.00    +0.000 C 
ATOM     28  H   UNL     1      -1.415  11.008  19.421  0.00  0.00    +0.000 HD
ENDBRANCH  22  23
ENDBRANCH  11  22
TORSDOF 4
ENDMDL
MODEL 8
REMARK VINA RESULT:      -6.2      2.500      4.635
REMARK  Name = 
REMARK  6 active torsions:
REMARK  status: ('A' for Active; 'I' for Inactive)
REMARK    1  A    between atoms: C_1  and  N_2
REMARK    2  A    between atoms: N_2  and  C_3
REMARK    3  A    between atoms: C_8  and  N_9
REMARK    4  A    between atoms: C_12  and  O_13
REMARK    5  A    between atoms: N_18  and  C_19
REMARK    6  A    between atoms: C_19  and  C_20
REMARK                            x       y       z     vdW  Elec       q    Type
REMARK                         _______ _______ _______ _____ _____    ______ ____
ROOT
ATOM      1  C   UNL     1       5.386   4.389  16.587  0.00  0.00    +0.000 C 
ATOM      2  N   UNL     1       4.981   5.769  16.407  0.00  0.00    +0.000 N 
ATOM      3  C   UNL     1       6.002   6.736  16.042  0.00  0.00    +0.000 C 
ATOM      4  C   UNL     1       4.068   6.257  17.347  0.00  0.00    +0.000 A 
ATOM      5  N   UNL     1       3.679   7.531  17.235  0.00  0.00    +0.000 NA
ATOM      6  C   UNL     1       2.768   7.989  18.114  0.00  0.00    +0.000 A 
ATOM      7  C   UNL     1       2.292   7.234  19.173  0.00  0.00    +0.000 A 
ATOM      8  C   UNL     1       2.745   5.918  19.246  0.00  0.00    +0.000 A 
ATOM      9  N   UNL     1       3.599   5.439  18.308  0.00  0.00    +0.000 NA
ATOM     10  C   UNL     1       1.233   7.807  20.080  0.00  0.00    +0.000 C 
ATOM     11  N   UNL     1       1.004   9.256  19.950  0.00  0.00    +0.000 NA
ATOM     12  C   UNL     1       0.886   9.603  18.533  0.00  0.00    +0.000 C 
ATOM     13  C   UNL     1       2.267   9.396  17.899  0.00  0.00    +0.000 C 
ENDROOT
BRANCH   8  14
ATOM     14  N   UNL     1       2.330   5.030  20.229  0.00  0.00    +0.000 N 
ATOM     15  C   UNL     1       0.918   4.646  20.288  0.00  0.00    +0.000 C 
ATOM     16  C   UNL     1       0.738   3.138  20.131  0.00  0.00    +0.000 C 
ATOM     17  C   UNL     1       1.646   2.347  21.066  0.00  0.00    +0.000 C 
ATOM     18  C   UNL     1       3.094   2.763  20.888  0.00  0.00    +0.000 C 
ATOM     19  C   UNL     1       3.290   4.263  21.015  0.00  0.00    +0.000 C 
BRANCH  17  20
ATOM     20  O   UNL     1       1.246   2.489  22.428  0.00  0.00    +0.000 OA
ATOM     21  H   UNL     1       0.303   2.718  22.461  0.00  0.00    +0.000 HD
ENDBRANCH  17  20
ENDBRANCH   8  14
BRANCH  11  22
ATOM     22  C   UNL     1      -0.114   9.726  20.785  0.00  0.00    +0.000 C 
BRANCH  22  23
ATOM     23  C   UNL     1       0.121  11.153  21.345  0.00  0.00    +0.000 C 
ATOM     24  C   UNL     1      -1.045  12.102  21.110  0.00  0.00    +0.000 C 
ATOM     25  C   UNL     1      -0.654  12.920  19.899  0.00  0.00    +0.000 C 
ATOM     26  N   UNL     1       0.804  12.972  19.884  0.00  0.00    +0.000 NA
ATOM     27  C   UNL     1       1.313  11.862  20.699  0.00  0.00    +0.000 C 
ATOM     28  H   UNL     1       1.129  13.854  20.277  0.00  0.00    +0.000 HD
ENDBRANCH  22  23
ENDBRANCH  11  22
TORSDOF 4
ENDMDL
MODEL 9
REMARK VINA RESULT:      -6.1      0.770      1.310
REMARK  Name = 
REMARK  6 active torsions:
REMARK  status: ('A' for Active; 'I' for Inactive)
REMARK    1  A    between atoms: C_1  and  N_2
REMARK    2  A    between atoms: N_2  and  C_3
REMARK    3  A    between atoms: C_8  and  N_9
REMARK    4  A    between atoms: C_12  and  O_13
REMARK    5  A    between atoms: N_18  and  C_19
REMARK    6  A    between atoms: C_19  and  C_20
REMARK                            x       y       z     vdW  Elec       q    Type
REMARK                         _______ _______ _______ _____ _____    ______ ____
ROOT
ATOM      1  C   UNL     1       3.854   1.777  21.192  0.00  0.00    +0.000 C 
ATOM      2  N   UNL     1       2.839   2.771  21.486  0.00  0.00    +0.000 N 
ATOM      3  C   UNL     1       1.485   2.307  21.734  0.00  0.00    +0.000 C 
ATOM      4  C   UNL     1       2.892   3.934  20.711  0.00  0.00    +0.000 A 
ATOM      5  N   UNL     1       1.966   4.871  20.931  0.00  0.00    +0.000 NA
ATOM      6  C   UNL     1       2.042   6.010  20.215  0.00  0.00    +0.000 A 
ATOM      7  C   UNL     1       2.973   6.209  19.209  0.00  0.00    +0.000 A 
ATOM      8  C   UNL     1       3.903   5.190  19.017  0.00  0.00    +0.000 A 
ATOM      9  N   UNL     1       3.871   4.082  19.798  0.00  0.00    +0.000 NA
ATOM     10  C   UNL     1       3.021   7.534  18.492  0.00  0.00    +0.000 C 
ATOM     11  N   UNL     1       1.863   8.417  18.712  0.00  0.00    +0.000 NA
ATOM     12  C   UNL     1       1.565   8.477  20.144  0.00  0.00    +0.000 C 
ATOM     13  C   UNL     1       1.049   7.093  20.558  0.00  0.00    +0.000 C 
ENDROOT
BRANCH   8  14
ATOM     14  N   UNL     1       4.917   5.261  18.071  0.00  0.00    +0.000 N 
ATOM     15  C   UNL     1       4.579   5.106  16.655  0.00  0.00    +0.000 C 
ATOM     16  C   UNL     1       4.978   6.335  15.843  0.00  0.00    +0.000 C 
ATOM     17  C   UNL     1       6.420   6.758  16.105  0.00  0.00    +0.000 C 
ATOM     18  C   UNL     1       6.660   6.960  17.589  0.00  0.00    +0.000 C 
ATOM     19  C   UNL     1       6.246   5.757  18.416  0.00  0.00    +0.000 C 
BRANCH  17  20
ATOM     20  O   UNL     1       7.346   5.814  15.569  0.00  0.00    +0.000 OA
ATOM     21  H   UNL     1       7.048   4.916  15.785  0.00  0.00    +0.000 HD
ENDBRANCH  17  20
ENDBRANCH   8  14
BRANCH  11  22
ATOM     22  C   UNL     1       2.028   9.732  18.072  0.00  0.00    +0.000 C 
BRANCH  22  23
ATOM     23  C   UNL     1       1.600  10.901  18.996  0.00  0.00    +0.000 C 
ATOM     24  C   UNL     1       0.092  11.052  19.134  0.00  0.00    +0.000 C 
ATOM     25  C   UNL     1      -0.285  12.164  18.181  0.00  0.00    +0.000 C 
ATOM     26  N   UNL     1       0.882  13.031  18.069  0.00  0.00    +0.000 NA
ATOM     27  C   UNL     1       2.064  12.268  18.490  0.00  0.00    +0.000 C 
ATOM     28  H   UNL     1       0.775  13.845  18.671  0.00  0.00    +0.000 HD
ENDBRANCH  22  23
ENDBRANCH  11  22
TORSDOF 4
ENDMDL
