MODEL 1
REMARK VINA RESULT:      -6.3      0.000      0.000
REMARK  Name = 
REMARK  2 active torsions:
REMARK  status: ('A' for Active; 'I' for Inactive)
REMARK    1  A    between atoms: N_1  and  N_2
REMARK    2  A    between atoms: C_3  and  C_5
REMARK                            x       y       z     vdW  Elec       q    Type
REMARK                         _______ _______ _______ _____ _____    ______ ____
ROOT
ATOM      1  C   UNL     1       4.562   3.816  18.178  0.00  0.00    +0.000 A 
ATOM      2  C   UNL     1       3.239   4.148  17.966  0.00  0.00    +0.000 A 
ATOM      3  N   UNL     1       2.562   3.726  19.080  0.00  0.00    +0.000 N 
ATOM      4  C   UNL     1       1.203   3.816  19.377  0.00  0.00    +0.000 A 
ATOM      5  C   UNL     1       0.759   3.343  20.554  0.00  0.00    +0.000 A 
ATOM      6  C   UNL     1       1.717   2.762  21.485  0.00  0.00    +0.000 A 
ATOM      7  C   UNL     1       3.029   2.677  21.188  0.00  0.00    +0.000 A 
ATOM      8  C   UNL     1       3.503   3.164  19.936  0.00  0.00    +0.000 A 
ATOM      9  N   UNL     1       4.711   3.191  19.410  0.00  0.00    +0.000 NA
ENDROOT
BRANCH   1  11
ATOM     10  N   UNL     1       6.901   4.120  17.948  0.00  0.00    +0.000 N 
ATOM     11  C   UNL     1       5.686   4.078  17.275  0.00  0.00    +0.000 C 
ATOM     12  O   UNL     1       5.552   4.258  16.066  0.00  0.00    +0.000 OA
ATOM     13  H   UNL     1       6.884   3.866  18.938  0.00  0.00    +0.000 HD
BRANCH  10  14
ATOM     14  N   UNL     1       8.118   4.269  17.250  0.00  0.00    +0.000 NA
ATOM     15  H   UNL     1       8.321   3.402  16.750  0.00  0.00    +0.000 HD
ATOM     16  H   UNL     1       8.861   4.366  17.953  0.00  0.00    +0.000 HD
ENDBRANCH  10  14
ENDBRANCH   1  11
TORSDOF 2
ENDMDL
MODEL 2
REMARK VINA RESULT:      -6.3      1.796      2.602
REMARK  Name = 
REMARK  2 active torsions:
REMARK  status: ('A' for Active; 'I' for Inactive)
REMARK    1  A    between atoms: N_1  and  N_2
REMARK    2  A    between atoms: C_3  and  C_5
REMARK                            x       y       z     vdW  Elec       q    Type
REMARK                         _______ _______ _______ _____ _____    ______ ____
ROOT
ATOM      1  C   UNL     1       5.630   4.513  17.223  0.00  0.00    +0.000 A 
ATOM      2  C   UNL     1       5.438   4.491  18.590  0.00  0.00    +0.000 A 
ATOM      3  N   UNL     1       4.096   4.294  18.779  0.00  0.00    +0.000 N 
ATOM      4  C   UNL     1       3.374   4.196  19.967  0.00  0.00    +0.000 A 
ATOM      5  C   UNL     1       2.048   3.983  19.910  0.00  0.00    +0.000 A 
ATOM      6  C   UNL     1       1.412   3.851  18.606  0.00  0.00    +0.000 A 
ATOM      7  C   UNL     1       2.117   3.951  17.462  0.00  0.00    +0.000 A 
ATOM      8  C   UNL     1       3.521   4.191  17.516  0.00  0.00    +0.000 A 
ATOM      9  N   UNL     1       4.419   4.335  16.563  0.00  0.00    +0.000 NA
ENDROOT
BRANCH   1  11
ATOM     10  N   UNL     1       6.735   5.197  15.242  0.00  0.00    +0.000 N 
ATOM     11  C   UNL     1       6.904   4.679  16.520  0.00  0.00    +0.000 C 
ATOM     12  O   UNL     1       7.990   4.373  17.010  0.00  0.00    +0.000 OA
ATOM     13  H   UNL     1       5.789   5.492  14.990  0.00  0.00    +0.000 HD
BRANCH  10  14
ATOM     14  N   UNL     1       7.844   5.520  14.431  0.00  0.00    +0.000 NA
ATOM     15  H   UNL     1       7.544   5.546  13.456  0.00  0.00    +0.000 HD
ATOM     16  H   UNL     1       8.507   4.739  14.498  0.00  0.00    +0.000 HD
ENDBRANCH  10  14
ENDBRANCH   1  11
TORSDOF 2
ENDMDL
MODEL 3
REMARK VINA RESULT:      -6.2      1.324      1.343
REMARK  Name = 
REMARK  2 active torsions:
REMARK  status: ('A' for Active; 'I' for Inactive)
REMARK    1  A    between atoms: N_1  and  N_2
REMARK    2  A    between atoms: C_3  and  C_5
REMARK                            x       y       z     vdW  Elec       q    Type
REMARK                         _______ _______ _______ _____ _____    ______ ____
ROOT
ATOM      1  C   UNL     1       5.151   4.158  18.205  0.00  0.00    +0.000 A 
ATOM      2  C   UNL     1       3.904   4.337  17.639  0.00  0.00    +0.000 A 
ATOM      3  N   UNL     1       3.007   3.811  18.531  0.00  0.00    +0.000 N 
ATOM      4  C   UNL     1       1.619   3.732  18.447  0.00  0.00    +0.000 A 
ATOM      5  C   UNL     1       0.933   3.180  19.464  0.00  0.00    +0.000 A 
ATOM      6  C   UNL     1       1.666   2.693  20.624  0.00  0.00    +0.000 A 
ATOM      7  C   UNL     1       3.010   2.770  20.695  0.00  0.00    +0.000 A 
ATOM      8  C   UNL     1       3.743   3.342  19.615  0.00  0.00    +0.000 A 
ATOM      9  N   UNL     1       5.035   3.524  19.436  0.00  0.00    +0.000 NA
ENDROOT
BRANCH   1  11
ATOM     10  N   UNL     1       6.302   5.099  16.360  0.00  0.00    +0.000 N 
ATOM     11  C   UNL     1       6.437   4.573  17.639  0.00  0.00    +0.000 C 
ATOM     12  O   UNL     1       7.507   4.447  18.231  0.00  0.00    +0.000 OA
ATOM     13  H   UNL     1       5.347   5.230  16.018  0.00  0.00    +0.000 HD
BRANCH  10  14
ATOM     14  N   UNL     1       7.407   5.643  15.672  0.00  0.00    +0.000 NA
ATOM     15  H   UNL     1       7.299   5.459  14.674  0.00  0.00    +0.000 HD
ATOM     16  H   UNL     1       8.237   5.113  15.965  0.00  0.00    +0.000 HD
ENDBRANCH  10  14
ENDBRANCH   1  11
TORSDOF 2
ENDMDL
MODEL 4
REMARK VINA RESULT:      -6.2      1.093      1.534
REMARK  Name = 
REMARK  2 active torsions:
REMARK  status: ('A' for Active; 'I' for Inactive)
REMARK    1  A    between atoms: N_1  and  N_2
REMARK    2  A    between atoms: C_3  and  C_5
REMARK                            x       y       z     vdW  Elec       q    Type
REMARK                         _______ _______ _______ _____ _____    ______ ____
ROOT
ATOM      1  C   UNL     1       4.552   4.156  17.953  0.00  0.00    +0.000 A 
ATOM      2  C   UNL     1       4.296   4.577  19.243  0.00  0.00    +0.000 A 
ATOM      3  N   UNL     1       3.051   4.099  19.555  0.00  0.00    +0.000 N 
ATOM      4  C   UNL     1       2.318   4.242  20.731  0.00  0.00    +0.000 A 
ATOM      5  C   UNL     1       1.106   3.666  20.820  0.00  0.00    +0.000 A 
ATOM      6  C   UNL     1       0.606   2.903  19.684  0.00  0.00    +0.000 A 
ATOM      7  C   UNL     1       1.320   2.773  18.549  0.00  0.00    +0.000 A 
ATOM      8  C   UNL     1       2.599   3.393  18.445  0.00  0.00    +0.000 A 
ATOM      9  N   UNL     1       3.476   3.425  17.462  0.00  0.00    +0.000 NA
ENDROOT
BRANCH   1  11
ATOM     10  N   UNL     1       6.921   4.146  17.911  0.00  0.00    +0.000 N 
ATOM     11  C   UNL     1       5.770   4.402  17.177  0.00  0.00    +0.000 C 
ATOM     12  O   UNL     1       5.760   4.807  16.015  0.00  0.00    +0.000 OA
ATOM     13  H   UNL     1       6.790   3.729  18.835  0.00  0.00    +0.000 HD
BRANCH  10  14
ATOM     14  N   UNL     1       8.199   4.232  17.321  0.00  0.00    +0.000 NA
ATOM     15  H   UNL     1       8.655   5.088  17.641  0.00  0.00    +0.000 HD
ATOM     16  H   UNL     1       8.060   4.351  16.310  0.00  0.00    +0.000 HD
ENDBRANCH  10  14
ENDBRANCH   1  11
TORSDOF 2
ENDMDL
MODEL 5
REMARK VINA RESULT:      -6.2      1.670      1.724
REMARK  Name = 
REMARK  2 active torsions:
REMARK  status: ('A' for Active; 'I' for Inactive)
REMARK    1  A    between atoms: N_1  and  N_2
REMARK    2  A    between atoms: C_3  and  C_5
REMARK                            x       y       z     vdW  Elec       q    Type
REMARK                         _______ _______ _______ _____ _____    ______ ____
ROOT
ATOM      1  C   UNL     1       5.016   4.400  18.385  0.00  0.00    +0.000 A 
ATOM      2  C   UNL     1       4.167   3.403  17.947  0.00  0.00    +0.000 A 
ATOM      3  N   UNL     1       3.055   3.478  18.744  0.00  0.00    +0.000 N 
ATOM      4  C   UNL     1       1.900   2.700  18.726  0.00  0.00    +0.000 A 
ATOM      5  C   UNL     1       0.917   2.968  19.603  0.00  0.00    +0.000 A 
ATOM      6  C   UNL     1       1.091   4.072  20.537  0.00  0.00    +0.000 A 
ATOM      7  C   UNL     1       2.214   4.818  20.550  0.00  0.00    +0.000 A 
ATOM      8  C   UNL     1       3.264   4.529  19.631  0.00  0.00    +0.000 A 
ATOM      9  N   UNL     1       4.442   5.089  19.447  0.00  0.00    +0.000 NA
ENDROOT
BRANCH   1  11
ATOM     10  N   UNL     1       6.238   5.393  16.616  0.00  0.00    +0.000 N 
ATOM     11  C   UNL     1       6.332   4.734  17.835  0.00  0.00    +0.000 C 
ATOM     12  O   UNL     1       7.390   4.441  18.390  0.00  0.00    +0.000 OA
ATOM     13  H   UNL     1       5.299   5.655  16.308  0.00  0.00    +0.000 HD
BRANCH  10  14
ATOM     14  N   UNL     1       7.387   5.885  15.960  0.00  0.00    +0.000 NA
ATOM     15  H   UNL     1       7.140   6.736  15.453  0.00  0.00    +0.000 HD
ATOM     16  H   UNL     1       7.645   5.197  15.243  0.00  0.00    +0.000 HD
ENDBRANCH  10  14
ENDBRANCH   1  11
TORSDOF 2
ENDMDL
MODEL 6
REMARK VINA RESULT:      -6.2      1.548      1.577
REMARK  Name = 
REMARK  2 active torsions:
REMARK  status: ('A' for Active; 'I' for Inactive)
REMARK    1  A    between atoms: N_1  and  N_2
REMARK    2  A    between atoms: C_3  and  C_5
REMARK                            x       y       z     vdW  Elec       q    Type
REMARK                         _______ _______ _______ _____ _____    ______ ____
ROOT
ATOM      1  C   UNL     1       5.163   4.438  18.956  0.00  0.00    +0.000 A 
ATOM      2  C   UNL     1       4.241   5.407  19.299  0.00  0.00    +0.000 A 
ATOM      3  N   UNL     1       3.135   4.733  19.745  0.00  0.00    +0.000 N 
ATOM      4  C   UNL     1       1.920   5.234  20.209  0.00  0.00    +0.000 A 
ATOM      5  C   UNL     1       0.971   4.374  20.617  0.00  0.00    +0.000 A 
ATOM      6  C   UNL     1       1.250   2.945  20.568  0.00  0.00    +0.000 A 
ATOM      7  C   UNL     1       2.427   2.469  20.114  0.00  0.00    +0.000 A 
ATOM      8  C   UNL     1       3.431   3.376  19.669  0.00  0.00    +0.000 A 
ATOM      9  N   UNL     1       4.638   3.171  19.182  0.00  0.00    +0.000 NA
ENDROOT
BRANCH   1  11
ATOM     10  N   UNL     1       6.641   4.275  17.111  0.00  0.00    +0.000 N 
ATOM     11  C   UNL     1       6.516   4.661  18.440  0.00  0.00    +0.000 C 
ATOM     12  O   UNL     1       7.431   5.120  19.122  0.00  0.00    +0.000 OA
ATOM     13  H   UNL     1       5.782   3.992  16.635  0.00  0.00    +0.000 HD
BRANCH  10  14
ATOM     14  N   UNL     1       7.839   4.491  16.397  0.00  0.00    +0.000 NA
ATOM     15  H   UNL     1       8.040   5.491  16.383  0.00  0.00    +0.000 HD
ATOM     16  H   UNL     1       7.661   4.228  15.420  0.00  0.00    +0.000 HD
ENDBRANCH  10  14
ENDBRANCH   1  11
TORSDOF 2
ENDMDL
MODEL 7
REMARK VINA RESULT:      -6.2      1.626      1.778
REMARK  Name = 
REMARK  2 active torsions:
REMARK  status: ('A' for Active; 'I' for Inactive)
REMARK    1  A    between atoms: N_1  and  N_2
REMARK    2  A    between atoms: C_3  and  C_5
REMARK                            x       y       z     vdW  Elec       q    Type
REMARK                         _______ _______ _______ _____ _____    ______ ____
ROOT
ATOM      1  C   UNL     1       4.947   4.296  18.687  0.00  0.00    +0.000 A 
ATOM      2  C   UNL     1       4.272   3.323  17.977  0.00  0.00    +0.000 A 
ATOM      3  N   UNL     1       3.027   3.240  18.542  0.00  0.00    +0.000 N 
ATOM      4  C   UNL     1       1.956   2.415  18.206  0.00  0.00    +0.000 A 
ATOM      5  C   UNL     1       0.808   2.520  18.897  0.00  0.00    +0.000 A 
ATOM      6  C   UNL     1       0.720   3.502  19.969  0.00  0.00    +0.000 A 
ATOM      7  C   UNL     1       1.762   4.295  20.290  0.00  0.00    +0.000 A 
ATOM      8  C   UNL     1       2.986   4.178  19.569  0.00  0.00    +0.000 A 
ATOM      9  N   UNL     1       4.133   4.815  19.688  0.00  0.00    +0.000 NA
ENDROOT
BRANCH   1  11
ATOM     10  N   UNL     1       6.919   5.230  19.611  0.00  0.00    +0.000 N 
ATOM     11  C   UNL     1       6.315   4.763  18.450  0.00  0.00    +0.000 C 
ATOM     12  O   UNL     1       6.849   4.755  17.342  0.00  0.00    +0.000 OA
ATOM     13  H   UNL     1       6.399   5.099  20.481  0.00  0.00    +0.000 HD
BRANCH  10  14
ATOM     14  N   UNL     1       8.269   5.639  19.619  0.00  0.00    +0.000 NA
ATOM     15  H   UNL     1       8.536   5.882  20.574  0.00  0.00    +0.000 HD
ATOM     16  H   UNL     1       8.325   6.514  19.083  0.00  0.00    +0.000 HD
ENDBRANCH  10  14
ENDBRANCH   1  11
TORSDOF 2
ENDMDL
MODEL 8
REMARK VINA RESULT:      -6.2      1.647      1.888
REMARK  Name = 
REMARK  2 active torsions:
REMARK  status: ('A' for Active; 'I' for Inactive)
REMARK    1  A    between atoms: N_1  and  N_2
REMARK    2  A    between atoms: C_3  and  C_5
REMARK                            x       y       z     vdW  Elec       q    Type
REMARK                         _______ _______ _______ _____ _____    ______ ____
ROOT
ATOM      1  C   UNL     1       5.050   4.381  18.202  0.00  0.00    +0.000 A 
ATOM      2  C   UNL     1       4.499   4.998  19.308  0.00  0.00    +0.000 A 
ATOM      3  N   UNL     1       3.269   4.422  19.485  0.00  0.00    +0.000 N 
ATOM      4  C   UNL     1       2.302   4.681  20.455  0.00  0.00    +0.000 A 
ATOM      5  C   UNL     1       1.160   3.972  20.445  0.00  0.00    +0.000 A 
ATOM      6  C   UNL     1       0.977   2.949  19.425  0.00  0.00    +0.000 A 
ATOM      7  C   UNL     1       1.916   2.707  18.488  0.00  0.00    +0.000 A 
ATOM      8  C   UNL     1       3.123   3.465  18.486  0.00  0.00    +0.000 A 
ATOM      9  N   UNL     1       4.173   3.432  17.691  0.00  0.00    +0.000 NA
ENDROOT
BRANCH   1  11
ATOM     10  N   UNL     1       6.286   5.133  16.325  0.00  0.00    +0.000 N 
ATOM     11  C   UNL     1       6.370   4.641  17.622  0.00  0.00    +0.000 C 
ATOM     12  O   UNL     1       7.424   4.426  18.218  0.00  0.00    +0.000 OA
ATOM     13  H   UNL     1       5.348   5.350  15.979  0.00  0.00    +0.000 HD
BRANCH  10  14
ATOM     14  N   UNL     1       7.439   5.535  15.619  0.00  0.00    +0.000 NA
ATOM     15  H   UNL     1       7.934   6.239  16.167  0.00  0.00    +0.000 HD
ATOM     16  H   UNL     1       7.122   6.016  14.768  0.00  0.00    +0.000 HD
ENDBRANCH  10  14
ENDBRANCH   1  11
TORSDOF 2
ENDMDL
MODEL 9
REMARK VINA RESULT:      -6.1      1.685      1.690
REMARK  Name = 
REMARK  2 active torsions:
REMARK  status: ('A' for Active; 'I' for Inactive)
REMARK    1  A    between atoms: N_1  and  N_2
REMARK    2  A    between atoms: C_3  and  C_5
REMARK                            x       y       z     vdW  Elec       q    Type
REMARK                         _______ _______ _______ _____ _____    ______ ____
ROOT
ATOM      1  C   UNL     1       5.331   4.753  18.791  0.00  0.00    +0.000 A 
ATOM      2  C   UNL     1       4.228   5.570  18.946  0.00  0.00    +0.000 A 
ATOM      3  N   UNL     1       3.295   4.819  19.610  0.00  0.00    +0.000 N 
ATOM      4  C   UNL     1       2.007   5.164  20.014  0.00  0.00    +0.000 A 
ATOM      5  C   UNL     1       1.266   4.259  20.677  0.00  0.00    +0.000 A 
ATOM      6  C   UNL     1       1.840   2.951  20.959  0.00  0.00    +0.000 A 
ATOM      7  C   UNL     1       3.086   2.624  20.561  0.00  0.00    +0.000 A 
ATOM      8  C   UNL     1       3.871   3.575  19.847  0.00  0.00    +0.000 A 
ATOM      9  N   UNL     1       5.089   3.504  19.350  0.00  0.00    +0.000 NA
ENDROOT
BRANCH   1  11
ATOM     10  N   UNL     1       6.492   6.250  17.367  0.00  0.00    +0.000 N 
ATOM     11  C   UNL     1       6.601   5.109  18.153  0.00  0.00    +0.000 C 
ATOM     12  O   UNL     1       7.633   4.454  18.290  0.00  0.00    +0.000 OA
ATOM     13  H   UNL     1       5.602   6.750  17.409  0.00  0.00    +0.000 HD
BRANCH  10  14
ATOM     14  N   UNL     1       7.622   6.815  16.738  0.00  0.00    +0.000 NA
ATOM     15  H   UNL     1       7.604   6.574  15.746  0.00  0.00    +0.000 HD
ATOM     16  H   UNL     1       8.450   6.347  17.124  0.00  0.00    +0.000 HD
ENDBRANCH  10  14
ENDBRANCH   1  11
TORSDOF 2
ENDMDL
