MODEL 1
REMARK VINA RESULT:      -7.4      0.000      0.000
REMARK  Name = 
REMARK  9 active torsions:
REMARK  status: ('A' for Active; 'I' for Inactive)
REMARK    1  A    between atoms: C_1  and  O_2
REMARK    2  A    between atoms: O_2  and  C_3
REMARK    3  A    between atoms: C_3  and  C_5
REMARK    4  A    between atoms: C_7  and  N_8
REMARK    5  A    between atoms: N_8  and  C_9
REMARK    6  A    between atoms: C_9  and  C_10
REMARK    7  A    between atoms: C_15  and  O_16
REMARK    8  A    between atoms: O_16  and  C_17
REMARK    9  A    between atoms: C_20  and  N_21
REMARK                            x       y       z     vdW  Elec       q    Type
REMARK                         _______ _______ _______ _____ _____    ______ ____
ROOT
ATOM      1  C   UNL     1       1.189   8.409  20.194  0.00  0.00    +0.000 A 
ATOM      2  C   UNL     1       2.007   7.271  20.377  0.00  0.00    +0.000 A 
ATOM      3  C   UNL     1       2.903   6.831  19.404  0.00  0.00    +0.000 A 
ATOM      4  C   UNL     1       2.884   7.500  18.186  0.00  0.00    +0.000 A 
ATOM      5  C   UNL     1       2.067   8.623  17.988  0.00  0.00    +0.000 A 
ATOM      6  C   UNL     1       1.210   9.136  18.982  0.00  0.00    +0.000 A 
ENDROOT
BRANCH   6   7
ATOM      7  N   UNL     1       0.531  10.312  18.725  0.00  0.00    +0.000 N 
ATOM      8  C   UNL     1       1.164  11.643  18.791  0.00  0.00    +0.000 C 
ATOM      9  C   UNL     1       0.279  12.601  19.610  0.00  0.00    +0.000 C 
ATOM     10  O   UNL     1      -1.070  12.650  19.113  0.00  0.00    +0.000 OA
ATOM     11  C   UNL     1      -1.653  11.336  19.127  0.00  0.00    +0.000 C 
ATOM     12  C   UNL     1      -0.858  10.359  18.248  0.00  0.00    +0.000 C 
ENDBRANCH   6   7
BRANCH   1  13
ATOM     13  C   UNL     1       0.275   8.721  21.327  0.00  0.00    +0.000 C 
ATOM     14  O   UNL     1      -0.698   8.068  21.660  0.00  0.00    +0.000 OA
BRANCH  13  16
ATOM     15  C   UNL     1      -0.317  10.628  22.589  0.00  0.00    +0.000 C 
ATOM     16  O   UNL     1       0.690   9.885  21.898  0.00  0.00    +0.000 OA
ENDBRANCH  13  16
ENDBRANCH   1  13
BRANCH   3  17
ATOM     17  N   UNL     1       3.655   5.693  19.648  0.00  0.00    +0.000 N 
ATOM     18  H   UNL     1       4.590   5.872  20.004  0.00  0.00    +0.000 HD
BRANCH  17  19
ATOM     19  C   UNL     1       3.618   4.527  18.765  0.00  0.00    +0.000 C 
BRANCH  19  20
ATOM     20  C   UNL     1       4.783   4.509  17.803  0.00  0.00    +0.000 A 
ATOM     21  C   UNL     1       4.539   4.198  16.445  0.00  0.00    +0.000 A 
ATOM     22  C   UNL     1       5.569   4.110  15.511  0.00  0.00    +0.000 A 
ATOM     23  C   UNL     1       6.873   4.361  15.907  0.00  0.00    +0.000 A 
ATOM     24  C   UNL     1       7.137   4.700  17.234  0.00  0.00    +0.000 A 
ATOM     25  C   UNL     1       6.106   4.790  18.184  0.00  0.00    +0.000 A 
BRANCH  25  26
ATOM     26  O   UNL     1       6.560   5.015  19.457  0.00  0.00    +0.000 OA
ATOM     27  C   UNL     1       7.803   5.690  19.605  0.00  0.00    +0.000 C 
ENDBRANCH  25  26
ENDBRANCH  19  20
ENDBRANCH  17  19
ENDBRANCH   3  17
TORSDOF 7
ENDMDL
MODEL 2
REMARK VINA RESULT:      -7.2      1.831      3.025
REMARK  Name = 
REMARK  9 active torsions:
REMARK  status: ('A' for Active; 'I' for Inactive)
REMARK    1  A    between atoms: C_1  and  O_2
REMARK    2  A    between atoms: O_2  and  C_3
REMARK    3  A    between atoms: C_3  and  C_5
REMARK    4  A    between atoms: C_7  and  N_8
REMARK    5  A    between atoms: N_8  and  C_9
REMARK    6  A    between atoms: C_9  and  C_10
REMARK    7  A    between atoms: C_15  and  O_16
REMARK    8  A    between atoms: O_16  and  C_17
REMARK    9  A    between atoms: C_20  and  N_21
REMARK                            x       y       z     vdW  Elec       q    Type
REMARK                         _______ _______ _______ _____ _____    ______ ____
ROOT
ATOM      1  C   UNL     1       1.248   9.194  20.385  0.00  0.00    +0.000 A 
ATOM      2  C   UNL     1       1.891   8.000  19.985  0.00  0.00    +0.000 A 
ATOM      3  C   UNL     1       2.199   7.728  18.654  0.00  0.00    +0.000 A 
ATOM      4  C   UNL     1       1.747   8.640  17.707  0.00  0.00    +0.000 A 
ATOM      5  C   UNL     1       1.097   9.822  18.090  0.00  0.00    +0.000 A 
ATOM      6  C   UNL     1       0.843  10.159  19.434  0.00  0.00    +0.000 A 
ENDROOT
BRANCH   6   7
ATOM      7  N   UNL     1       0.297  11.398  19.712  0.00  0.00    +0.000 N 
ATOM      8  C   UNL     1       1.069  12.509  20.301  0.00  0.00    +0.000 C 
ATOM      9  C   UNL     1       0.284  13.125  21.475  0.00  0.00    +0.000 C 
ATOM     10  O   UNL     1      -1.047  13.513  21.092  0.00  0.00    +0.000 OA
ATOM     11  C   UNL     1      -1.768  12.380  20.580  0.00  0.00    +0.000 C 
ATOM     12  C   UNL     1      -1.074  11.780  19.348  0.00  0.00    +0.000 C 
ENDBRANCH   6   7
BRANCH   1  13
ATOM     13  C   UNL     1       0.974   9.309  21.844  0.00  0.00    +0.000 C 
ATOM     14  O   UNL     1       1.813   9.388  22.723  0.00  0.00    +0.000 OA
BRANCH  13  16
ATOM     15  C   UNL     1      -0.869  10.001  23.149  0.00  0.00    +0.000 C 
ATOM     16  O   UNL     1      -0.374   9.267  22.027  0.00  0.00    +0.000 OA
ENDBRANCH  13  16
ENDBRANCH   1  13
BRANCH   3  17
ATOM     17  N   UNL     1       2.809   6.525  18.337  0.00  0.00    +0.000 N 
ATOM     18  H   UNL     1       3.599   6.606  17.704  0.00  0.00    +0.000 HD
BRANCH  17  19
ATOM     19  C   UNL     1       2.047   5.297  18.109  0.00  0.00    +0.000 C 
BRANCH  19  20
ATOM     20  C   UNL     1       2.241   4.297  19.224  0.00  0.00    +0.000 A 
ATOM     21  C   UNL     1       1.187   4.090  20.144  0.00  0.00    +0.000 A 
ATOM     22  C   UNL     1       1.312   3.225  21.229  0.00  0.00    +0.000 A 
ATOM     23  C   UNL     1       2.491   2.518  21.406  0.00  0.00    +0.000 A 
ATOM     24  C   UNL     1       3.535   2.681  20.496  0.00  0.00    +0.000 A 
ATOM     25  C   UNL     1       3.421   3.552  19.400  0.00  0.00    +0.000 A 
BRANCH  25  26
ATOM     26  O   UNL     1       4.581   3.678  18.682  0.00  0.00    +0.000 OA
ATOM     27  C   UNL     1       5.562   4.584  19.169  0.00  0.00    +0.000 C 
ENDBRANCH  25  26
ENDBRANCH  19  20
ENDBRANCH  17  19
ENDBRANCH   3  17
TORSDOF 7
ENDMDL
MODEL 3
REMARK VINA RESULT:      -7.1      1.598      2.258
REMARK  Name = 
REMARK  9 active torsions:
REMARK  status: ('A' for Active; 'I' for Inactive)
REMARK    1  A    between atoms: C_1  and  O_2
REMARK    2  A    between atoms: O_2  and  C_3
REMARK    3  A    between atoms: C_3  and  C_5
REMARK    4  A    between atoms: C_7  and  N_8
REMARK    5  A    between atoms: N_8  and  C_9
REMARK    6  A    between atoms: C_9  and  C_10
REMARK    7  A    between atoms: C_15  and  O_16
REMARK    8  A    between atoms: O_16  and  C_17
REMARK    9  A    between atoms: C_20  and  N_21
REMARK                            x       y       z     vdW  Elec       q    Type
REMARK                         _______ _______ _______ _____ _____    ______ ____
ROOT
ATOM      1  C   UNL     1       1.319   9.105  20.486  0.00  0.00    +0.000 A 
ATOM      2  C   UNL     1       1.874   7.855  20.127  0.00  0.00    +0.000 A 
ATOM      3  C   UNL     1       2.188   7.530  18.808  0.00  0.00    +0.000 A 
ATOM      4  C   UNL     1       1.830   8.452  17.832  0.00  0.00    +0.000 A 
ATOM      5  C   UNL     1       1.267   9.690  18.176  0.00  0.00    +0.000 A 
ATOM      6  C   UNL     1       1.012  10.077  19.506  0.00  0.00    +0.000 A 
ENDROOT
BRANCH   6   7
ATOM      7  N   UNL     1       0.561  11.361  19.745  0.00  0.00    +0.000 N 
ATOM      8  C   UNL     1      -0.848  11.766  19.584  0.00  0.00    +0.000 C 
ATOM      9  C   UNL     1      -0.925  13.072  18.771  0.00  0.00    +0.000 C 
ATOM     10  O   UNL     1      -0.108  14.112  19.337  0.00  0.00    +0.000 OA
ATOM     11  C   UNL     1       1.261  13.681  19.416  0.00  0.00    +0.000 C 
ATOM     12  C   UNL     1       1.407  12.429  20.294  0.00  0.00    +0.000 C 
ENDBRANCH   6   7
BRANCH   1  13
ATOM     13  C   UNL     1       1.025   9.274  21.935  0.00  0.00    +0.000 C 
ATOM     14  O   UNL     1       1.852   9.388  22.823  0.00  0.00    +0.000 OA
BRANCH  13  16
ATOM     15  C   UNL     1      -0.858  10.161  23.052  0.00  0.00    +0.000 C 
ATOM     16  O   UNL     1      -0.325   9.237  22.101  0.00  0.00    +0.000 OA
ENDBRANCH  13  16
ENDBRANCH   1  13
BRANCH   3  17
ATOM     17  N   UNL     1       2.707   6.275  18.531  0.00  0.00    +0.000 N 
ATOM     18  H   UNL     1       2.936   5.722  19.352  0.00  0.00    +0.000 HD
BRANCH  17  19
ATOM     19  C   UNL     1       3.643   6.041  17.432  0.00  0.00    +0.000 C 
BRANCH  19  20
ATOM     20  C   UNL     1       5.081   6.105  17.891  0.00  0.00    +0.000 A 
ATOM     21  C   UNL     1       5.992   6.905  17.163  0.00  0.00    +0.000 A 
ATOM     22  C   UNL     1       7.344   6.972  17.495  0.00  0.00    +0.000 A 
ATOM     23  C   UNL     1       7.815   6.260  18.586  0.00  0.00    +0.000 A 
ATOM     24  C   UNL     1       6.932   5.488  19.339  0.00  0.00    +0.000 A 
ATOM     25  C   UNL     1       5.568   5.412  19.013  0.00  0.00    +0.000 A 
BRANCH  25  26
ATOM     26  O   UNL     1       4.874   4.516  19.784  0.00  0.00    +0.000 OA
ATOM     27  C   UNL     1       4.652   3.218  19.248  0.00  0.00    +0.000 C 
ENDBRANCH  25  26
ENDBRANCH  19  20
ENDBRANCH  17  19
ENDBRANCH   3  17
TORSDOF 7
ENDMDL
MODEL 4
REMARK VINA RESULT:      -7.1      1.362      2.196
REMARK  Name = 
REMARK  9 active torsions:
REMARK  status: ('A' for Active; 'I' for Inactive)
REMARK    1  A    between atoms: C_1  and  O_2
REMARK    2  A    between atoms: O_2  and  C_3
REMARK    3  A    between atoms: C_3  and  C_5
REMARK    4  A    between atoms: C_7  and  N_8
REMARK    5  A    between atoms: N_8  and  C_9
REMARK    6  A    between atoms: C_9  and  C_10
REMARK    7  A    between atoms: C_15  and  O_16
REMARK    8  A    between atoms: O_16  and  C_17
REMARK    9  A    between atoms: C_20  and  N_21
REMARK                            x       y       z     vdW  Elec       q    Type
REMARK                         _______ _______ _______ _____ _____    ______ ____
ROOT
ATOM      1  C   UNL     1       1.370   8.898  20.477  0.00  0.00    +0.000 A 
ATOM      2  C   UNL     1       1.949   7.621  20.297  0.00  0.00    +0.000 A 
ATOM      3  C   UNL     1       2.312   7.137  19.041  0.00  0.00    +0.000 A 
ATOM      4  C   UNL     1       1.980   7.924  17.945  0.00  0.00    +0.000 A 
ATOM      5  C   UNL     1       1.393   9.187  18.111  0.00  0.00    +0.000 A 
ATOM      6  C   UNL     1       1.087   9.735  19.373  0.00  0.00    +0.000 A 
ENDROOT
BRANCH   6   7
ATOM      7  N   UNL     1       0.615  11.031  19.433  0.00  0.00    +0.000 N 
ATOM      8  C   UNL     1      -0.815  11.378  19.323  0.00  0.00    +0.000 C 
ATOM      9  C   UNL     1      -0.996  12.528  18.314  0.00  0.00    +0.000 C 
ATOM     10  O   UNL     1      -0.171  13.663  18.633  0.00  0.00    +0.000 OA
ATOM     11  C   UNL     1       1.213  13.277  18.670  0.00  0.00    +0.000 C 
ATOM     12  C   UNL     1       1.467  12.192  19.727  0.00  0.00    +0.000 C 
ENDBRANCH   6   7
BRANCH   1  13
ATOM     13  C   UNL     1       1.023   9.244  21.883  0.00  0.00    +0.000 C 
ATOM     14  O   UNL     1       1.817   9.472  22.778  0.00  0.00    +0.000 OA
BRANCH  13  16
ATOM     15  C   UNL     1      -0.888  10.146  22.938  0.00  0.00    +0.000 C 
ATOM     16  O   UNL     1      -0.333   9.218  22.004  0.00  0.00    +0.000 OA
ENDBRANCH  13  16
ENDBRANCH   1  13
BRANCH   3  17
ATOM     17  N   UNL     1       2.853   5.865  18.942  0.00  0.00    +0.000 N 
ATOM     18  H   UNL     1       2.228   5.116  19.226  0.00  0.00    +0.000 HD
BRANCH  17  19
ATOM     19  C   UNL     1       4.246   5.577  19.286  0.00  0.00    +0.000 C 
BRANCH  19  20
ATOM     20  C   UNL     1       5.064   5.213  18.069  0.00  0.00    +0.000 A 
ATOM     21  C   UNL     1       6.260   5.924  17.816  0.00  0.00    +0.000 A 
ATOM     22  C   UNL     1       7.039   5.682  16.686  0.00  0.00    +0.000 A 
ATOM     23  C   UNL     1       6.654   4.696  15.791  0.00  0.00    +0.000 A 
ATOM     24  C   UNL     1       5.495   3.960  16.033  0.00  0.00    +0.000 A 
ATOM     25  C   UNL     1       4.701   4.197  17.167  0.00  0.00    +0.000 A 
BRANCH  25  26
ATOM     26  O   UNL     1       3.542   3.467  17.182  0.00  0.00    +0.000 OA
ATOM     27  C   UNL     1       3.545   2.238  17.895  0.00  0.00    +0.000 C 
ENDBRANCH  25  26
ENDBRANCH  19  20
ENDBRANCH  17  19
ENDBRANCH   3  17
TORSDOF 7
ENDMDL
MODEL 5
REMARK VINA RESULT:      -7.1      0.638      1.143
REMARK  Name = 
REMARK  9 active torsions:
REMARK  status: ('A' for Active; 'I' for Inactive)
REMARK    1  A    between atoms: C_1  and  O_2
REMARK    2  A    between atoms: O_2  and  C_3
REMARK    3  A    between atoms: C_3  and  C_5
REMARK    4  A    between atoms: C_7  and  N_8
REMARK    5  A    between atoms: N_8  and  C_9
REMARK    6  A    between atoms: C_9  and  C_10
REMARK    7  A    between atoms: C_15  and  O_16
REMARK    8  A    between atoms: O_16  and  C_17
REMARK    9  A    between atoms: C_20  and  N_21
REMARK                            x       y       z     vdW  Elec       q    Type
REMARK                         _______ _______ _______ _____ _____    ______ ____
ROOT
ATOM      1  C   UNL     1       1.066   8.628  20.322  0.00  0.00    +0.000 A 
ATOM      2  C   UNL     1       1.883   7.475  20.274  0.00  0.00    +0.000 A 
ATOM      3  C   UNL     1       2.721   7.199  19.196  0.00  0.00    +0.000 A 
ATOM      4  C   UNL     1       2.642   8.056  18.104  0.00  0.00    +0.000 A 
ATOM      5  C   UNL     1       1.826   9.195  18.135  0.00  0.00    +0.000 A 
ATOM      6  C   UNL     1       1.028   9.542  19.244  0.00  0.00    +0.000 A 
ENDROOT
BRANCH   6   7
ATOM      7  N   UNL     1       0.347  10.743  19.217  0.00  0.00    +0.000 N 
ATOM      8  C   UNL     1      -1.104  10.846  18.970  0.00  0.00    +0.000 C 
ATOM      9  C   UNL     1      -1.376  11.931  17.910  0.00  0.00    +0.000 C 
ATOM     10  O   UNL     1      -0.781  13.192  18.261  0.00  0.00    +0.000 OA
ATOM     11  C   UNL     1       0.638  13.042  18.433  0.00  0.00    +0.000 C 
ATOM     12  C   UNL     1       0.967  12.035  19.545  0.00  0.00    +0.000 C 
ENDBRANCH   6   7
BRANCH   1  13
ATOM     13  C   UNL     1       0.217   8.753  21.539  0.00  0.00    +0.000 C 
ATOM     14  O   UNL     1      -0.726   8.039  21.827  0.00  0.00    +0.000 OA
BRANCH  13  16
ATOM     15  C   UNL     1      -0.371  10.674  22.782  0.00  0.00    +0.000 C 
ATOM     16  O   UNL     1       0.652   9.829  22.250  0.00  0.00    +0.000 OA
ENDBRANCH  13  16
ENDBRANCH   1  13
BRANCH   3  17
ATOM     17  N   UNL     1       3.475   6.036  19.210  0.00  0.00    +0.000 N 
ATOM     18  H   UNL     1       4.433   6.158  19.526  0.00  0.00    +0.000 HD
BRANCH  17  19
ATOM     19  C   UNL     1       3.366   5.019  18.165  0.00  0.00    +0.000 C 
BRANCH  19  20
ATOM     20  C   UNL     1       4.649   4.875  17.381  0.00  0.00    +0.000 A 
ATOM     21  C   UNL     1       4.579   4.471  16.028  0.00  0.00    +0.000 A 
ATOM     22  C   UNL     1       5.721   4.265  15.257  0.00  0.00    +0.000 A 
ATOM     23  C   UNL     1       6.970   4.487  15.816  0.00  0.00    +0.000 A 
ATOM     24  C   UNL     1       7.067   4.914  17.140  0.00  0.00    +0.000 A 
ATOM     25  C   UNL     1       5.921   5.124  17.926  0.00  0.00    +0.000 A 
BRANCH  25  26
ATOM     26  O   UNL     1       6.207   5.425  19.232  0.00  0.00    +0.000 OA
ATOM     27  C   UNL     1       7.566   5.662  19.572  0.00  0.00    +0.000 C 
ENDBRANCH  25  26
ENDBRANCH  19  20
ENDBRANCH  17  19
ENDBRANCH   3  17
TORSDOF 7
ENDMDL
MODEL 6
REMARK VINA RESULT:      -7.0      1.388      2.018
REMARK  Name = 
REMARK  9 active torsions:
REMARK  status: ('A' for Active; 'I' for Inactive)
REMARK    1  A    between atoms: C_1  and  O_2
REMARK    2  A    between atoms: O_2  and  C_3
REMARK    3  A    between atoms: C_3  and  C_5
REMARK    4  A    between atoms: C_7  and  N_8
REMARK    5  A    between atoms: N_8  and  C_9
REMARK    6  A    between atoms: C_9  and  C_10
REMARK    7  A    between atoms: C_15  and  O_16
REMARK    8  A    between atoms: O_16  and  C_17
REMARK    9  A    between atoms: C_20  and  N_21
REMARK                            x       y       z     vdW  Elec       q    Type
REMARK                         _______ _______ _______ _____ _____    ______ ____
ROOT
ATOM      1  C   UNL     1       1.317   8.975  20.491  0.00  0.00    +0.000 A 
ATOM      2  C   UNL     1       1.901   7.707  20.267  0.00  0.00    +0.000 A 
ATOM      3  C   UNL     1       2.265   7.268  18.995  0.00  0.00    +0.000 A 
ATOM      4  C   UNL     1       1.929   8.092  17.927  0.00  0.00    +0.000 A 
ATOM      5  C   UNL     1       1.338   9.346  18.137  0.00  0.00    +0.000 A 
ATOM      6  C   UNL     1       1.031   9.848  19.417  0.00  0.00    +0.000 A 
ENDROOT
BRANCH   6   7
ATOM      7  N   UNL     1       0.554  11.140  19.523  0.00  0.00    +0.000 N 
ATOM      8  C   UNL     1       1.359  12.261  20.043  0.00  0.00    +0.000 C 
ATOM      9  C   UNL     1       0.544  13.049  21.086  0.00  0.00    +0.000 C 
ATOM     10  O   UNL     1      -0.730  13.472  20.571  0.00  0.00    +0.000 OA
ATOM     11  C   UNL     1      -1.492  12.335  20.132  0.00  0.00    +0.000 C 
ATOM     12  C   UNL     1      -0.763  11.562  19.023  0.00  0.00    +0.000 C 
ENDBRANCH   6   7
BRANCH   1  13
ATOM     13  C   UNL     1       0.969   9.270  21.909  0.00  0.00    +0.000 C 
ATOM     14  O   UNL     1       1.761   9.399  22.826  0.00  0.00    +0.000 OA
BRANCH  13  16
ATOM     15  C   UNL     1      -0.895  10.163  23.053  0.00  0.00    +0.000 C 
ATOM     16  O   UNL     1      -0.387   9.328  22.010  0.00  0.00    +0.000 OA
ENDBRANCH  13  16
ENDBRANCH   1  13
BRANCH   3  17
ATOM     17  N   UNL     1       2.811   6.002  18.851  0.00  0.00    +0.000 N 
ATOM     18  H   UNL     1       2.171   5.241  19.059  0.00  0.00    +0.000 HD
BRANCH  17  19
ATOM     19  C   UNL     1       4.183   5.692  19.251  0.00  0.00    +0.000 C 
BRANCH  19  20
ATOM     20  C   UNL     1       5.030   5.263  18.076  0.00  0.00    +0.000 A 
ATOM     21  C   UNL     1       6.248   5.940  17.832  0.00  0.00    +0.000 A 
ATOM     22  C   UNL     1       7.055   5.637  16.737  0.00  0.00    +0.000 A 
ATOM     23  C   UNL     1       6.677   4.623  15.870  0.00  0.00    +0.000 A 
ATOM     24  C   UNL     1       5.496   3.920  16.105  0.00  0.00    +0.000 A 
ATOM     25  C   UNL     1       4.674   4.218  17.205  0.00  0.00    +0.000 A 
BRANCH  25  26
ATOM     26  O   UNL     1       3.500   3.512  17.212  0.00  0.00    +0.000 OA
ATOM     27  C   UNL     1       3.490   2.255  17.876  0.00  0.00    +0.000 C 
ENDBRANCH  25  26
ENDBRANCH  19  20
ENDBRANCH  17  19
ENDBRANCH   3  17
TORSDOF 7
ENDMDL
MODEL 7
REMARK VINA RESULT:      -7.0      1.808      3.251
REMARK  Name = 
REMARK  9 active torsions:
REMARK  status: ('A' for Active; 'I' for Inactive)
REMARK    1  A    between atoms: C_1  and  O_2
REMARK    2  A    between atoms: O_2  and  C_3
REMARK    3  A    between atoms: C_3  and  C_5
REMARK    4  A    between atoms: C_7  and  N_8
REMARK    5  A    between atoms: N_8  and  C_9
REMARK    6  A    between atoms: C_9  and  C_10
REMARK    7  A    between atoms: C_15  and  O_16
REMARK    8  A    between atoms: O_16  and  C_17
REMARK    9  A    between atoms: C_20  and  N_21
REMARK                            x       y       z     vdW  Elec       q    Type
REMARK                         _______ _______ _______ _____ _____    ______ ____
ROOT
ATOM      1  C   UNL     1       1.082   8.661  20.138  0.00  0.00    +0.000 A 
ATOM      2  C   UNL     1       1.965   7.585  19.893  0.00  0.00    +0.000 A 
ATOM      3  C   UNL     1       2.765   7.521  18.753  0.00  0.00    +0.000 A 
ATOM      4  C   UNL     1       2.581   8.517  17.801  0.00  0.00    +0.000 A 
ATOM      5  C   UNL     1       1.698   9.583  18.028  0.00  0.00    +0.000 A 
ATOM      6  C   UNL     1       0.935   9.714  19.206  0.00  0.00    +0.000 A 
ENDROOT
BRANCH   6   7
ATOM      7  N   UNL     1       0.181  10.858  19.380  0.00  0.00    +0.000 N 
ATOM      8  C   UNL     1      -1.236  10.961  18.984  0.00  0.00    +0.000 C 
ATOM      9  C   UNL     1      -1.462  12.259  18.186  0.00  0.00    +0.000 C 
ATOM     10  O   UNL     1      -0.997  13.420  18.898  0.00  0.00    +0.000 OA
ATOM     11  C   UNL     1       0.401  13.288  19.206  0.00  0.00    +0.000 C 
ATOM     12  C   UNL     1       0.671  12.054  20.080  0.00  0.00    +0.000 C 
ENDBRANCH   6   7
BRANCH   1  13
ATOM     13  C   UNL     1       0.287   8.555  21.393  0.00  0.00    +0.000 C 
ATOM     14  O   UNL     1      -0.737   7.911  21.536  0.00  0.00    +0.000 OA
BRANCH  13  16
ATOM     15  C   UNL     1       0.031   9.768  23.403  0.00  0.00    +0.000 C 
ATOM     16  O   UNL     1       0.880   9.335  22.338  0.00  0.00    +0.000 OA
ENDBRANCH  13  16
ENDBRANCH   1  13
BRANCH   3  17
ATOM     17  N   UNL     1       3.589   6.422  18.571  0.00  0.00    +0.000 N 
ATOM     18  H   UNL     1       3.527   5.996  17.650  0.00  0.00    +0.000 HD
BRANCH  17  19
ATOM     19  C   UNL     1       3.814   5.429  19.621  0.00  0.00    +0.000 C 
BRANCH  19  20
ATOM     20  C   UNL     1       2.770   4.338  19.600  0.00  0.00    +0.000 A 
ATOM     21  C   UNL     1       2.147   3.968  20.815  0.00  0.00    +0.000 A 
ATOM     22  C   UNL     1       1.215   2.935  20.883  0.00  0.00    +0.000 A 
ATOM     23  C   UNL     1       0.859   2.260  19.726  0.00  0.00    +0.000 A 
ATOM     24  C   UNL     1       1.437   2.624  18.510  0.00  0.00    +0.000 A 
ATOM     25  C   UNL     1       2.378   3.663  18.430  0.00  0.00    +0.000 A 
BRANCH  25  26
ATOM     26  O   UNL     1       2.928   3.804  17.183  0.00  0.00    +0.000 OA
ATOM     27  C   UNL     1       4.223   3.260  16.968  0.00  0.00    +0.000 C 
ENDBRANCH  25  26
ENDBRANCH  19  20
ENDBRANCH  17  19
ENDBRANCH   3  17
TORSDOF 7
ENDMDL
MODEL 8
REMARK VINA RESULT:      -6.9      1.944      8.253
REMARK  Name = 
REMARK  9 active torsions:
REMARK  status: ('A' for Active; 'I' for Inactive)
REMARK    1  A    between atoms: C_1  and  O_2
REMARK    2  A    between atoms: O_2  and  C_3
REMARK    3  A    between atoms: C_3  and  C_5
REMARK    4  A    between atoms: C_7  and  N_8
REMARK    5  A    between atoms: N_8  and  C_9
REMARK    6  A    between atoms: C_9  and  C_10
REMARK    7  A    between atoms: C_15  and  O_16
REMARK    8  A    between atoms: O_16  and  C_17
REMARK    9  A    between atoms: C_20  and  N_21
REMARK                            x       y       z     vdW  Elec       q    Type
REMARK                         _______ _______ _______ _____ _____    ______ ____
ROOT
ATOM      1  C   UNL     1       3.809   4.996  18.842  0.00  0.00    +0.000 A 
ATOM      2  C   UNL     1       2.905   5.775  19.600  0.00  0.00    +0.000 A 
ATOM      3  C   UNL     1       2.555   7.075  19.237  0.00  0.00    +0.000 A 
ATOM      4  C   UNL     1       3.220   7.622  18.146  0.00  0.00    +0.000 A 
ATOM      5  C   UNL     1       4.128   6.863  17.395  0.00  0.00    +0.000 A 
ATOM      6  C   UNL     1       4.441   5.521  17.692  0.00  0.00    +0.000 A 
ENDROOT
BRANCH   6   7
ATOM      7  N   UNL     1       5.262   4.827  16.824  0.00  0.00    +0.000 N 
ATOM      8  C   UNL     1       6.726   4.746  16.986  0.00  0.00    +0.000 C 
ATOM      9  C   UNL     1       7.417   5.055  15.644  0.00  0.00    +0.000 C 
ATOM     10  O   UNL     1       6.927   4.222  14.579  0.00  0.00    +0.000 OA
ATOM     11  C   UNL     1       5.507   4.386  14.431  0.00  0.00    +0.000 C 
ATOM     12  C   UNL     1       4.759   4.002  15.717  0.00  0.00    +0.000 C 
ENDBRANCH   6   7
BRANCH   1  13
ATOM     13  C   UNL     1       4.086   3.639  19.388  0.00  0.00    +0.000 C 
ATOM     14  O   UNL     1       5.178   3.213  19.723  0.00  0.00    +0.000 OA
BRANCH  13  16
ATOM     15  C   UNL     1       2.606   2.221  18.213  0.00  0.00    +0.000 C 
ATOM     16  O   UNL     1       2.917   2.942  19.407  0.00  0.00    +0.000 OA
ENDBRANCH  13  16
ENDBRANCH   1  13
BRANCH   3  17
ATOM     17  N   UNL     1       1.680   7.785  20.044  0.00  0.00    +0.000 N 
ATOM     18  H   UNL     1       0.965   7.220  20.492  0.00  0.00    +0.000 HD
BRANCH  17  19
ATOM     19  C   UNL     1       1.183   9.113  19.681  0.00  0.00    +0.000 C 
BRANCH  19  20
ATOM     20  C   UNL     1       0.479   9.787  20.835  0.00  0.00    +0.000 A 
ATOM     21  C   UNL     1       0.067   8.998  21.934  0.00  0.00    +0.000 A 
ATOM     22  C   UNL     1      -0.636   9.539  23.010  0.00  0.00    +0.000 A 
ATOM     23  C   UNL     1      -0.919  10.895  23.026  0.00  0.00    +0.000 A 
ATOM     24  C   UNL     1      -0.498  11.701  21.968  0.00  0.00    +0.000 A 
ATOM     25  C   UNL     1       0.209  11.166  20.879  0.00  0.00    +0.000 A 
BRANCH  25  26
ATOM     26  O   UNL     1       0.437  12.075  19.880  0.00  0.00    +0.000 OA
ATOM     27  C   UNL     1       1.617  12.864  19.962  0.00  0.00    +0.000 C 
ENDBRANCH  25  26
ENDBRANCH  19  20
ENDBRANCH  17  19
ENDBRANCH   3  17
TORSDOF 7
ENDMDL
MODEL 9
REMARK VINA RESULT:      -6.8      1.932      8.153
REMARK  Name = 
REMARK  9 active torsions:
REMARK  status: ('A' for Active; 'I' for Inactive)
REMARK    1  A    between atoms: C_1  and  O_2
REMARK    2  A    between atoms: O_2  and  C_3
REMARK    3  A    between atoms: C_3  and  C_5
REMARK    4  A    between atoms: C_7  and  N_8
REMARK    5  A    between atoms: N_8  and  C_9
REMARK    6  A    between atoms: C_9  and  C_10
REMARK    7  A    between atoms: C_15  and  O_16
REMARK    8  A    between atoms: O_16  and  C_17
REMARK    9  A    between atoms: C_20  and  N_21
REMARK                            x       y       z     vdW  Elec       q    Type
REMARK                         _______ _______ _______ _____ _____    ______ ____
ROOT
ATOM      1  C   UNL     1       3.970   5.466  18.476  0.00  0.00    +0.000 A 
ATOM      2  C   UNL     1       2.898   5.894  19.292  0.00  0.00    +0.000 A 
ATOM      3  C   UNL     1       2.299   7.143  19.142  0.00  0.00    +0.000 A 
ATOM      4  C   UNL     1       2.873   8.008  18.218  0.00  0.00    +0.000 A 
ATOM      5  C   UNL     1       3.946   7.599  17.412  0.00  0.00    +0.000 A 
ATOM      6  C   UNL     1       4.520   6.314  17.487  0.00  0.00    +0.000 A 
ENDROOT
BRANCH   6   7
ATOM      7  N   UNL     1       5.497   5.974  16.573  0.00  0.00    +0.000 N 
ATOM      8  C   UNL     1       5.207   5.638  15.166  0.00  0.00    +0.000 C 
ATOM      9  C   UNL     1       5.943   4.341  14.777  0.00  0.00    +0.000 C 
ATOM     10  O   UNL     1       7.353   4.415  15.052  0.00  0.00    +0.000 OA
ATOM     11  C   UNL     1       7.574   4.687  16.446  0.00  0.00    +0.000 C 
ATOM     12  C   UNL     1       6.936   6.019  16.868  0.00  0.00    +0.000 C 
ENDBRANCH   6   7
BRANCH   1  13
ATOM     13  C   UNL     1       4.504   4.113  18.790  0.00  0.00    +0.000 C 
ATOM     14  O   UNL     1       5.328   3.852  19.649  0.00  0.00    +0.000 OA
BRANCH  13  16
ATOM     15  C   UNL     1       3.069   2.258  18.507  0.00  0.00    +0.000 C 
ATOM     16  O   UNL     1       3.945   3.225  17.923  0.00  0.00    +0.000 OA
ENDBRANCH  13  16
ENDBRANCH   1  13
BRANCH   3  17
ATOM     17  N   UNL     1       1.268   7.501  19.996  0.00  0.00    +0.000 N 
ATOM     18  H   UNL     1       0.457   7.904  19.534  0.00  0.00    +0.000 HD
BRANCH  17  19
ATOM     19  C   UNL     1       1.510   8.106  21.306  0.00  0.00    +0.000 C 
BRANCH  19  20
ATOM     20  C   UNL     1       0.583   9.268  21.572  0.00  0.00    +0.000 A 
ATOM     21  C   UNL     1       0.002   9.395  22.856  0.00  0.00    +0.000 A 
ATOM     22  C   UNL     1      -0.904  10.409  23.160  0.00  0.00    +0.000 A 
ATOM     23  C   UNL     1      -1.232  11.344  22.191  0.00  0.00    +0.000 A 
ATOM     24  C   UNL     1      -0.651  11.259  20.926  0.00  0.00    +0.000 A 
ATOM     25  C   UNL     1       0.262  10.240  20.608  0.00  0.00    +0.000 A 
BRANCH  25  26
ATOM     26  O   UNL     1       0.639  10.239  19.291  0.00  0.00    +0.000 OA
ATOM     27  C   UNL     1       1.300  11.396  18.793  0.00  0.00    +0.000 C 
ENDBRANCH  25  26
ENDBRANCH  19  20
ENDBRANCH  17  19
ENDBRANCH   3  17
TORSDOF 7
ENDMDL
