MODEL 1
REMARK VINA RESULT:      -7.5      0.000      0.000
REMARK  Name = 
REMARK  9 active torsions:
REMARK  status: ('A' for Active; 'I' for Inactive)
REMARK    1  A    between atoms: C_1  and  C_2
REMARK    2  A    between atoms: C_2  and  N_3
REMARK    3  A    between atoms: C_6  and  C_7
REMARK    4  A    between atoms: C_10  and  C_11
REMARK    5  A    between atoms: N_13  and  C_14
REMARK    6  A    between atoms: C_19  and  C_20
REMARK    7  A    between atoms: C_20  and  O_22
REMARK    8  A    between atoms: O_22  and  C_23
REMARK    9  A    between atoms: C_25  and  C_26
REMARK                            x       y       z     vdW  Elec       q    Type
REMARK                         _______ _______ _______ _____ _____    ______ ____
ROOT
ATOM      1  C   UNL     1       6.292   5.267  19.023  0.00  0.00    +0.000 C 
ATOM      2  O   UNL     1       6.591   5.269  20.218  0.00  0.00    +0.000 OA
ATOM      3  N   UNL     1       5.011   5.075  18.530  0.00  0.00    +0.000 N 
ATOM      4  H   UNL     1       4.968   4.630  17.612  0.00  0.00    +0.000 HD
ENDROOT
BRANCH   3   5
ATOM      5  C   UNL     1       3.864   4.968  19.348  0.00  0.00    +0.000 A 
ATOM      6  C   UNL     1       3.128   6.133  19.631  0.00  0.00    +0.000 A 
ATOM      7  C   UNL     1       1.970   6.085  20.406  0.00  0.00    +0.000 A 
ATOM      8  C   UNL     1       1.532   4.870  20.919  0.00  0.00    +0.000 A 
ATOM      9  C   UNL     1       2.246   3.704  20.641  0.00  0.00    +0.000 A 
ATOM     10  C   UNL     1       3.408   3.731  19.844  0.00  0.00    +0.000 A 
BRANCH  10  11
ATOM     11  C   UNL     1       4.109   2.419  19.681  0.00  0.00    +0.000 C 
ATOM     12  O   UNL     1       5.193   2.180  20.187  0.00  0.00    +0.000 OA
BRANCH  11  13
ATOM     13  O   UNL     1       3.416   1.564  18.886  0.00  0.00    +0.000 OA
ATOM     14  C   UNL     1       2.957   2.137  17.658  0.00  0.00    +0.000 C 
ENDBRANCH  11  13
ENDBRANCH  10  11
ENDBRANCH   3   5
BRANCH   1  18
ATOM     15  C   UNL     1       7.049   5.291  15.691  0.00  0.00    +0.000 C 
ATOM     16  N   UNL     1       6.897   6.555  15.915  0.00  0.00    +0.000 NA
ATOM     17  O   UNL     1       7.108   6.780  17.289  0.00  0.00    +0.000 OA
ATOM     18  C   UNL     1       7.340   5.536  17.942  0.00  0.00    +0.000 C 
ATOM     19  C   UNL     1       7.378   4.464  16.877  0.00  0.00    +0.000 C 
BRANCH  15  23
ATOM     20  N   UNL     1       6.275   3.656  12.555  0.00  0.00    +0.000 N 
ATOM     21  N   UNL     1       7.331   4.375  12.138  0.00  0.00    +0.000 NA
ATOM     22  C   UNL     1       7.723   5.031  13.229  0.00  0.00    +0.000 A 
ATOM     23  C   UNL     1       6.918   4.753  14.357  0.00  0.00    +0.000 A 
ATOM     24  C   UNL     1       5.983   3.837  13.886  0.00  0.00    +0.000 A 
ATOM     25  C   UNL     1       4.872   3.116  14.564  0.00  0.00    +0.000 C 
BRANCH  20  27
ATOM     26  C   UNL     1       4.242   3.312  11.188  0.00  0.00    +0.000 C 
ATOM     27  C   UNL     1       5.603   2.782  11.610  0.00  0.00    +0.000 C 
ENDBRANCH  20  27
ENDBRANCH  15  23
ENDBRANCH   1  18
TORSDOF 6
ENDMDL
MODEL 2
REMARK VINA RESULT:      -7.2      1.482      2.440
REMARK  Name = 
REMARK  9 active torsions:
REMARK  status: ('A' for Active; 'I' for Inactive)
REMARK    1  A    between atoms: C_1  and  C_2
REMARK    2  A    between atoms: C_2  and  N_3
REMARK    3  A    between atoms: C_6  and  C_7
REMARK    4  A    between atoms: C_10  and  C_11
REMARK    5  A    between atoms: N_13  and  C_14
REMARK    6  A    between atoms: C_19  and  C_20
REMARK    7  A    between atoms: C_20  and  O_22
REMARK    8  A    between atoms: O_22  and  C_23
REMARK    9  A    between atoms: C_25  and  C_26
REMARK                            x       y       z     vdW  Elec       q    Type
REMARK                         _______ _______ _______ _____ _____    ______ ____
ROOT
ATOM      1  C   UNL     1       6.131   5.232  19.064  0.00  0.00    +0.000 C 
ATOM      2  O   UNL     1       6.537   5.195  20.226  0.00  0.00    +0.000 OA
ATOM      3  N   UNL     1       4.872   4.823  18.654  0.00  0.00    +0.000 N 
ATOM      4  H   UNL     1       4.830   4.457  17.702  0.00  0.00    +0.000 HD
ENDROOT
BRANCH   3   5
ATOM      5  C   UNL     1       3.852   4.415  19.542  0.00  0.00    +0.000 A 
ATOM      6  C   UNL     1       3.874   3.098  20.034  0.00  0.00    +0.000 A 
ATOM      7  C   UNL     1       2.912   2.647  20.936  0.00  0.00    +0.000 A 
ATOM      8  C   UNL     1       1.905   3.505  21.358  0.00  0.00    +0.000 A 
ATOM      9  C   UNL     1       1.872   4.818  20.886  0.00  0.00    +0.000 A 
ATOM     10  C   UNL     1       2.847   5.296  19.988  0.00  0.00    +0.000 A 
BRANCH  10  11
ATOM     11  C   UNL     1       2.654   6.702  19.515  0.00  0.00    +0.000 C 
ATOM     12  O   UNL     1       2.167   7.575  20.215  0.00  0.00    +0.000 OA
BRANCH  11  13
ATOM     13  O   UNL     1       3.047   6.867  18.226  0.00  0.00    +0.000 OA
ATOM     14  C   UNL     1       2.669   8.120  17.648  0.00  0.00    +0.000 C 
ENDBRANCH  11  13
ENDBRANCH  10  11
ENDBRANCH   3   5
BRANCH   1  18
ATOM     15  C   UNL     1       6.722   5.420  15.704  0.00  0.00    +0.000 C 
ATOM     16  N   UNL     1       6.177   6.572  15.920  0.00  0.00    +0.000 NA
ATOM     17  O   UNL     1       6.352   6.886  17.281  0.00  0.00    +0.000 OA
ATOM     18  C   UNL     1       6.997   5.799  17.938  0.00  0.00    +0.000 C 
ATOM     19  C   UNL     1       7.342   4.772  16.884  0.00  0.00    +0.000 C 
BRANCH  15  23
ATOM     20  N   UNL     1       6.274   3.669  12.567  0.00  0.00    +0.000 N 
ATOM     21  N   UNL     1       7.350   4.399  12.224  0.00  0.00    +0.000 NA
ATOM     22  C   UNL     1       7.626   5.098  13.324  0.00  0.00    +0.000 A 
ATOM     23  C   UNL     1       6.725   4.837  14.382  0.00  0.00    +0.000 A 
ATOM     24  C   UNL     1       5.857   3.886  13.859  0.00  0.00    +0.000 A 
ATOM     25  C   UNL     1       4.702   3.161  14.456  0.00  0.00    +0.000 C 
BRANCH  20  27
ATOM     26  C   UNL     1       4.306   3.143  11.164  0.00  0.00    +0.000 C 
ATOM     27  C   UNL     1       5.710   2.751  11.594  0.00  0.00    +0.000 C 
ENDBRANCH  20  27
ENDBRANCH  15  23
ENDBRANCH   1  18
TORSDOF 6
ENDMDL
MODEL 3
REMARK VINA RESULT:      -7.1      5.506      8.447
REMARK  Name = 
REMARK  9 active torsions:
REMARK  status: ('A' for Active; 'I' for Inactive)
REMARK    1  A    between atoms: C_1  and  C_2
REMARK    2  A    between atoms: C_2  and  N_3
REMARK    3  A    between atoms: C_6  and  C_7
REMARK    4  A    between atoms: C_10  and  C_11
REMARK    5  A    between atoms: N_13  and  C_14
REMARK    6  A    between atoms: C_19  and  C_20
REMARK    7  A    between atoms: C_20  and  O_22
REMARK    8  A    between atoms: O_22  and  C_23
REMARK    9  A    between atoms: C_25  and  C_26
REMARK                            x       y       z     vdW  Elec       q    Type
REMARK                         _______ _______ _______ _____ _____    ______ ____
ROOT
ATOM      1  C   UNL     1       2.231   7.609  19.020  0.00  0.00    +0.000 C 
ATOM      2  O   UNL     1       2.088   7.195  20.171  0.00  0.00    +0.000 OA
ATOM      3  N   UNL     1       2.662   6.838  17.952  0.00  0.00    +0.000 N 
ATOM      4  H   UNL     1       3.178   7.350  17.236  0.00  0.00    +0.000 HD
ENDROOT
BRANCH   3   5
ATOM      5  C   UNL     1       2.886   5.445  18.030  0.00  0.00    +0.000 A 
ATOM      6  C   UNL     1       1.799   4.576  17.827  0.00  0.00    +0.000 A 
ATOM      7  C   UNL     1       1.965   3.192  17.862  0.00  0.00    +0.000 A 
ATOM      8  C   UNL     1       3.222   2.653  18.108  0.00  0.00    +0.000 A 
ATOM      9  C   UNL     1       4.312   3.501  18.303  0.00  0.00    +0.000 A 
ATOM     10  C   UNL     1       4.167   4.902  18.254  0.00  0.00    +0.000 A 
BRANCH  10  11
ATOM     11  C   UNL     1       5.404   5.690  18.545  0.00  0.00    +0.000 C 
ATOM     12  O   UNL     1       6.064   5.535  19.560  0.00  0.00    +0.000 OA
BRANCH  11  13
ATOM     13  O   UNL     1       5.671   6.601  17.575  0.00  0.00    +0.000 OA
ATOM     14  C   UNL     1       7.050   6.972  17.474  0.00  0.00    +0.000 C 
ENDBRANCH  11  13
ENDBRANCH  10  11
ENDBRANCH   3   5
BRANCH   1  18
ATOM     15  C   UNL     1      -0.216   9.913  18.406  0.00  0.00    +0.000 C 
ATOM     16  N   UNL     1       0.161  10.270  19.590  0.00  0.00    +0.000 NA
ATOM     17  O   UNL     1       1.475   9.802  19.785  0.00  0.00    +0.000 OA
ATOM     18  C   UNL     1       1.884   9.050  18.646  0.00  0.00    +0.000 C 
ATOM     19  C   UNL     1       0.778   9.144  17.620  0.00  0.00    +0.000 C 
BRANCH  15  23
ATOM     20  N   UNL     1      -3.506  11.182  17.584  0.00  0.00    +0.000 N 
ATOM     21  N   UNL     1      -3.386  10.300  16.575  0.00  0.00    +0.000 NA
ATOM     22  C   UNL     1      -2.190   9.747  16.775  0.00  0.00    +0.000 A 
ATOM     23  C   UNL     1      -1.522  10.273  17.904  0.00  0.00    +0.000 A 
ATOM     24  C   UNL     1      -2.417  11.204  18.421  0.00  0.00    +0.000 A 
ATOM     25  C   UNL     1      -2.351  12.085  19.619  0.00  0.00    +0.000 C 
BRANCH  20  27
ATOM     26  C   UNL     1      -5.941  11.099  18.009  0.00  0.00    +0.000 C 
ATOM     27  C   UNL     1      -4.728  11.958  17.693  0.00  0.00    +0.000 C 
ENDBRANCH  20  27
ENDBRANCH  15  23
ENDBRANCH   1  18
TORSDOF 6
ENDMDL
MODEL 4
REMARK VINA RESULT:      -7.0      0.540      1.180
REMARK  Name = 
REMARK  9 active torsions:
REMARK  status: ('A' for Active; 'I' for Inactive)
REMARK    1  A    between atoms: C_1  and  C_2
REMARK    2  A    between atoms: C_2  and  N_3
REMARK    3  A    between atoms: C_6  and  C_7
REMARK    4  A    between atoms: C_10  and  C_11
REMARK    5  A    between atoms: N_13  and  C_14
REMARK    6  A    between atoms: C_19  and  C_20
REMARK    7  A    between atoms: C_20  and  O_22
REMARK    8  A    between atoms: O_22  and  C_23
REMARK    9  A    between atoms: C_25  and  C_26
REMARK                            x       y       z     vdW  Elec       q    Type
REMARK                         _______ _______ _______ _____ _____    ______ ____
ROOT
ATOM      1  C   UNL     1       6.379   5.234  19.005  0.00  0.00    +0.000 C 
ATOM      2  O   UNL     1       6.599   5.448  20.197  0.00  0.00    +0.000 OA
ATOM      3  N   UNL     1       5.140   4.907  18.477  0.00  0.00    +0.000 N 
ATOM      4  H   UNL     1       5.172   4.314  17.646  0.00  0.00    +0.000 HD
ENDROOT
BRANCH   3   5
ATOM      5  C   UNL     1       3.946   4.887  19.232  0.00  0.00    +0.000 A 
ATOM      6  C   UNL     1       3.310   6.108  19.519  0.00  0.00    +0.000 A 
ATOM      7  C   UNL     1       2.114   6.149  20.234  0.00  0.00    +0.000 A 
ATOM      8  C   UNL     1       1.536   4.967  20.681  0.00  0.00    +0.000 A 
ATOM      9  C   UNL     1       2.150   3.747  20.398  0.00  0.00    +0.000 A 
ATOM     10  C   UNL     1       3.349   3.685  19.661  0.00  0.00    +0.000 A 
BRANCH  10  11
ATOM     11  C   UNL     1       3.930   2.317  19.488  0.00  0.00    +0.000 C 
ATOM     12  O   UNL     1       3.364   1.431  18.868  0.00  0.00    +0.000 OA
BRANCH  11  13
ATOM     13  O   UNL     1       5.121   2.183  20.125  0.00  0.00    +0.000 OA
ATOM     14  C   UNL     1       5.118   1.227  21.190  0.00  0.00    +0.000 C 
ENDBRANCH  11  13
ENDBRANCH  10  11
ENDBRANCH   3   5
BRANCH   1  18
ATOM     15  C   UNL     1       7.219   5.255  15.693  0.00  0.00    +0.000 C 
ATOM     16  N   UNL     1       7.271   6.518  15.964  0.00  0.00    +0.000 NA
ATOM     17  O   UNL     1       7.479   6.654  17.350  0.00  0.00    +0.000 OA
ATOM     18  C   UNL     1       7.485   5.366  17.958  0.00  0.00    +0.000 C 
ATOM     19  C   UNL     1       7.375   4.342  16.851  0.00  0.00    +0.000 C 
BRANCH  15  23
ATOM     20  N   UNL     1       6.317   3.814  12.496  0.00  0.00    +0.000 N 
ATOM     21  N   UNL     1       7.377   4.533  12.087  0.00  0.00    +0.000 NA
ATOM     22  C   UNL     1       7.815   5.119  13.201  0.00  0.00    +0.000 A 
ATOM     23  C   UNL     1       7.037   4.795  14.336  0.00  0.00    +0.000 A 
ATOM     24  C   UNL     1       6.068   3.927  13.843  0.00  0.00    +0.000 A 
ATOM     25  C   UNL     1       4.961   3.193  14.514  0.00  0.00    +0.000 C 
BRANCH  20  27
ATOM     26  C   UNL     1       6.207   1.628  11.345  0.00  0.00    +0.000 C 
ATOM     27  C   UNL     1       5.598   3.009  11.524  0.00  0.00    +0.000 C 
ENDBRANCH  20  27
ENDBRANCH  15  23
ENDBRANCH   1  18
TORSDOF 6
ENDMDL
MODEL 5
REMARK VINA RESULT:      -7.0      2.884      7.448
REMARK  Name = 
REMARK  9 active torsions:
REMARK  status: ('A' for Active; 'I' for Inactive)
REMARK    1  A    between atoms: C_1  and  C_2
REMARK    2  A    between atoms: C_2  and  N_3
REMARK    3  A    between atoms: C_6  and  C_7
REMARK    4  A    between atoms: C_10  and  C_11
REMARK    5  A    between atoms: N_13  and  C_14
REMARK    6  A    between atoms: C_19  and  C_20
REMARK    7  A    between atoms: C_20  and  O_22
REMARK    8  A    between atoms: O_22  and  C_23
REMARK    9  A    between atoms: C_25  and  C_26
REMARK                            x       y       z     vdW  Elec       q    Type
REMARK                         _______ _______ _______ _____ _____    ______ ____
ROOT
ATOM      1  C   UNL     1       3.990   3.628  18.540  0.00  0.00    +0.000 C 
ATOM      2  O   UNL     1       3.901   2.486  18.090  0.00  0.00    +0.000 OA
ATOM      3  N   UNL     1       4.734   4.647  17.966  0.00  0.00    +0.000 N 
ATOM      4  H   UNL     1       5.108   5.329  18.628  0.00  0.00    +0.000 HD
ENDROOT
BRANCH   3   5
ATOM      5  C   UNL     1       5.399   4.529  16.724  0.00  0.00    +0.000 A 
ATOM      6  C   UNL     1       4.628   4.349  15.562  0.00  0.00    +0.000 A 
ATOM      7  C   UNL     1       5.225   4.257  14.306  0.00  0.00    +0.000 A 
ATOM      8  C   UNL     1       6.607   4.337  14.191  0.00  0.00    +0.000 A 
ATOM      9  C   UNL     1       7.387   4.523  15.333  0.00  0.00    +0.000 A 
ATOM     10  C   UNL     1       6.799   4.637  16.609  0.00  0.00    +0.000 A 
BRANCH  10  11
ATOM     11  C   UNL     1       7.756   4.769  17.750  0.00  0.00    +0.000 C 
ATOM     12  O   UNL     1       8.699   4.011  17.915  0.00  0.00    +0.000 OA
BRANCH  11  13
ATOM     13  O   UNL     1       7.428   5.793  18.578  0.00  0.00    +0.000 OA
ATOM     14  C   UNL     1       7.766   7.091  18.077  0.00  0.00    +0.000 C 
ENDBRANCH  11  13
ENDBRANCH  10  11
ENDBRANCH   3   5
BRANCH   1  18
ATOM     15  C   UNL     1       1.976   5.953  20.028  0.00  0.00    +0.000 C 
ATOM     16  N   UNL     1       1.119   5.021  19.765  0.00  0.00    +0.000 NA
ATOM     17  O   UNL     1       1.822   3.806  19.649  0.00  0.00    +0.000 OA
ATOM     18  C   UNL     1       3.218   4.052  19.789  0.00  0.00    +0.000 C 
ATOM     19  C   UNL     1       3.390   5.516  20.121  0.00  0.00    +0.000 C 
BRANCH  15  23
ATOM     20  N   UNL     1       1.069   9.457  19.993  0.00  0.00    +0.000 N 
ATOM     21  N   UNL     1       0.696   9.178  21.255  0.00  0.00    +0.000 NA
ATOM     22  C   UNL     1       0.994   7.887  21.398  0.00  0.00    +0.000 A 
ATOM     23  C   UNL     1       1.548   7.318  20.229  0.00  0.00    +0.000 A 
ATOM     24  C   UNL     1       1.596   8.376  19.329  0.00  0.00    +0.000 A 
ATOM     25  C   UNL     1       2.101   8.469  17.931  0.00  0.00    +0.000 C 
BRANCH  20  27
ATOM     26  C   UNL     1      -0.525  11.130  19.111  0.00  0.00    +0.000 C 
ATOM     27  C   UNL     1       0.910  10.814  19.500  0.00  0.00    +0.000 C 
ENDBRANCH  20  27
ENDBRANCH  15  23
ENDBRANCH   1  18
TORSDOF 6
ENDMDL
MODEL 6
REMARK VINA RESULT:      -7.0      1.749      2.878
REMARK  Name = 
REMARK  9 active torsions:
REMARK  status: ('A' for Active; 'I' for Inactive)
REMARK    1  A    between atoms: C_1  and  C_2
REMARK    2  A    between atoms: C_2  and  N_3
REMARK    3  A    between atoms: C_6  and  C_7
REMARK    4  A    between atoms: C_10  and  C_11
REMARK    5  A    between atoms: N_13  and  C_14
REMARK    6  A    between atoms: C_19  and  C_20
REMARK    7  A    between atoms: C_20  and  O_22
REMARK    8  A    between atoms: O_22  and  C_23
REMARK    9  A    between atoms: C_25  and  C_26
REMARK                            x       y       z     vdW  Elec       q    Type
REMARK                         _______ _______ _______ _____ _____    ______ ____
ROOT
ATOM      1  C   UNL     1       5.813   5.336  18.839  0.00  0.00    +0.000 C 
ATOM      2  O   UNL     1       6.293   5.410  19.971  0.00  0.00    +0.000 OA
ATOM      3  N   UNL     1       4.560   4.819  18.546  0.00  0.00    +0.000 N 
ATOM      4  H   UNL     1       4.482   4.382  17.626  0.00  0.00    +0.000 HD
ENDROOT
BRANCH   3   5
ATOM      5  C   UNL     1       3.629   4.414  19.528  0.00  0.00    +0.000 A 
ATOM      6  C   UNL     1       3.706   3.102  20.028  0.00  0.00    +0.000 A 
ATOM      7  C   UNL     1       2.834   2.654  21.020  0.00  0.00    +0.000 A 
ATOM      8  C   UNL     1       1.864   3.511  21.524  0.00  0.00    +0.000 A 
ATOM      9  C   UNL     1       1.778   4.818  21.045  0.00  0.00    +0.000 A 
ATOM     10  C   UNL     1       2.663   5.294  20.056  0.00  0.00    +0.000 A 
BRANCH  10  11
ATOM     11  C   UNL     1       2.417   6.693  19.589  0.00  0.00    +0.000 C 
ATOM     12  O   UNL     1       2.034   7.582  20.332  0.00  0.00    +0.000 OA
BRANCH  11  13
ATOM     13  O   UNL     1       2.634   6.834  18.256  0.00  0.00    +0.000 OA
ATOM     14  C   UNL     1       2.498   8.173  17.772  0.00  0.00    +0.000 C 
ENDBRANCH  11  13
ENDBRANCH  10  11
ENDBRANCH   3   5
BRANCH   1  18
ATOM     15  C   UNL     1       6.229   5.252  15.449  0.00  0.00    +0.000 C 
ATOM     16  N   UNL     1       5.579   6.361  15.586  0.00  0.00    +0.000 NA
ATOM     17  O   UNL     1       5.782   6.822  16.902  0.00  0.00    +0.000 OA
ATOM     18  C   UNL     1       6.564   5.872  17.621  0.00  0.00    +0.000 C 
ATOM     19  C   UNL     1       6.965   4.786  16.649  0.00  0.00    +0.000 C 
BRANCH  15  23
ATOM     20  N   UNL     1       6.737   3.740  12.199  0.00  0.00    +0.000 N 
ATOM     21  N   UNL     1       5.559   3.163  12.494  0.00  0.00    +0.000 NA
ATOM     22  C   UNL     1       5.252   3.657  13.693  0.00  0.00    +0.000 A 
ATOM     23  C   UNL     1       6.233   4.546  14.189  0.00  0.00    +0.000 A 
ATOM     24  C   UNL     1       7.189   4.589  13.180  0.00  0.00    +0.000 A 
ATOM     25  C   UNL     1       8.458   5.357  13.048  0.00  0.00    +0.000 C 
BRANCH  20  27
ATOM     26  C   UNL     1       7.492   1.949  10.669  0.00  0.00    +0.000 C 
ATOM     27  C   UNL     1       7.364   3.442  10.923  0.00  0.00    +0.000 C 
ENDBRANCH  20  27
ENDBRANCH  15  23
ENDBRANCH   1  18
TORSDOF 6
ENDMDL
MODEL 7
REMARK VINA RESULT:      -7.0      5.920      8.947
REMARK  Name = 
REMARK  9 active torsions:
REMARK  status: ('A' for Active; 'I' for Inactive)
REMARK    1  A    between atoms: C_1  and  C_2
REMARK    2  A    between atoms: C_2  and  N_3
REMARK    3  A    between atoms: C_6  and  C_7
REMARK    4  A    between atoms: C_10  and  C_11
REMARK    5  A    between atoms: N_13  and  C_14
REMARK    6  A    between atoms: C_19  and  C_20
REMARK    7  A    between atoms: C_20  and  O_22
REMARK    8  A    between atoms: O_22  and  C_23
REMARK    9  A    between atoms: C_25  and  C_26
REMARK                            x       y       z     vdW  Elec       q    Type
REMARK                         _______ _______ _______ _____ _____    ______ ____
ROOT
ATOM      1  C   UNL     1       2.124   8.632  18.206  0.00  0.00    +0.000 C 
ATOM      2  O   UNL     1       2.178   8.888  17.003  0.00  0.00    +0.000 OA
ATOM      3  N   UNL     1       2.605   7.469  18.787  0.00  0.00    +0.000 N 
ATOM      4  H   UNL     1       2.101   7.169  19.623  0.00  0.00    +0.000 HD
ENDROOT
BRANCH   3   5
ATOM      5  C   UNL     1       3.321   6.476  18.081  0.00  0.00    +0.000 A 
ATOM      6  C   UNL     1       4.429   6.867  17.309  0.00  0.00    +0.000 A 
ATOM      7  C   UNL     1       5.192   5.929  16.614  0.00  0.00    +0.000 A 
ATOM      8  C   UNL     1       4.855   4.583  16.674  0.00  0.00    +0.000 A 
ATOM      9  C   UNL     1       3.762   4.177  17.442  0.00  0.00    +0.000 A 
ATOM     10  C   UNL     1       2.991   5.109  18.165  0.00  0.00    +0.000 A 
BRANCH  10  11
ATOM     11  C   UNL     1       1.812   4.544  18.892  0.00  0.00    +0.000 C 
ATOM     12  O   UNL     1       1.062   3.718  18.397  0.00  0.00    +0.000 OA
BRANCH  11  13
ATOM     13  O   UNL     1       1.667   5.084  20.129  0.00  0.00    +0.000 OA
ATOM     14  C   UNL     1       2.145   4.257  21.195  0.00  0.00    +0.000 C 
ENDBRANCH  11  13
ENDBRANCH  10  11
ENDBRANCH   3   5
BRANCH   1  18
ATOM     15  C   UNL     1      -0.627  10.323  19.320  0.00  0.00    +0.000 C 
ATOM     16  N   UNL     1      -0.514   9.416  20.233  0.00  0.00    +0.000 NA
ATOM     17  O   UNL     1       0.824   8.976  20.244  0.00  0.00    +0.000 OA
ATOM     18  C   UNL     1       1.546   9.633  19.206  0.00  0.00    +0.000 C 
ATOM     19  C   UNL     1       0.612  10.634  18.567  0.00  0.00    +0.000 C 
BRANCH  15  23
ATOM     20  N   UNL     1      -3.837  11.640  18.284  0.00  0.00    +0.000 N 
ATOM     21  N   UNL     1      -3.655  12.415  19.368  0.00  0.00    +0.000 NA
ATOM     22  C   UNL     1      -2.474  12.024  19.847  0.00  0.00    +0.000 A 
ATOM     23  C   UNL     1      -1.889  10.987  19.086  0.00  0.00    +0.000 A 
ATOM     24  C   UNL     1      -2.801  10.764  18.060  0.00  0.00    +0.000 A 
ATOM     25  C   UNL     1      -2.781   9.835  16.898  0.00  0.00    +0.000 C 
BRANCH  20  27
ATOM     26  C   UNL     1      -6.279  11.265  18.164  0.00  0.00    +0.000 C 
ATOM     27  C   UNL     1      -5.036  11.820  17.486  0.00  0.00    +0.000 C 
ENDBRANCH  20  27
ENDBRANCH  15  23
ENDBRANCH   1  18
TORSDOF 6
ENDMDL
MODEL 8
REMARK VINA RESULT:      -6.9      5.816      8.930
REMARK  Name = 
REMARK  9 active torsions:
REMARK  status: ('A' for Active; 'I' for Inactive)
REMARK    1  A    between atoms: C_1  and  C_2
REMARK    2  A    between atoms: C_2  and  N_3
REMARK    3  A    between atoms: C_6  and  C_7
REMARK    4  A    between atoms: C_10  and  C_11
REMARK    5  A    between atoms: N_13  and  C_14
REMARK    6  A    between atoms: C_19  and  C_20
REMARK    7  A    between atoms: C_20  and  O_22
REMARK    8  A    between atoms: O_22  and  C_23
REMARK    9  A    between atoms: C_25  and  C_26
REMARK                            x       y       z     vdW  Elec       q    Type
REMARK                         _______ _______ _______ _____ _____    ______ ____
ROOT
ATOM      1  C   UNL     1       2.245   8.482  18.205  0.00  0.00    +0.000 C 
ATOM      2  O   UNL     1       2.117   8.724  17.004  0.00  0.00    +0.000 OA
ATOM      3  N   UNL     1       2.852   7.349  18.721  0.00  0.00    +0.000 N 
ATOM      4  H   UNL     1       2.486   7.039  19.623  0.00  0.00    +0.000 HD
ENDROOT
BRANCH   3   5
ATOM      5  C   UNL     1       3.504   6.377  17.928  0.00  0.00    +0.000 A 
ATOM      6  C   UNL     1       4.614   6.770  17.160  0.00  0.00    +0.000 A 
ATOM      7  C   UNL     1       5.316   5.850  16.381  0.00  0.00    +0.000 A 
ATOM      8  C   UNL     1       4.914   4.521  16.353  0.00  0.00    +0.000 A 
ATOM      9  C   UNL     1       3.819   4.113  17.115  0.00  0.00    +0.000 A 
ATOM     10  C   UNL     1       3.109   5.025  17.922  0.00  0.00    +0.000 A 
BRANCH  10  11
ATOM     11  C   UNL     1       1.919   4.465  18.634  0.00  0.00    +0.000 C 
ATOM     12  O   UNL     1       1.570   4.845  19.740  0.00  0.00    +0.000 OA
BRANCH  11  13
ATOM     13  O   UNL     1       1.314   3.479  17.924  0.00  0.00    +0.000 OA
ATOM     14  C   UNL     1       0.828   2.391  18.716  0.00  0.00    +0.000 C 
ENDBRANCH  11  13
ENDBRANCH  10  11
ENDBRANCH   3   5
BRANCH   1  18
ATOM     15  C   UNL     1      -0.353  10.275  19.514  0.00  0.00    +0.000 C 
ATOM     16  N   UNL     1      -0.249   9.326  20.385  0.00  0.00    +0.000 NA
ATOM     17  O   UNL     1       1.061   8.814  20.315  0.00  0.00    +0.000 OA
ATOM     18  C   UNL     1       1.770   9.472  19.269  0.00  0.00    +0.000 C 
ATOM     19  C   UNL     1       0.865  10.548  18.714  0.00  0.00    +0.000 C 
BRANCH  15  23
ATOM     20  N   UNL     1      -3.555  11.766  18.722  0.00  0.00    +0.000 N 
ATOM     21  N   UNL     1      -3.214  12.579  19.737  0.00  0.00    +0.000 NA
ATOM     22  C   UNL     1      -2.019  12.129  20.120  0.00  0.00    +0.000 A 
ATOM     23  C   UNL     1      -1.584  11.015  19.366  0.00  0.00    +0.000 A 
ATOM     24  C   UNL     1      -2.608  10.808  18.448  0.00  0.00    +0.000 A 
ATOM     25  C   UNL     1      -2.768   9.822  17.345  0.00  0.00    +0.000 C 
BRANCH  20  27
ATOM     26  C   UNL     1      -5.942  12.359  18.987  0.00  0.00    +0.000 C 
ATOM     27  C   UNL     1      -4.815  11.993  18.036  0.00  0.00    +0.000 C 
ENDBRANCH  20  27
ENDBRANCH  15  23
ENDBRANCH   1  18
TORSDOF 6
ENDMDL
MODEL 9
REMARK VINA RESULT:      -6.9      5.430      8.387
REMARK  Name = 
REMARK  9 active torsions:
REMARK  status: ('A' for Active; 'I' for Inactive)
REMARK    1  A    between atoms: C_1  and  C_2
REMARK    2  A    between atoms: C_2  and  N_3
REMARK    3  A    between atoms: C_6  and  C_7
REMARK    4  A    between atoms: C_10  and  C_11
REMARK    5  A    between atoms: N_13  and  C_14
REMARK    6  A    between atoms: C_19  and  C_20
REMARK    7  A    between atoms: C_20  and  O_22
REMARK    8  A    between atoms: O_22  and  C_23
REMARK    9  A    between atoms: C_25  and  C_26
REMARK                            x       y       z     vdW  Elec       q    Type
REMARK                         _______ _______ _______ _____ _____    ______ ____
ROOT
ATOM      1  C   UNL     1       2.302   7.651  18.648  0.00  0.00    +0.000 C 
ATOM      2  O   UNL     1       2.202   7.541  19.870  0.00  0.00    +0.000 OA
ATOM      3  N   UNL     1       2.688   6.630  17.793  0.00  0.00    +0.000 N 
ATOM      4  H   UNL     1       3.179   6.940  16.952  0.00  0.00    +0.000 HD
ENDROOT
BRANCH   3   5
ATOM      5  C   UNL     1       2.909   5.299  18.210  0.00  0.00    +0.000 A 
ATOM      6  C   UNL     1       1.805   4.436  18.320  0.00  0.00    +0.000 A 
ATOM      7  C   UNL     1       1.964   3.103  18.698  0.00  0.00    +0.000 A 
ATOM      8  C   UNL     1       3.233   2.612  18.978  0.00  0.00    +0.000 A 
ATOM      9  C   UNL     1       4.341   3.452  18.865  0.00  0.00    +0.000 A 
ATOM     10  C   UNL     1       4.201   4.797  18.467  0.00  0.00    +0.000 A 
BRANCH  10  11
ATOM     11  C   UNL     1       5.463   5.600  18.451  0.00  0.00    +0.000 C 
ATOM     12  O   UNL     1       5.657   6.513  17.666  0.00  0.00    +0.000 OA
BRANCH  11  13
ATOM     13  O   UNL     1       6.356   5.167  19.377  0.00  0.00    +0.000 OA
ATOM     14  C   UNL     1       7.667   5.725  19.241  0.00  0.00    +0.000 C 
ENDBRANCH  11  13
ENDBRANCH  10  11
ENDBRANCH   3   5
BRANCH   1  18
ATOM     15  C   UNL     1       0.167  10.307  18.405  0.00  0.00    +0.000 C 
ATOM     16  N   UNL     1       1.173  10.858  19.000  0.00  0.00    +0.000 NA
ATOM     17  O   UNL     1       2.319  10.092  18.713  0.00  0.00    +0.000 OA
ATOM     18  C   UNL     1       1.947   8.956  17.937  0.00  0.00    +0.000 C 
ATOM     19  C   UNL     1       0.472   9.080  17.630  0.00  0.00    +0.000 C 
BRANCH  15  23
ATOM     20  N   UNL     1      -3.253  11.468  18.146  0.00  0.00    +0.000 N 
ATOM     21  N   UNL     1      -2.924  12.101  19.286  0.00  0.00    +0.000 NA
ATOM     22  C   UNL     1      -1.654  11.753  19.490  0.00  0.00    +0.000 A 
ATOM     23  C   UNL     1      -1.155  10.884  18.493  0.00  0.00    +0.000 A 
ATOM     24  C   UNL     1      -2.224  10.725  17.618  0.00  0.00    +0.000 A 
ATOM     25  C   UNL     1      -2.359   9.968  16.344  0.00  0.00    +0.000 C 
BRANCH  20  27
ATOM     26  C   UNL     1      -5.632  10.815  18.322  0.00  0.00    +0.000 C 
ATOM     27  C   UNL     1      -4.586  11.652  17.602  0.00  0.00    +0.000 C 
ENDBRANCH  20  27
ENDBRANCH  15  23
ENDBRANCH   1  18
TORSDOF 6
ENDMDL
