MODEL 1
REMARK VINA RESULT:      -6.5      0.000      0.000
REMARK  Name = 
REMARK  7 active torsions:
REMARK  status: ('A' for Active; 'I' for Inactive)
REMARK    1  A    between atoms: C_2  and  C_3
REMARK    2  A    between atoms: C_2  and  O_11
REMARK    3  A    between atoms: C_3  and  C_4
REMARK    4  A    between atoms: C_4  and  C_5
REMARK    5  A    between atoms: O_11  and  C_12
REMARK    6  A    between atoms: C_12  and  C_13
REMARK    7  A    between atoms: C_13  and  C_14
REMARK                            x       y       z     vdW  Elec       q    Type
REMARK                         _______ _______ _______ _____ _____    ______ ____
ROOT
ATOM      1  O   UNL     1       5.143   1.418  20.348  0.00  0.00    +0.000 OA
ATOM      2  C   UNL     1       4.398   2.182  19.753  0.00  0.00    +0.000 C 
ENDROOT
BRANCH   2   3
ATOM      3  C   UNL     1       4.843   3.328  18.879  0.00  0.00    +0.000 C 
BRANCH   3   4
ATOM      4  C   UNL     1       5.210   4.558  19.694  0.00  0.00    +0.000 C 
BRANCH   4   5
ATOM      5  C   UNL     1       6.050   5.519  18.887  0.00  0.00    +0.000 A 
ATOM      6  C   UNL     1       7.335   5.876  19.315  0.00  0.00    +0.000 A 
ATOM      7  C   UNL     1       8.104   6.780  18.579  0.00  0.00    +0.000 A 
ATOM      8  C   UNL     1       7.593   7.340  17.410  0.00  0.00    +0.000 A 
ATOM      9  C   UNL     1       6.314   6.996  16.978  0.00  0.00    +0.000 A 
ATOM     10  C   UNL     1       5.543   6.093  17.713  0.00  0.00    +0.000 A 
ENDBRANCH   4   5
ENDBRANCH   3   4
ENDBRANCH   2   3
BRANCH   2  11
ATOM     11  O   UNL     1       3.049   2.255  19.920  0.00  0.00    +0.000 OA
BRANCH  11  12
ATOM     12  C   UNL     1       2.276   1.979  18.739  0.00  0.00    +0.000 C 
BRANCH  12  13
ATOM     13  C   UNL     1       1.105   2.960  18.768  0.00  0.00    +0.000 C 
BRANCH  13  14
ATOM     14  C   UNL     1       1.493   4.383  19.044  0.00  0.00    +0.000 A 
ATOM     15  C   UNL     1       1.469   4.881  20.352  0.00  0.00    +0.000 A 
ATOM     16  C   UNL     1       1.863   6.193  20.614  0.00  0.00    +0.000 A 
ATOM     17  C   UNL     1       2.280   7.017  19.570  0.00  0.00    +0.000 A 
ATOM     18  C   UNL     1       2.300   6.531  18.264  0.00  0.00    +0.000 A 
ATOM     19  C   UNL     1       1.906   5.220  18.000  0.00  0.00    +0.000 A 
ENDBRANCH  13  14
ENDBRANCH  12  13
ENDBRANCH  11  12
ENDBRANCH   2  11
TORSDOF 7
ENDMDL
MODEL 2
REMARK VINA RESULT:      -6.4      1.437      4.157
REMARK  Name = 
REMARK  7 active torsions:
REMARK  status: ('A' for Active; 'I' for Inactive)
REMARK    1  A    between atoms: C_2  and  C_3
REMARK    2  A    between atoms: C_2  and  O_11
REMARK    3  A    between atoms: C_3  and  C_4
REMARK    4  A    between atoms: C_4  and  C_5
REMARK    5  A    between atoms: O_11  and  C_12
REMARK    6  A    between atoms: C_12  and  C_13
REMARK    7  A    between atoms: C_13  and  C_14
REMARK                            x       y       z     vdW  Elec       q    Type
REMARK                         _______ _______ _______ _____ _____    ______ ____
ROOT
ATOM      1  O   UNL     1       2.398   3.033  21.721  0.00  0.00    +0.000 OA
ATOM      2  C   UNL     1       2.137   3.300  20.557  0.00  0.00    +0.000 C 
ENDROOT
BRANCH   2   3
ATOM      3  C   UNL     1       1.495   4.579  20.081  0.00  0.00    +0.000 C 
BRANCH   3   4
ATOM      4  C   UNL     1       2.152   5.808  20.688  0.00  0.00    +0.000 C 
BRANCH   4   5
ATOM      5  C   UNL     1       2.056   6.995  19.759  0.00  0.00    +0.000 A 
ATOM      6  C   UNL     1       2.579   6.930  18.461  0.00  0.00    +0.000 A 
ATOM      7  C   UNL     1       2.508   8.034  17.610  0.00  0.00    +0.000 A 
ATOM      8  C   UNL     1       1.919   9.218  18.050  0.00  0.00    +0.000 A 
ATOM      9  C   UNL     1       1.401   9.297  19.342  0.00  0.00    +0.000 A 
ATOM     10  C   UNL     1       1.472   8.193  20.195  0.00  0.00    +0.000 A 
ENDBRANCH   4   5
ENDBRANCH   3   4
ENDBRANCH   2   3
BRANCH   2  11
ATOM     11  O   UNL     1       2.202   2.426  19.516  0.00  0.00    +0.000 OA
BRANCH  11  12
ATOM     12  C   UNL     1       3.534   2.112  19.072  0.00  0.00    +0.000 C 
BRANCH  12  13
ATOM     13  C   UNL     1       3.706   2.825  17.731  0.00  0.00    +0.000 C 
BRANCH  13  14
ATOM     14  C   UNL     1       4.633   4.005  17.770  0.00  0.00    +0.000 A 
ATOM     15  C   UNL     1       5.319   4.325  18.947  0.00  0.00    +0.000 A 
ATOM     16  C   UNL     1       6.208   5.400  18.975  0.00  0.00    +0.000 A 
ATOM     17  C   UNL     1       6.412   6.164  17.827  0.00  0.00    +0.000 A 
ATOM     18  C   UNL     1       5.727   5.857  16.654  0.00  0.00    +0.000 A 
ATOM     19  C   UNL     1       4.838   4.783  16.624  0.00  0.00    +0.000 A 
ENDBRANCH  13  14
ENDBRANCH  12  13
ENDBRANCH  11  12
ENDBRANCH   2  11
TORSDOF 7
ENDMDL
MODEL 3
REMARK VINA RESULT:      -6.4      2.102      4.021
REMARK  Name = 
REMARK  7 active torsions:
REMARK  status: ('A' for Active; 'I' for Inactive)
REMARK    1  A    between atoms: C_2  and  C_3
REMARK    2  A    between atoms: C_2  and  O_11
REMARK    3  A    between atoms: C_3  and  C_4
REMARK    4  A    between atoms: C_4  and  C_5
REMARK    5  A    between atoms: O_11  and  C_12
REMARK    6  A    between atoms: C_12  and  C_13
REMARK    7  A    between atoms: C_13  and  C_14
REMARK                            x       y       z     vdW  Elec       q    Type
REMARK                         _______ _______ _______ _____ _____    ______ ____
ROOT
ATOM      1  O   UNL     1       1.687   8.058  20.515  0.00  0.00    +0.000 OA
ATOM      2  C   UNL     1       2.078   7.134  19.817  0.00  0.00    +0.000 C 
ENDROOT
BRANCH   2   3
ATOM      3  C   UNL     1       2.946   7.276  18.591  0.00  0.00    +0.000 C 
BRANCH   3   4
ATOM      4  C   UNL     1       2.953   6.011  17.747  0.00  0.00    +0.000 C 
BRANCH   4   5
ATOM      5  C   UNL     1       4.351   5.459  17.602  0.00  0.00    +0.000 A 
ATOM      6  C   UNL     1       4.743   4.809  16.424  0.00  0.00    +0.000 A 
ATOM      7  C   UNL     1       6.029   4.280  16.299  0.00  0.00    +0.000 A 
ATOM      8  C   UNL     1       6.935   4.392  17.351  0.00  0.00    +0.000 A 
ATOM      9  C   UNL     1       6.554   5.031  18.530  0.00  0.00    +0.000 A 
ATOM     10  C   UNL     1       5.268   5.559  18.658  0.00  0.00    +0.000 A 
ENDBRANCH   4   5
ENDBRANCH   3   4
ENDBRANCH   2   3
BRANCH   2  11
ATOM     11  O   UNL     1       1.651   5.845  19.907  0.00  0.00    +0.000 OA
BRANCH  11  12
ATOM     12  C   UNL     1       1.901   5.212  21.174  0.00  0.00    +0.000 C 
BRANCH  12  13
ATOM     13  C   UNL     1       1.511   3.745  20.991  0.00  0.00    +0.000 C 
BRANCH  13  14
ATOM     14  C   UNL     1       2.301   3.019  19.942  0.00  0.00    +0.000 A 
ATOM     15  C   UNL     1       3.611   2.604  20.205  0.00  0.00    +0.000 A 
ATOM     16  C   UNL     1       4.333   1.898  19.244  0.00  0.00    +0.000 A 
ATOM     17  C   UNL     1       3.753   1.609  18.010  0.00  0.00    +0.000 A 
ATOM     18  C   UNL     1       2.452   2.026  17.736  0.00  0.00    +0.000 A 
ATOM     19  C   UNL     1       1.728   2.732  18.697  0.00  0.00    +0.000 A 
ENDBRANCH  13  14
ENDBRANCH  12  13
ENDBRANCH  11  12
ENDBRANCH   2  11
TORSDOF 7
ENDMDL
MODEL 4
REMARK VINA RESULT:      -6.4      2.287      4.492
REMARK  Name = 
REMARK  7 active torsions:
REMARK  status: ('A' for Active; 'I' for Inactive)
REMARK    1  A    between atoms: C_2  and  C_3
REMARK    2  A    between atoms: C_2  and  O_11
REMARK    3  A    between atoms: C_3  and  C_4
REMARK    4  A    between atoms: C_4  and  C_5
REMARK    5  A    between atoms: O_11  and  C_12
REMARK    6  A    between atoms: C_12  and  C_13
REMARK    7  A    between atoms: C_13  and  C_14
REMARK                            x       y       z     vdW  Elec       q    Type
REMARK                         _______ _______ _______ _____ _____    ______ ____
ROOT
ATOM      1  O   UNL     1       5.813   4.999  18.829  0.00  0.00    +0.000 OA
ATOM      2  C   UNL     1       4.996   5.039  17.921  0.00  0.00    +0.000 C 
ENDROOT
BRANCH   2   3
ATOM      3  C   UNL     1       3.836   5.999  17.835  0.00  0.00    +0.000 C 
BRANCH   3   4
ATOM      4  C   UNL     1       3.218   6.271  19.197  0.00  0.00    +0.000 C 
BRANCH   4   5
ATOM      5  C   UNL     1       2.346   7.504  19.166  0.00  0.00    +0.000 A 
ATOM      6  C   UNL     1       2.208   8.251  17.989  0.00  0.00    +0.000 A 
ATOM      7  C   UNL     1       1.418   9.402  17.967  0.00  0.00    +0.000 A 
ATOM      8  C   UNL     1       0.762   9.821  19.123  0.00  0.00    +0.000 A 
ATOM      9  C   UNL     1       0.898   9.089  20.301  0.00  0.00    +0.000 A 
ATOM     10  C   UNL     1       1.688   7.938  20.325  0.00  0.00    +0.000 A 
ENDBRANCH   4   5
ENDBRANCH   3   4
ENDBRANCH   2   3
BRANCH   2  11
ATOM     11  O   UNL     1       4.875   4.113  16.931  0.00  0.00    +0.000 OA
BRANCH  11  12
ATOM     12  C   UNL     1       3.575   3.506  16.825  0.00  0.00    +0.000 C 
BRANCH  12  13
ATOM     13  C   UNL     1       3.566   2.358  17.835  0.00  0.00    +0.000 C 
BRANCH  13  14
ATOM     14  C   UNL     1       2.791   2.641  19.088  0.00  0.00    +0.000 A 
ATOM     15  C   UNL     1       1.442   3.008  19.017  0.00  0.00    +0.000 A 
ATOM     16  C   UNL     1       0.712   3.236  20.183  0.00  0.00    +0.000 A 
ATOM     17  C   UNL     1       1.326   3.106  21.427  0.00  0.00    +0.000 A 
ATOM     18  C   UNL     1       2.671   2.749  21.507  0.00  0.00    +0.000 A 
ATOM     19  C   UNL     1       3.403   2.520  20.342  0.00  0.00    +0.000 A 
ENDBRANCH  13  14
ENDBRANCH  12  13
ENDBRANCH  11  12
ENDBRANCH   2  11
TORSDOF 7
ENDMDL
MODEL 5
REMARK VINA RESULT:      -6.4      2.763      5.164
REMARK  Name = 
REMARK  7 active torsions:
REMARK  status: ('A' for Active; 'I' for Inactive)
REMARK    1  A    between atoms: C_2  and  C_3
REMARK    2  A    between atoms: C_2  and  O_11
REMARK    3  A    between atoms: C_3  and  C_4
REMARK    4  A    between atoms: C_4  and  C_5
REMARK    5  A    between atoms: O_11  and  C_12
REMARK    6  A    between atoms: C_12  and  C_13
REMARK    7  A    between atoms: C_13  and  C_14
REMARK                            x       y       z     vdW  Elec       q    Type
REMARK                         _______ _______ _______ _____ _____    ______ ____
ROOT
ATOM      1  O   UNL     1       6.229   4.346  13.970  0.00  0.00    +0.000 OA
ATOM      2  C   UNL     1       6.489   4.195  15.155  0.00  0.00    +0.000 C 
ENDROOT
BRANCH   2   3
ATOM      3  C   UNL     1       5.621   3.468  16.151  0.00  0.00    +0.000 C 
BRANCH   3   4
ATOM      4  C   UNL     1       4.149   3.813  15.985  0.00  0.00    +0.000 C 
BRANCH   4   5
ATOM      5  C   UNL     1       3.323   3.246  17.114  0.00  0.00    +0.000 A 
ATOM      6  C   UNL     1       3.856   2.272  17.969  0.00  0.00    +0.000 A 
ATOM      7  C   UNL     1       3.084   1.733  19.000  0.00  0.00    +0.000 A 
ATOM      8  C   UNL     1       1.770   2.158  19.184  0.00  0.00    +0.000 A 
ATOM      9  C   UNL     1       1.227   3.121  18.336  0.00  0.00    +0.000 A 
ATOM     10  C   UNL     1       1.998   3.661  17.303  0.00  0.00    +0.000 A 
ENDBRANCH   4   5
ENDBRANCH   3   4
ENDBRANCH   2   3
BRANCH   2  11
ATOM     11  O   UNL     1       7.503   4.811  15.821  0.00  0.00    +0.000 OA
BRANCH  11  12
ATOM     12  C   UNL     1       7.513   4.594  17.243  0.00  0.00    +0.000 C 
BRANCH  12  13
ATOM     13  C   UNL     1       7.179   5.945  17.875  0.00  0.00    +0.000 C 
BRANCH  13  14
ATOM     14  C   UNL     1       5.727   6.135  18.203  0.00  0.00    +0.000 A 
ATOM     15  C   UNL     1       5.162   5.487  19.307  0.00  0.00    +0.000 A 
ATOM     16  C   UNL     1       3.821   5.690  19.633  0.00  0.00    +0.000 A 
ATOM     17  C   UNL     1       3.036   6.538  18.854  0.00  0.00    +0.000 A 
ATOM     18  C   UNL     1       3.589   7.181  17.749  0.00  0.00    +0.000 A 
ATOM     19  C   UNL     1       4.929   6.979  17.421  0.00  0.00    +0.000 A 
ENDBRANCH  13  14
ENDBRANCH  12  13
ENDBRANCH  11  12
ENDBRANCH   2  11
TORSDOF 7
ENDMDL
MODEL 6
REMARK VINA RESULT:      -6.4      1.357      4.319
REMARK  Name = 
REMARK  7 active torsions:
REMARK  status: ('A' for Active; 'I' for Inactive)
REMARK    1  A    between atoms: C_2  and  C_3
REMARK    2  A    between atoms: C_2  and  O_11
REMARK    3  A    between atoms: C_3  and  C_4
REMARK    4  A    between atoms: C_4  and  C_5
REMARK    5  A    between atoms: O_11  and  C_12
REMARK    6  A    between atoms: C_12  and  C_13
REMARK    7  A    between atoms: C_13  and  C_14
REMARK                            x       y       z     vdW  Elec       q    Type
REMARK                         _______ _______ _______ _____ _____    ______ ____
ROOT
ATOM      1  O   UNL     1       0.581   2.820  18.337  0.00  0.00    +0.000 OA
ATOM      2  C   UNL     1       1.200   3.074  19.359  0.00  0.00    +0.000 C 
ENDROOT
BRANCH   2   3
ATOM      3  C   UNL     1       0.861   4.177  20.331  0.00  0.00    +0.000 C 
BRANCH   3   4
ATOM      4  C   UNL     1       2.072   5.032  20.670  0.00  0.00    +0.000 C 
BRANCH   4   5
ATOM      5  C   UNL     1       2.054   6.333  19.904  0.00  0.00    +0.000 A 
ATOM      6  C   UNL     1       1.638   7.519  20.522  0.00  0.00    +0.000 A 
ATOM      7  C   UNL     1       1.602   8.718  19.808  0.00  0.00    +0.000 A 
ATOM      8  C   UNL     1       1.978   8.742  18.466  0.00  0.00    +0.000 A 
ATOM      9  C   UNL     1       2.388   7.567  17.839  0.00  0.00    +0.000 A 
ATOM     10  C   UNL     1       2.423   6.367  18.552  0.00  0.00    +0.000 A 
ENDBRANCH   4   5
ENDBRANCH   3   4
ENDBRANCH   2   3
BRANCH   2  11
ATOM     11  O   UNL     1       2.403   2.540  19.703  0.00  0.00    +0.000 OA
BRANCH  11  12
ATOM     12  C   UNL     1       3.299   2.305  18.601  0.00  0.00    +0.000 C 
BRANCH  12  13
ATOM     13  C   UNL     1       4.640   2.908  19.017  0.00  0.00    +0.000 C 
BRANCH  13  14
ATOM     14  C   UNL     1       5.072   4.086  18.194  0.00  0.00    +0.000 A 
ATOM     15  C   UNL     1       5.810   5.122  18.777  0.00  0.00    +0.000 A 
ATOM     16  C   UNL     1       6.243   6.200  18.005  0.00  0.00    +0.000 A 
ATOM     17  C   UNL     1       5.934   6.252  16.647  0.00  0.00    +0.000 A 
ATOM     18  C   UNL     1       5.193   5.229  16.061  0.00  0.00    +0.000 A 
ATOM     19  C   UNL     1       4.760   4.150  16.831  0.00  0.00    +0.000 A 
ENDBRANCH  13  14
ENDBRANCH  12  13
ENDBRANCH  11  12
ENDBRANCH   2  11
TORSDOF 7
ENDMDL
MODEL 7
REMARK VINA RESULT:      -6.3      3.767      5.183
REMARK  Name = 
REMARK  7 active torsions:
REMARK  status: ('A' for Active; 'I' for Inactive)
REMARK    1  A    between atoms: C_2  and  C_3
REMARK    2  A    between atoms: C_2  and  O_11
REMARK    3  A    between atoms: C_3  and  C_4
REMARK    4  A    between atoms: C_4  and  C_5
REMARK    5  A    between atoms: O_11  and  C_12
REMARK    6  A    between atoms: C_12  and  C_13
REMARK    7  A    between atoms: C_13  and  C_14
REMARK                            x       y       z     vdW  Elec       q    Type
REMARK                         _______ _______ _______ _____ _____    ______ ____
ROOT
ATOM      1  O   UNL     1       7.590   6.562  16.495  0.00  0.00    +0.000 OA
ATOM      2  C   UNL     1       6.427   6.336  16.793  0.00  0.00    +0.000 C 
ENDROOT
BRANCH   2   3
ATOM      3  C   UNL     1       5.338   5.953  15.822  0.00  0.00    +0.000 C 
BRANCH   3   4
ATOM      4  C   UNL     1       5.353   4.466  15.505  0.00  0.00    +0.000 C 
BRANCH   4   5
ATOM      5  C   UNL     1       5.862   4.210  14.107  0.00  0.00    +0.000 A 
ATOM      6  C   UNL     1       5.165   3.361  13.237  0.00  0.00    +0.000 A 
ATOM      7  C   UNL     1       5.648   3.108  11.952  0.00  0.00    +0.000 A 
ATOM      8  C   UNL     1       6.835   3.699  11.523  0.00  0.00    +0.000 A 
ATOM      9  C   UNL     1       7.540   4.540  12.382  0.00  0.00    +0.000 A 
ATOM     10  C   UNL     1       7.059   4.793  13.669  0.00  0.00    +0.000 A 
ENDBRANCH   4   5
ENDBRANCH   3   4
ENDBRANCH   2   3
BRANCH   2  11
ATOM     11  O   UNL     1       5.868   6.570  18.011  0.00  0.00    +0.000 OA
BRANCH  11  12
ATOM     12  C   UNL     1       6.060   5.521  18.977  0.00  0.00    +0.000 C 
BRANCH  12  13
ATOM     13  C   UNL     1       4.688   5.275  19.604  0.00  0.00    +0.000 C 
BRANCH  13  14
ATOM     14  C   UNL     1       3.870   4.223  18.914  0.00  0.00    +0.000 A 
ATOM     15  C   UNL     1       2.708   4.575  18.220  0.00  0.00    +0.000 A 
ATOM     16  C   UNL     1       1.966   3.603  17.548  0.00  0.00    +0.000 A 
ATOM     17  C   UNL     1       2.379   2.272  17.572  0.00  0.00    +0.000 A 
ATOM     18  C   UNL     1       3.531   1.912  18.268  0.00  0.00    +0.000 A 
ATOM     19  C   UNL     1       4.274   2.882  18.940  0.00  0.00    +0.000 A 
ENDBRANCH  13  14
ENDBRANCH  12  13
ENDBRANCH  11  12
ENDBRANCH   2  11
TORSDOF 7
ENDMDL
MODEL 8
REMARK VINA RESULT:      -6.3      4.433      8.079
REMARK  Name = 
REMARK  7 active torsions:
REMARK  status: ('A' for Active; 'I' for Inactive)
REMARK    1  A    between atoms: C_2  and  C_3
REMARK    2  A    between atoms: C_2  and  O_11
REMARK    3  A    between atoms: C_3  and  C_4
REMARK    4  A    between atoms: C_4  and  C_5
REMARK    5  A    between atoms: O_11  and  C_12
REMARK    6  A    between atoms: C_12  and  C_13
REMARK    7  A    between atoms: C_13  and  C_14
REMARK                            x       y       z     vdW  Elec       q    Type
REMARK                         _______ _______ _______ _____ _____    ______ ____
ROOT
ATOM      1  O   UNL     1       6.692   7.818  17.011  0.00  0.00    +0.000 OA
ATOM      2  C   UNL     1       7.536   7.322  17.742  0.00  0.00    +0.000 C 
ENDROOT
BRANCH   2   3
ATOM      3  C   UNL     1       7.630   5.858  18.096  0.00  0.00    +0.000 C 
BRANCH   3   4
ATOM      4  C   UNL     1       6.681   5.482  19.223  0.00  0.00    +0.000 C 
BRANCH   4   5
ATOM      5  C   UNL     1       5.329   5.075  18.687  0.00  0.00    +0.000 A 
ATOM      6  C   UNL     1       4.156   5.422  19.369  0.00  0.00    +0.000 A 
ATOM      7  C   UNL     1       2.908   5.028  18.884  0.00  0.00    +0.000 A 
ATOM      8  C   UNL     1       2.820   4.277  17.713  0.00  0.00    +0.000 A 
ATOM      9  C   UNL     1       3.980   3.920  17.029  0.00  0.00    +0.000 A 
ATOM     10  C   UNL     1       5.230   4.313  17.514  0.00  0.00    +0.000 A 
ENDBRANCH   4   5
ENDBRANCH   3   4
ENDBRANCH   2   3
BRANCH   2  11
ATOM     11  O   UNL     1       8.417   8.018  18.511  0.00  0.00    +0.000 OA
BRANCH  11  12
ATOM     12  C   UNL     1       8.483   9.427  18.232  0.00  0.00    +0.000 C 
BRANCH  12  13
ATOM     13  C   UNL     1       9.144  10.065  19.453  0.00  0.00    +0.000 C 
BRANCH  13  14
ATOM     14  C   UNL     1      10.153  11.128  19.129  0.00  0.00    +0.000 A 
ATOM     15  C   UNL     1      10.854  11.773  20.153  0.00  0.00    +0.000 A 
ATOM     16  C   UNL     1      11.817  12.736  19.851  0.00  0.00    +0.000 A 
ATOM     17  C   UNL     1      12.079  13.064  18.522  0.00  0.00    +0.000 A 
ATOM     18  C   UNL     1      11.380  12.433  17.496  0.00  0.00    +0.000 A 
ATOM     19  C   UNL     1      10.417  11.469  17.796  0.00  0.00    +0.000 A 
ENDBRANCH  13  14
ENDBRANCH  12  13
ENDBRANCH  11  12
ENDBRANCH   2  11
TORSDOF 7
ENDMDL
MODEL 9
REMARK VINA RESULT:      -6.2      3.251      4.466
REMARK  Name = 
REMARK  7 active torsions:
REMARK  status: ('A' for Active; 'I' for Inactive)
REMARK    1  A    between atoms: C_2  and  C_3
REMARK    2  A    between atoms: C_2  and  O_11
REMARK    3  A    between atoms: C_3  and  C_4
REMARK    4  A    between atoms: C_4  and  C_5
REMARK    5  A    between atoms: O_11  and  C_12
REMARK    6  A    between atoms: C_12  and  C_13
REMARK    7  A    between atoms: C_13  and  C_14
REMARK                            x       y       z     vdW  Elec       q    Type
REMARK                         _______ _______ _______ _____ _____    ______ ____
ROOT
ATOM      1  O   UNL     1       6.185   4.883  19.246  0.00  0.00    +0.000 OA
ATOM      2  C   UNL     1       5.807   5.350  18.182  0.00  0.00    +0.000 C 
ENDROOT
BRANCH   2   3
ATOM      3  C   UNL     1       6.417   5.053  16.835  0.00  0.00    +0.000 C 
BRANCH   3   4
ATOM      4  C   UNL     1       5.359   4.832  15.765  0.00  0.00    +0.000 C 
BRANCH   4   5
ATOM      5  C   UNL     1       5.989   4.532  14.426  0.00  0.00    +0.000 A 
ATOM      6  C   UNL     1       7.195   5.141  14.051  0.00  0.00    +0.000 A 
ATOM      7  C   UNL     1       7.766   4.878  12.805  0.00  0.00    +0.000 A 
ATOM      8  C   UNL     1       7.135   4.009  11.917  0.00  0.00    +0.000 A 
ATOM      9  C   UNL     1       5.932   3.403  12.276  0.00  0.00    +0.000 A 
ATOM     10  C   UNL     1       5.359   3.665  13.523  0.00  0.00    +0.000 A 
ENDBRANCH   4   5
ENDBRANCH   3   4
ENDBRANCH   2   3
BRANCH   2  11
ATOM     11  O   UNL     1       4.901   6.355  18.042  0.00  0.00    +0.000 OA
BRANCH  11  12
ATOM     12  C   UNL     1       3.817   6.329  18.988  0.00  0.00    +0.000 C 
BRANCH  12  13
ATOM     13  C   UNL     1       2.578   5.917  18.192  0.00  0.00    +0.000 C 
BRANCH  13  14
ATOM     14  C   UNL     1       2.079   4.534  18.495  0.00  0.00    +0.000 A 
ATOM     15  C   UNL     1       2.431   3.460  17.671  0.00  0.00    +0.000 A 
ATOM     16  C   UNL     1       1.996   2.169  17.971  0.00  0.00    +0.000 A 
ATOM     17  C   UNL     1       1.201   1.946  19.094  0.00  0.00    +0.000 A 
ATOM     18  C   UNL     1       0.839   3.011  19.915  0.00  0.00    +0.000 A 
ATOM     19  C   UNL     1       1.273   4.302  19.617  0.00  0.00    +0.000 A 
ENDBRANCH  13  14
ENDBRANCH  12  13
ENDBRANCH  11  12
ENDBRANCH   2  11
TORSDOF 7
ENDMDL
