MODEL 1
REMARK VINA RESULT:      -6.7      0.000      0.000
REMARK  Name = 
REMARK  10 active torsions:
REMARK  status: ('A' for Active; 'I' for Inactive)
REMARK    1  A    between atoms: C_1  and  C_2
REMARK    2  A    between atoms: C_4  and  C_5
REMARK    3  A    between atoms: C_6  and  N_7
REMARK    4  A    between atoms: C_8  and  C_10
REMARK    5  A    between atoms: C_10  and  C_11
REMARK    6  A    between atoms: C_10  and  N_12
REMARK    7  A    between atoms: C_16  and  C_17
REMARK    8  A    between atoms: C_19  and  C_20
REMARK    9  A    between atoms: N_22  and  C_23
REMARK   10  A    between atoms: C_30  and  C_31
REMARK                            x       y       z     vdW  Elec       q    Type
REMARK                         _______ _______ _______ _____ _____    ______ ____
ROOT
ATOM      1  N   UNL     1      -0.873  13.651  21.769  0.00  0.00    +0.000 N 
ATOM      2  C   UNL     1      -1.599  12.900  22.717  0.00  0.00    +0.000 A 
ATOM      3  O   UNL     1      -1.779  11.687  22.661  0.00  0.00    +0.000 OA
ATOM      4  C   UNL     1      -2.211  13.621  23.860  0.00  0.00    +0.000 A 
ATOM      5  C   UNL     1      -1.736  14.813  24.243  0.00  0.00    +0.000 A 
ATOM      6  C   UNL     1      -2.311  15.529  25.423  0.00  0.00    +0.000 C 
ATOM      7  C   UNL     1      -0.674  15.411  23.504  0.00  0.00    +0.000 A 
ATOM      8  C   UNL     1       0.098  16.572  23.683  0.00  0.00    +0.000 A 
ATOM      9  C   UNL     1       0.137  17.590  24.766  0.00  0.00    +0.000 C 
ATOM     10  N   UNL     1       0.919  16.750  22.651  0.00  0.00    +0.000 NA
ATOM     11  N   UNL     1       0.826  15.625  21.883  0.00  0.00    +0.000 N 
ATOM     12  C   UNL     1      -0.248  14.817  22.313  0.00  0.00    +0.000 A 
ENDROOT
BRANCH  11  13
ATOM     13  C   UNL     1       1.843  15.482  20.886  0.00  0.00    +0.000 A 
ATOM     14  C   UNL     1       3.148  15.096  21.183  0.00  0.00    +0.000 A 
ATOM     15  C   UNL     1       4.077  14.885  20.157  0.00  0.00    +0.000 A 
ATOM     16  C   UNL     1       3.736  15.149  18.832  0.00  0.00    +0.000 A 
ATOM     17  C   UNL     1       2.467  15.628  18.530  0.00  0.00    +0.000 A 
ATOM     18  C   UNL     1       1.524  15.790  19.549  0.00  0.00    +0.000 A 
ENDBRANCH  11  13
BRANCH   1  19
ATOM     19  C   UNL     1      -0.601  12.958  20.482  0.00  0.00    +0.000 C 
ATOM     20  C   UNL     1      -1.829  12.205  19.927  0.00  0.00    +0.000 C 
BRANCH  19  22
ATOM     21  N   UNL     1       0.041  10.631  19.959  0.00  0.00    +0.000 N 
ATOM     22  C   UNL     1       0.477  11.833  20.531  0.00  0.00    +0.000 C 
ATOM     23  O   UNL     1       1.537  11.995  21.135  0.00  0.00    +0.000 OA
ATOM     24  H   UNL     1      -0.946  10.561  19.756  0.00  0.00    +0.000 HD
BRANCH  21  30
ATOM     25  C   UNL     1       2.707   5.553  20.034  0.00  0.00    +0.000 C 
ATOM     26  C   UNL     1       2.062   6.904  20.029  0.00  0.00    +0.000 A 
ATOM     27  C   UNL     1       2.226   7.795  18.969  0.00  0.00    +0.000 A 
ATOM     28  C   UNL     1       1.583   9.046  18.962  0.00  0.00    +0.000 A 
ATOM     29  C   UNL     1       1.761   9.926  17.751  0.00  0.00    +0.000 C 
ATOM     30  C   UNL     1       0.748   9.406  20.046  0.00  0.00    +0.000 A 
ATOM     31  C   UNL     1       0.662   8.555  21.165  0.00  0.00    +0.000 A 
ATOM     32  C   UNL     1      -0.009   8.929  22.459  0.00  0.00    +0.000 C 
ATOM     33  C   UNL     1       1.285   7.298  21.121  0.00  0.00    +0.000 A 
ENDBRANCH  21  30
ENDBRANCH  19  22
ENDBRANCH   1  19
TORSDOF 4
ENDMDL
MODEL 2
REMARK VINA RESULT:      -6.6      2.610      5.665
REMARK  Name = 
REMARK  10 active torsions:
REMARK  status: ('A' for Active; 'I' for Inactive)
REMARK    1  A    between atoms: C_1  and  C_2
REMARK    2  A    between atoms: C_4  and  C_5
REMARK    3  A    between atoms: C_6  and  N_7
REMARK    4  A    between atoms: C_8  and  C_10
REMARK    5  A    between atoms: C_10  and  C_11
REMARK    6  A    between atoms: C_10  and  N_12
REMARK    7  A    between atoms: C_16  and  C_17
REMARK    8  A    between atoms: C_19  and  C_20
REMARK    9  A    between atoms: N_22  and  C_23
REMARK   10  A    between atoms: C_30  and  C_31
REMARK                            x       y       z     vdW  Elec       q    Type
REMARK                         _______ _______ _______ _____ _____    ______ ____
ROOT
ATOM      1  N   UNL     1      -2.258  12.511  22.145  0.00  0.00    +0.000 N 
ATOM      2  C   UNL     1      -1.814  13.409  23.137  0.00  0.00    +0.000 A 
ATOM      3  O   UNL     1      -0.656  13.495  23.538  0.00  0.00    +0.000 OA
ATOM      4  C   UNL     1      -2.814  14.308  23.765  0.00  0.00    +0.000 A 
ATOM      5  C   UNL     1      -3.958  14.597  23.134  0.00  0.00    +0.000 A 
ATOM      6  C   UNL     1      -4.953  15.538  23.732  0.00  0.00    +0.000 C 
ATOM      7  C   UNL     1      -4.234  13.984  21.876  0.00  0.00    +0.000 A 
ATOM      8  C   UNL     1      -5.264  14.134  20.931  0.00  0.00    +0.000 A 
ATOM      9  C   UNL     1      -6.432  15.049  20.861  0.00  0.00    +0.000 C 
ATOM     10  N   UNL     1      -5.122  13.252  19.943  0.00  0.00    +0.000 NA
ATOM     11  N   UNL     1      -3.912  12.649  20.134  0.00  0.00    +0.000 N 
ATOM     12  C   UNL     1      -3.381  12.988  21.396  0.00  0.00    +0.000 A 
ENDROOT
BRANCH  11  13
ATOM     13  C   UNL     1      -3.431  11.883  19.024  0.00  0.00    +0.000 A 
ATOM     14  C   UNL     1      -2.151  12.034  18.495  0.00  0.00    +0.000 A 
ATOM     15  C   UNL     1      -1.704  11.195  17.467  0.00  0.00    +0.000 A 
ATOM     16  C   UNL     1      -2.565  10.260  16.895  0.00  0.00    +0.000 A 
ATOM     17  C   UNL     1      -3.876  10.164  17.348  0.00  0.00    +0.000 A 
ATOM     18  C   UNL     1      -4.306  10.967  18.408  0.00  0.00    +0.000 A 
ENDBRANCH  11  13
BRANCH   1  19
ATOM     19  C   UNL     1      -1.318  11.407  21.819  0.00  0.00    +0.000 C 
ATOM     20  C   UNL     1      -1.064  10.455  23.007  0.00  0.00    +0.000 C 
BRANCH  19  22
ATOM     21  N   UNL     1       0.160  12.926  20.551  0.00  0.00    +0.000 N 
ATOM     22  C   UNL     1       0.130  11.839  21.433  0.00  0.00    +0.000 C 
ATOM     23  O   UNL     1       1.106  11.182  21.792  0.00  0.00    +0.000 OA
ATOM     24  H   UNL     1      -0.718  13.184  20.124  0.00  0.00    +0.000 HD
BRANCH  21  30
ATOM     25  C   UNL     1       4.704  15.079  17.789  0.00  0.00    +0.000 C 
ATOM     26  C   UNL     1       3.554  14.499  18.553  0.00  0.00    +0.000 A 
ATOM     27  C   UNL     1       2.995  15.152  19.652  0.00  0.00    +0.000 A 
ATOM     28  C   UNL     1       1.891  14.613  20.336  0.00  0.00    +0.000 A 
ATOM     29  C   UNL     1       1.306  15.410  21.474  0.00  0.00    +0.000 C 
ATOM     30  C   UNL     1       1.330  13.390  19.899  0.00  0.00    +0.000 A 
ATOM     31  C   UNL     1       1.954  12.676  18.857  0.00  0.00    +0.000 A 
ATOM     32  C   UNL     1       1.586  11.272  18.458  0.00  0.00    +0.000 C 
ATOM     33  C   UNL     1       3.030  13.263  18.171  0.00  0.00    +0.000 A 
ENDBRANCH  21  30
ENDBRANCH  19  22
ENDBRANCH   1  19
TORSDOF 4
ENDMDL
MODEL 3
REMARK VINA RESULT:      -6.6      3.214      6.548
REMARK  Name = 
REMARK  10 active torsions:
REMARK  status: ('A' for Active; 'I' for Inactive)
REMARK    1  A    between atoms: C_1  and  C_2
REMARK    2  A    between atoms: C_4  and  C_5
REMARK    3  A    between atoms: C_6  and  N_7
REMARK    4  A    between atoms: C_8  and  C_10
REMARK    5  A    between atoms: C_10  and  C_11
REMARK    6  A    between atoms: C_10  and  N_12
REMARK    7  A    between atoms: C_16  and  C_17
REMARK    8  A    between atoms: C_19  and  C_20
REMARK    9  A    between atoms: N_22  and  C_23
REMARK   10  A    between atoms: C_30  and  C_31
REMARK                            x       y       z     vdW  Elec       q    Type
REMARK                         _______ _______ _______ _____ _____    ______ ____
ROOT
ATOM      1  N   UNL     1      -2.785  12.666  20.762  0.00  0.00    +0.000 N 
ATOM      2  C   UNL     1      -2.669  13.782  21.617  0.00  0.00    +0.000 A 
ATOM      3  O   UNL     1      -1.613  14.340  21.902  0.00  0.00    +0.000 OA
ATOM      4  C   UNL     1      -3.904  14.318  22.239  0.00  0.00    +0.000 A 
ATOM      5  C   UNL     1      -5.100  14.082  21.686  0.00  0.00    +0.000 A 
ATOM      6  C   UNL     1      -6.349  14.655  22.274  0.00  0.00    +0.000 C 
ATOM      7  C   UNL     1      -5.181  13.258  20.525  0.00  0.00    +0.000 A 
ATOM      8  C   UNL     1      -6.233  12.896  19.665  0.00  0.00    +0.000 A 
ATOM      9  C   UNL     1      -7.663  13.297  19.610  0.00  0.00    +0.000 C 
ATOM     10  N   UNL     1      -5.813  12.013  18.761  0.00  0.00    +0.000 NA
ATOM     11  N   UNL     1      -4.458  11.929  18.903  0.00  0.00    +0.000 N 
ATOM     12  C   UNL     1      -4.038  12.596  20.073  0.00  0.00    +0.000 A 
ENDROOT
BRANCH  11  13
ATOM     13  C   UNL     1      -3.775  11.263  17.836  0.00  0.00    +0.000 A 
ATOM     14  C   UNL     1      -2.728  10.367  18.047  0.00  0.00    +0.000 A 
ATOM     15  C   UNL     1      -2.156   9.677  16.971  0.00  0.00    +0.000 A 
ATOM     16  C   UNL     1      -2.563   9.945  15.666  0.00  0.00    +0.000 A 
ATOM     17  C   UNL     1      -3.539  10.907  15.432  0.00  0.00    +0.000 A 
ATOM     18  C   UNL     1      -4.144  11.559  16.509  0.00  0.00    +0.000 A 
ENDBRANCH  11  13
BRANCH   1  19
ATOM     19  C   UNL     1      -1.513  11.958  20.464  0.00  0.00    +0.000 C 
ATOM     20  C   UNL     1      -0.727  11.564  21.733  0.00  0.00    +0.000 C 
BRANCH  19  22
ATOM     21  N   UNL     1       0.788  12.842  20.310  0.00  0.00    +0.000 N 
ATOM     22  C   UNL     1      -0.452  12.773  19.664  0.00  0.00    +0.000 C 
ATOM     23  O   UNL     1      -0.759  13.379  18.637  0.00  0.00    +0.000 OA
ATOM     24  H   UNL     1       0.811  12.536  21.272  0.00  0.00    +0.000 HD
BRANCH  21  30
ATOM     25  C   UNL     1       4.873  16.476  18.574  0.00  0.00    +0.000 C 
ATOM     26  C   UNL     1       3.845  15.505  19.067  0.00  0.00    +0.000 A 
ATOM     27  C   UNL     1       3.152  15.707  20.260  0.00  0.00    +0.000 A 
ATOM     28  C   UNL     1       2.162  14.805  20.690  0.00  0.00    +0.000 A 
ATOM     29  C   UNL     1       1.415  15.128  21.959  0.00  0.00    +0.000 C 
ATOM     30  C   UNL     1       1.856  13.676  19.895  0.00  0.00    +0.000 A 
ATOM     31  C   UNL     1       2.624  13.412  18.743  0.00  0.00    +0.000 A 
ATOM     32  C   UNL     1       2.542  12.136  17.949  0.00  0.00    +0.000 C 
ATOM     33  C   UNL     1       3.577  14.354  18.324  0.00  0.00    +0.000 A 
ENDBRANCH  21  30
ENDBRANCH  19  22
ENDBRANCH   1  19
TORSDOF 4
ENDMDL
MODEL 4
REMARK VINA RESULT:      -6.5      2.849      4.536
REMARK  Name = 
REMARK  10 active torsions:
REMARK  status: ('A' for Active; 'I' for Inactive)
REMARK    1  A    between atoms: C_1  and  C_2
REMARK    2  A    between atoms: C_4  and  C_5
REMARK    3  A    between atoms: C_6  and  N_7
REMARK    4  A    between atoms: C_8  and  C_10
REMARK    5  A    between atoms: C_10  and  C_11
REMARK    6  A    between atoms: C_10  and  N_12
REMARK    7  A    between atoms: C_16  and  C_17
REMARK    8  A    between atoms: C_19  and  C_20
REMARK    9  A    between atoms: N_22  and  C_23
REMARK   10  A    between atoms: C_30  and  C_31
REMARK                            x       y       z     vdW  Elec       q    Type
REMARK                         _______ _______ _______ _____ _____    ______ ____
ROOT
ATOM      1  N   UNL     1      -3.497  13.348  23.291  0.00  0.00    +0.000 N 
ATOM      2  C   UNL     1      -4.413  12.826  24.228  0.00  0.00    +0.000 A 
ATOM      3  O   UNL     1      -4.139  12.538  25.390  0.00  0.00    +0.000 OA
ATOM      4  C   UNL     1      -5.807  12.584  23.783  0.00  0.00    +0.000 A 
ATOM      5  C   UNL     1      -6.305  13.236  22.725  0.00  0.00    +0.000 A 
ATOM      6  C   UNL     1      -7.723  13.038  22.294  0.00  0.00    +0.000 C 
ATOM      7  C   UNL     1      -5.462  14.122  21.993  0.00  0.00    +0.000 A 
ATOM      8  C   UNL     1      -5.684  15.008  20.923  0.00  0.00    +0.000 A 
ATOM      9  C   UNL     1      -6.915  15.402  20.190  0.00  0.00    +0.000 C 
ATOM     10  N   UNL     1      -4.537  15.554  20.525  0.00  0.00    +0.000 NA
ATOM     11  N   UNL     1      -3.592  15.178  21.436  0.00  0.00    +0.000 N 
ATOM     12  C   UNL     1      -4.101  14.185  22.299  0.00  0.00    +0.000 A 
ENDROOT
BRANCH  11  13
ATOM     13  C   UNL     1      -2.355  15.895  21.362  0.00  0.00    +0.000 A 
ATOM     14  C   UNL     1      -1.327  15.548  20.488  0.00  0.00    +0.000 A 
ATOM     15  C   UNL     1      -0.176  16.339  20.395  0.00  0.00    +0.000 A 
ATOM     16  C   UNL     1      -0.002  17.432  21.242  0.00  0.00    +0.000 A 
ATOM     17  C   UNL     1      -0.976  17.733  22.186  0.00  0.00    +0.000 A 
ATOM     18  C   UNL     1      -2.148  16.973  22.244  0.00  0.00    +0.000 A 
ENDBRANCH  11  13
BRANCH   1  19
ATOM     19  C   UNL     1      -2.064  13.229  23.668  0.00  0.00    +0.000 C 
ATOM     20  C   UNL     1      -1.444  14.567  24.124  0.00  0.00    +0.000 C 
BRANCH  19  22
ATOM     21  N   UNL     1      -1.555  11.679  21.814  0.00  0.00    +0.000 N 
ATOM     22  C   UNL     1      -1.096  12.793  22.526  0.00  0.00    +0.000 C 
ATOM     23  O   UNL     1       0.005  13.327  22.389  0.00  0.00    +0.000 OA
ATOM     24  H   UNL     1      -2.334  11.177  22.216  0.00  0.00    +0.000 HD
BRANCH  21  30
ATOM     25  C   UNL     1       1.870   8.927  18.125  0.00  0.00    +0.000 C 
ATOM     26  C   UNL     1       0.938   9.600  19.085  0.00  0.00    +0.000 A 
ATOM     27  C   UNL     1       0.865   9.225  20.427  0.00  0.00    +0.000 A 
ATOM     28  C   UNL     1       0.012   9.892  21.324  0.00  0.00    +0.000 A 
ATOM     29  C   UNL     1       0.037   9.468  22.771  0.00  0.00    +0.000 C 
ATOM     30  C   UNL     1      -0.781  10.969  20.862  0.00  0.00    +0.000 A 
ATOM     31  C   UNL     1      -0.788  11.283  19.489  0.00  0.00    +0.000 A 
ATOM     32  C   UNL     1      -1.749  12.249  18.850  0.00  0.00    +0.000 C 
ATOM     33  C   UNL     1       0.104  10.622  18.629  0.00  0.00    +0.000 A 
ENDBRANCH  21  30
ENDBRANCH  19  22
ENDBRANCH   1  19
TORSDOF 4
ENDMDL
MODEL 5
REMARK VINA RESULT:      -6.5      3.096      6.212
REMARK  Name = 
REMARK  10 active torsions:
REMARK  status: ('A' for Active; 'I' for Inactive)
REMARK    1  A    between atoms: C_1  and  C_2
REMARK    2  A    between atoms: C_4  and  C_5
REMARK    3  A    between atoms: C_6  and  N_7
REMARK    4  A    between atoms: C_8  and  C_10
REMARK    5  A    between atoms: C_10  and  C_11
REMARK    6  A    between atoms: C_10  and  N_12
REMARK    7  A    between atoms: C_16  and  C_17
REMARK    8  A    between atoms: C_19  and  C_20
REMARK    9  A    between atoms: N_22  and  C_23
REMARK   10  A    between atoms: C_30  and  C_31
REMARK                            x       y       z     vdW  Elec       q    Type
REMARK                         _______ _______ _______ _____ _____    ______ ____
ROOT
ATOM      1  N   UNL     1      -3.023  12.837  21.515  0.00  0.00    +0.000 N 
ATOM      2  C   UNL     1      -2.981  13.940  22.392  0.00  0.00    +0.000 A 
ATOM      3  O   UNL     1      -1.955  14.430  22.855  0.00  0.00    +0.000 OA
ATOM      4  C   UNL     1      -4.267  14.552  22.807  0.00  0.00    +0.000 A 
ATOM      5  C   UNL     1      -5.367  14.393  22.061  0.00  0.00    +0.000 A 
ATOM      6  C   UNL     1      -6.659  15.043  22.441  0.00  0.00    +0.000 C 
ATOM      7  C   UNL     1      -5.305  13.579  20.892  0.00  0.00    +0.000 A 
ATOM      8  C   UNL     1      -6.220  13.286  19.865  0.00  0.00    +0.000 A 
ATOM      9  C   UNL     1      -7.592  13.778  19.579  0.00  0.00    +0.000 C 
ATOM     10  N   UNL     1      -5.710  12.382  19.032  0.00  0.00    +0.000 NA
ATOM     11  N   UNL     1      -4.405  12.212  19.395  0.00  0.00    +0.000 N 
ATOM     12  C   UNL     1      -4.145  12.848  20.627  0.00  0.00    +0.000 A 
ENDROOT
BRANCH  11  13
ATOM     13  C   UNL     1      -3.597  11.506  18.447  0.00  0.00    +0.000 A 
ATOM     14  C   UNL     1      -2.455  10.792  18.806  0.00  0.00    +0.000 A 
ATOM     15  C   UNL     1      -1.754  10.046  17.851  0.00  0.00    +0.000 A 
ATOM     16  C   UNL     1      -2.133  10.085  16.510  0.00  0.00    +0.000 A 
ATOM     17  C   UNL     1      -3.211  10.871  16.122  0.00  0.00    +0.000 A 
ATOM     18  C   UNL     1      -3.942  11.574  17.083  0.00  0.00    +0.000 A 
ENDBRANCH  11  13
BRANCH   1  19
ATOM     19  C   UNL     1      -1.765  12.050  21.423  0.00  0.00    +0.000 C 
ATOM     20  C   UNL     1      -1.373  11.376  22.755  0.00  0.00    +0.000 C 
BRANCH  19  22
ATOM     21  N   UNL     1      -0.464  13.328  19.758  0.00  0.00    +0.000 N 
ATOM     22  C   UNL     1      -0.479  12.861  21.078  0.00  0.00    +0.000 C 
ATOM     23  O   UNL     1       0.452  12.946  21.878  0.00  0.00    +0.000 OA
ATOM     24  H   UNL     1      -1.163  12.946  19.137  0.00  0.00    +0.000 HD
BRANCH  21  30
ATOM     25  C   UNL     1       4.301  15.596  17.508  0.00  0.00    +0.000 C 
ATOM     26  C   UNL     1       3.037  14.994  18.041  0.00  0.00    +0.000 A 
ATOM     27  C   UNL     1       2.838  13.614  18.080  0.00  0.00    +0.000 A 
ATOM     28  C   UNL     1       1.661  13.062  18.618  0.00  0.00    +0.000 A 
ATOM     29  C   UNL     1       1.549  11.560  18.681  0.00  0.00    +0.000 C 
ATOM     30  C   UNL     1       0.663  13.921  19.137  0.00  0.00    +0.000 A 
ATOM     31  C   UNL     1       0.814  15.315  19.005  0.00  0.00    +0.000 A 
ATOM     32  C   UNL     1      -0.270  16.314  19.313  0.00  0.00    +0.000 C 
ATOM     33  C   UNL     1       2.018  15.831  18.499  0.00  0.00    +0.000 A 
ENDBRANCH  21  30
ENDBRANCH  19  22
ENDBRANCH   1  19
TORSDOF 4
ENDMDL
MODEL 6
REMARK VINA RESULT:      -6.5      3.137      6.437
REMARK  Name = 
REMARK  10 active torsions:
REMARK  status: ('A' for Active; 'I' for Inactive)
REMARK    1  A    between atoms: C_1  and  C_2
REMARK    2  A    between atoms: C_4  and  C_5
REMARK    3  A    between atoms: C_6  and  N_7
REMARK    4  A    between atoms: C_8  and  C_10
REMARK    5  A    between atoms: C_10  and  C_11
REMARK    6  A    between atoms: C_10  and  N_12
REMARK    7  A    between atoms: C_16  and  C_17
REMARK    8  A    between atoms: C_19  and  C_20
REMARK    9  A    between atoms: N_22  and  C_23
REMARK   10  A    between atoms: C_30  and  C_31
REMARK                            x       y       z     vdW  Elec       q    Type
REMARK                         _______ _______ _______ _____ _____    ______ ____
ROOT
ATOM      1  N   UNL     1      -2.650  12.655  20.846  0.00  0.00    +0.000 N 
ATOM      2  C   UNL     1      -2.544  13.755  21.721  0.00  0.00    +0.000 A 
ATOM      3  O   UNL     1      -1.502  14.358  21.967  0.00  0.00    +0.000 OA
ATOM      4  C   UNL     1      -3.770  14.215  22.418  0.00  0.00    +0.000 A 
ATOM      5  C   UNL     1      -4.980  13.932  21.921  0.00  0.00    +0.000 A 
ATOM      6  C   UNL     1      -6.223  14.430  22.586  0.00  0.00    +0.000 C 
ATOM      7  C   UNL     1      -5.080  13.132  20.745  0.00  0.00    +0.000 A 
ATOM      8  C   UNL     1      -6.157  12.738  19.931  0.00  0.00    +0.000 A 
ATOM      9  C   UNL     1      -7.605  13.069  19.957  0.00  0.00    +0.000 C 
ATOM     10  N   UNL     1      -5.742  11.898  18.985  0.00  0.00    +0.000 NA
ATOM     11  N   UNL     1      -4.378  11.878  19.055  0.00  0.00    +0.000 N 
ATOM     12  C   UNL     1      -3.931  12.539  20.219  0.00  0.00    +0.000 A 
ENDROOT
BRANCH  11  13
ATOM     13  C   UNL     1      -3.719  11.271  17.939  0.00  0.00    +0.000 A 
ATOM     14  C   UNL     1      -2.601  10.450  18.072  0.00  0.00    +0.000 A 
ATOM     15  C   UNL     1      -2.053   9.810  16.954  0.00  0.00    +0.000 A 
ATOM     16  C   UNL     1      -2.559  10.060  15.680  0.00  0.00    +0.000 A 
ATOM     17  C   UNL     1      -3.613  10.953  15.521  0.00  0.00    +0.000 A 
ATOM     18  C   UNL     1      -4.193  11.552  16.642  0.00  0.00    +0.000 A 
ENDBRANCH  11  13
BRANCH   1  19
ATOM     19  C   UNL     1      -1.362  12.017  20.467  0.00  0.00    +0.000 C 
ATOM     20  C   UNL     1      -0.501  11.620  21.684  0.00  0.00    +0.000 C 
BRANCH  19  22
ATOM     21  N   UNL     1       0.876  13.040  20.257  0.00  0.00    +0.000 N 
ATOM     22  C   UNL     1      -0.378  12.907  19.648  0.00  0.00    +0.000 C 
ATOM     23  O   UNL     1      -0.753  13.511  18.643  0.00  0.00    +0.000 OA
ATOM     24  H   UNL     1       0.950  12.720  21.211  0.00  0.00    +0.000 HD
BRANCH  21  30
ATOM     25  C   UNL     1       5.183  16.455  18.612  0.00  0.00    +0.000 C 
ATOM     26  C   UNL     1       4.027  15.582  18.995  0.00  0.00    +0.000 A 
ATOM     27  C   UNL     1       3.773  14.372  18.350  0.00  0.00    +0.000 A 
ATOM     28  C   UNL     1       2.706  13.545  18.746  0.00  0.00    +0.000 A 
ATOM     29  C   UNL     1       2.535  12.224  18.040  0.00  0.00    +0.000 C 
ATOM     30  C   UNL     1       1.880  13.943  19.823  0.00  0.00    +0.000 A 
ATOM     31  C   UNL     1       2.068  15.210  20.409  0.00  0.00    +0.000 A 
ATOM     32  C   UNL     1       1.121  15.830  21.401  0.00  0.00    +0.000 C 
ATOM     33  C   UNL     1       3.167  15.991  20.015  0.00  0.00    +0.000 A 
ENDBRANCH  21  30
ENDBRANCH  19  22
ENDBRANCH   1  19
TORSDOF 4
ENDMDL
MODEL 7
REMARK VINA RESULT:      -6.5      3.458      7.182
REMARK  Name = 
REMARK  10 active torsions:
REMARK  status: ('A' for Active; 'I' for Inactive)
REMARK    1  A    between atoms: C_1  and  C_2
REMARK    2  A    between atoms: C_4  and  C_5
REMARK    3  A    between atoms: C_6  and  N_7
REMARK    4  A    between atoms: C_8  and  C_10
REMARK    5  A    between atoms: C_10  and  C_11
REMARK    6  A    between atoms: C_10  and  N_12
REMARK    7  A    between atoms: C_16  and  C_17
REMARK    8  A    between atoms: C_19  and  C_20
REMARK    9  A    between atoms: N_22  and  C_23
REMARK   10  A    between atoms: C_30  and  C_31
REMARK                            x       y       z     vdW  Elec       q    Type
REMARK                         _______ _______ _______ _____ _____    ______ ____
ROOT
ATOM      1  N   UNL     1      -3.588  15.133  23.422  0.00  0.00    +0.000 N 
ATOM      2  C   UNL     1      -4.350  16.281  23.721  0.00  0.00    +0.000 A 
ATOM      3  O   UNL     1      -3.904  17.424  23.779  0.00  0.00    +0.000 OA
ATOM      4  C   UNL     1      -5.796  16.106  24.005  0.00  0.00    +0.000 A 
ATOM      5  C   UNL     1      -6.449  15.025  23.563  0.00  0.00    +0.000 A 
ATOM      6  C   UNL     1      -7.916  14.858  23.801  0.00  0.00    +0.000 C 
ATOM      7  C   UNL     1      -5.728  14.012  22.864  0.00  0.00    +0.000 A 
ATOM      8  C   UNL     1      -6.110  12.831  22.204  0.00  0.00    +0.000 A 
ATOM      9  C   UNL     1      -7.438  12.225  21.928  0.00  0.00    +0.000 C 
ATOM     10  N   UNL     1      -5.038  12.166  21.782  0.00  0.00    +0.000 NA
ATOM     11  N   UNL     1      -3.965  12.983  21.997  0.00  0.00    +0.000 N 
ATOM     12  C   UNL     1      -4.336  14.094  22.783  0.00  0.00    +0.000 A 
ENDROOT
BRANCH  11  13
ATOM     13  C   UNL     1      -2.755  12.583  21.345  0.00  0.00    +0.000 A 
ATOM     14  C   UNL     1      -1.657  12.067  22.032  0.00  0.00    +0.000 A 
ATOM     15  C   UNL     1      -0.534  11.609  21.333  0.00  0.00    +0.000 A 
ATOM     16  C   UNL     1      -0.459  11.749  19.949  0.00  0.00    +0.000 A 
ATOM     17  C   UNL     1      -1.506  12.350  19.260  0.00  0.00    +0.000 A 
ATOM     18  C   UNL     1      -2.649  12.761  19.952  0.00  0.00    +0.000 A 
ENDBRANCH  11  13
BRANCH   1  19
ATOM     19  C   UNL     1      -2.114  15.308  23.506  0.00  0.00    +0.000 C 
ATOM     20  C   UNL     1      -1.650  15.907  24.850  0.00  0.00    +0.000 C 
BRANCH  19  22
ATOM     21  N   UNL     1      -1.850  16.011  21.153  0.00  0.00    +0.000 N 
ATOM     22  C   UNL     1      -1.489  16.297  22.475  0.00  0.00    +0.000 C 
ATOM     23  O   UNL     1      -0.667  17.144  22.825  0.00  0.00    +0.000 OA
ATOM     24  H   UNL     1      -2.301  15.123  20.991  0.00  0.00    +0.000 HD
BRANCH  21  30
ATOM     25  C   UNL     1       0.216  18.407  16.367  0.00  0.00    +0.000 C 
ATOM     26  C   UNL     1      -0.302  17.827  17.647  0.00  0.00    +0.000 A 
ATOM     27  C   UNL     1      -1.460  18.307  18.259  0.00  0.00    +0.000 A 
ATOM     28  C   UNL     1      -1.954  17.727  19.441  0.00  0.00    +0.000 A 
ATOM     29  C   UNL     1      -3.245  18.263  20.006  0.00  0.00    +0.000 C 
ATOM     30  C   UNL     1      -1.270  16.631  20.018  0.00  0.00    +0.000 A 
ATOM     31  C   UNL     1      -0.046  16.210  19.463  0.00  0.00    +0.000 A 
ATOM     32  C   UNL     1       0.876  15.212  20.112  0.00  0.00    +0.000 C 
ATOM     33  C   UNL     1       0.397  16.786  18.261  0.00  0.00    +0.000 A 
ENDBRANCH  21  30
ENDBRANCH  19  22
ENDBRANCH   1  19
TORSDOF 4
ENDMDL
MODEL 8
REMARK VINA RESULT:      -6.5      3.394      5.365
REMARK  Name = 
REMARK  10 active torsions:
REMARK  status: ('A' for Active; 'I' for Inactive)
REMARK    1  A    between atoms: C_1  and  C_2
REMARK    2  A    between atoms: C_4  and  C_5
REMARK    3  A    between atoms: C_6  and  N_7
REMARK    4  A    between atoms: C_8  and  C_10
REMARK    5  A    between atoms: C_10  and  C_11
REMARK    6  A    between atoms: C_10  and  N_12
REMARK    7  A    between atoms: C_16  and  C_17
REMARK    8  A    between atoms: C_19  and  C_20
REMARK    9  A    between atoms: N_22  and  C_23
REMARK   10  A    between atoms: C_30  and  C_31
REMARK                            x       y       z     vdW  Elec       q    Type
REMARK                         _______ _______ _______ _____ _____    ______ ____
ROOT
ATOM      1  N   UNL     1      -2.501  12.753  20.170  0.00  0.00    +0.000 N 
ATOM      2  C   UNL     1      -2.432  13.930  20.944  0.00  0.00    +0.000 A 
ATOM      3  O   UNL     1      -1.487  14.715  20.944  0.00  0.00    +0.000 OA
ATOM      4  C   UNL     1      -3.569  14.245  21.843  0.00  0.00    +0.000 A 
ATOM      5  C   UNL     1      -4.781  13.724  21.611  0.00  0.00    +0.000 A 
ATOM      6  C   UNL     1      -5.948  14.070  22.480  0.00  0.00    +0.000 C 
ATOM      7  C   UNL     1      -4.954  12.816  20.526  0.00  0.00    +0.000 A 
ATOM      8  C   UNL     1      -6.075  12.180  19.964  0.00  0.00    +0.000 A 
ATOM      9  C   UNL     1      -7.528  12.271  20.258  0.00  0.00    +0.000 C 
ATOM     10  N   UNL     1      -5.700  11.338  19.003  0.00  0.00    +0.000 NA
ATOM     11  N   UNL     1      -4.365  11.547  18.804  0.00  0.00    +0.000 N 
ATOM     12  C   UNL     1      -3.835  12.374  19.817  0.00  0.00    +0.000 A 
ENDROOT
BRANCH  11  13
ATOM     13  C   UNL     1      -3.827  10.958  17.615  0.00  0.00    +0.000 A 
ATOM     14  C   UNL     1      -3.102   9.768  17.619  0.00  0.00    +0.000 A 
ATOM     15  C   UNL     1      -2.678   9.191  16.416  0.00  0.00    +0.000 A 
ATOM     16  C   UNL     1      -2.892   9.847  15.205  0.00  0.00    +0.000 A 
ATOM     17  C   UNL     1      -3.529  11.083  15.196  0.00  0.00    +0.000 A 
ATOM     18  C   UNL     1      -3.998  11.634  16.391  0.00  0.00    +0.000 A 
ENDBRANCH  11  13
BRANCH   1  19
ATOM     19  C   UNL     1      -1.213  12.303  19.581  0.00  0.00    +0.000 C 
ATOM     20  C   UNL     1      -1.208  12.335  18.038  0.00  0.00    +0.000 C 
BRANCH  19  22
ATOM     21  N   UNL     1       0.577  10.627  19.880  0.00  0.00    +0.000 N 
ATOM     22  C   UNL     1      -0.810  10.827  19.878  0.00  0.00    +0.000 C 
ATOM     23  O   UNL     1      -1.660   9.941  19.966  0.00  0.00    +0.000 OA
ATOM     24  H   UNL     1       1.140  11.382  19.517  0.00  0.00    +0.000 HD
BRANCH  21  30
ATOM     25  C   UNL     1       2.840   5.356  19.861  0.00  0.00    +0.000 C 
ATOM     26  C   UNL     1       2.304   6.755  19.870  0.00  0.00    +0.000 A 
ATOM     27  C   UNL     1       2.338   7.564  18.734  0.00  0.00    +0.000 A 
ATOM     28  C   UNL     1       1.796   8.862  18.748  0.00  0.00    +0.000 A 
ATOM     29  C   UNL     1       1.815   9.650  17.463  0.00  0.00    +0.000 C 
ATOM     30  C   UNL     1       1.198   9.355  19.932  0.00  0.00    +0.000 A 
ATOM     31  C   UNL     1       1.254   8.582  21.109  0.00  0.00    +0.000 A 
ATOM     32  C   UNL     1       0.856   9.088  22.469  0.00  0.00    +0.000 C 
ATOM     33  C   UNL     1       1.767   7.276  21.048  0.00  0.00    +0.000 A 
ENDBRANCH  21  30
ENDBRANCH  19  22
ENDBRANCH   1  19
TORSDOF 4
ENDMDL
MODEL 9
REMARK VINA RESULT:      -6.4      3.677      5.970
REMARK  Name = 
REMARK  10 active torsions:
REMARK  status: ('A' for Active; 'I' for Inactive)
REMARK    1  A    between atoms: C_1  and  C_2
REMARK    2  A    between atoms: C_4  and  C_5
REMARK    3  A    between atoms: C_6  and  N_7
REMARK    4  A    between atoms: C_8  and  C_10
REMARK    5  A    between atoms: C_10  and  C_11
REMARK    6  A    between atoms: C_10  and  N_12
REMARK    7  A    between atoms: C_16  and  C_17
REMARK    8  A    between atoms: C_19  and  C_20
REMARK    9  A    between atoms: N_22  and  C_23
REMARK   10  A    between atoms: C_30  and  C_31
REMARK                            x       y       z     vdW  Elec       q    Type
REMARK                         _______ _______ _______ _____ _____    ______ ____
ROOT
ATOM      1  N   UNL     1      -3.604  14.227  21.753  0.00  0.00    +0.000 N 
ATOM      2  C   UNL     1      -2.465  15.021  21.997  0.00  0.00    +0.000 A 
ATOM      3  O   UNL     1      -1.345  14.583  22.248  0.00  0.00    +0.000 OA
ATOM      4  C   UNL     1      -2.621  16.496  21.970  0.00  0.00    +0.000 A 
ATOM      5  C   UNL     1      -3.639  17.059  21.308  0.00  0.00    +0.000 A 
ATOM      6  C   UNL     1      -3.783  18.545  21.232  0.00  0.00    +0.000 C 
ATOM      7  C   UNL     1      -4.608  16.223  20.678  0.00  0.00    +0.000 A 
ATOM      8  C   UNL     1      -5.715  16.478  19.849  0.00  0.00    +0.000 A 
ATOM      9  C   UNL     1      -6.255  17.730  19.259  0.00  0.00    +0.000 C 
ATOM     10  N   UNL     1      -6.372  15.349  19.591  0.00  0.00    +0.000 NA
ATOM     11  N   UNL     1      -5.609  14.333  20.090  0.00  0.00    +0.000 N 
ATOM     12  C   UNL     1      -4.561  14.843  20.884  0.00  0.00    +0.000 A 
ENDROOT
BRANCH  11  13
ATOM     13  C   UNL     1      -5.986  13.021  19.660  0.00  0.00    +0.000 A 
ATOM     14  C   UNL     1      -6.542  12.072  20.515  0.00  0.00    +0.000 A 
ATOM     15  C   UNL     1      -6.975  10.836  20.020  0.00  0.00    +0.000 A 
ATOM     16  C   UNL     1      -6.769  10.501  18.683  0.00  0.00    +0.000 A 
ATOM     17  C   UNL     1      -6.128  11.401  17.839  0.00  0.00    +0.000 A 
ATOM     18  C   UNL     1      -5.742  12.654  18.322  0.00  0.00    +0.000 A 
ENDBRANCH  11  13
BRANCH   1  19
ATOM     19  C   UNL     1      -3.480  12.799  22.145  0.00  0.00    +0.000 C 
ATOM     20  C   UNL     1      -3.454  12.590  23.674  0.00  0.00    +0.000 C 
BRANCH  19  22
ATOM     21  N   UNL     1      -1.896  12.247  20.332  0.00  0.00    +0.000 N 
ATOM     22  C   UNL     1      -2.171  12.082  21.696  0.00  0.00    +0.000 C 
ATOM     23  O   UNL     1      -1.547  11.354  22.468  0.00  0.00    +0.000 OA
ATOM     24  H   UNL     1      -2.638  12.633  19.767  0.00  0.00    +0.000 HD
BRANCH  21  30
ATOM     25  C   UNL     1       2.097   9.108  17.665  0.00  0.00    +0.000 C 
ATOM     26  C   UNL     1       1.050   9.961  18.313  0.00  0.00    +0.000 A 
ATOM     27  C   UNL     1      -0.306   9.813  18.021  0.00  0.00    +0.000 A 
ATOM     28  C   UNL     1      -1.281  10.596  18.665  0.00  0.00    +0.000 A 
ATOM     29  C   UNL     1      -2.729  10.332  18.340  0.00  0.00    +0.000 C 
ATOM     30  C   UNL     1      -0.881  11.546  19.634  0.00  0.00    +0.000 A 
ATOM     31  C   UNL     1       0.491  11.772  19.857  0.00  0.00    +0.000 A 
ATOM     32  C   UNL     1       1.036  12.901  20.690  0.00  0.00    +0.000 C 
ATOM     33  C   UNL     1       1.434  10.945  19.225  0.00  0.00    +0.000 A 
ENDBRANCH  21  30
ENDBRANCH  19  22
ENDBRANCH   1  19
TORSDOF 4
ENDMDL
