MODEL 1
REMARK VINA RESULT:      -8.7      0.000      0.000
REMARK  Name = 
REMARK  5 active torsions:
REMARK  status: ('A' for Active; 'I' for Inactive)
REMARK    1  A    between atoms: C_2  and  C_20
REMARK    2  A    between atoms: N_3  and  C_4
REMARK    3  A    between atoms: C_4  and  C_5
REMARK    4  A    between atoms: C_5  and  C_6
REMARK    5  A    between atoms: C_5  and  C_11
REMARK                            x       y       z     vdW  Elec       q    Type
REMARK                         _______ _______ _______ _____ _____    ______ ____
ROOT
ATOM      1  C   UNL     1       4.222   5.674  17.767  0.00  0.00    +0.000 C 
ENDROOT
BRANCH   1   2
ATOM      2  C   UNL     1       3.320   4.485  18.036  0.00  0.00    +0.000 A 
ATOM      3  C   UNL     1       2.874   3.546  17.119  0.00  0.00    +0.000 A 
ATOM      4  N   UNL     1       2.072   2.645  17.756  0.00  0.00    +0.000 N 
ATOM      5  C   UNL     1       1.994   2.941  19.092  0.00  0.00    +0.000 A 
ATOM      6  C   UNL     1       1.304   2.275  20.112  0.00  0.00    +0.000 A 
ATOM      7  C   UNL     1       1.381   2.803  21.400  0.00  0.00    +0.000 A 
ATOM      8  C   UNL     1       2.119   3.959  21.651  0.00  0.00    +0.000 A 
ATOM      9  C   UNL     1       2.804   4.612  20.617  0.00  0.00    +0.000 A 
ATOM     10  C   UNL     1       2.752   4.096  19.304  0.00  0.00    +0.000 A 
ATOM     11  H   UNL     1       1.596   1.871  17.313  0.00  0.00    +0.000 HD
ENDBRANCH   1   2
BRANCH   1  12
ATOM     12  C   UNL     1       5.286   5.377  16.714  0.00  0.00    +0.000 A 
ATOM     13  C   UNL     1       5.293   5.675  15.362  0.00  0.00    +0.000 A 
ATOM     14  C   UNL     1       6.481   5.253  14.704  0.00  0.00    +0.000 A 
ATOM     15  C   UNL     1       7.352   4.637  15.571  0.00  0.00    +0.000 A 
ATOM     16  S   UNL     1       6.738   4.574  17.165  0.00  0.00    +0.000 S 
ENDBRANCH   1  12
BRANCH   1  17
ATOM     17  C   UNL     1       3.474   7.000  17.448  0.00  0.00    +0.000 C 
BRANCH  17  20
ATOM     18  O   UNL     1       1.991   9.427  17.377  0.00  0.00    +0.000 OA
ATOM     19  C   UNL     1       1.967   8.734  18.387  0.00  0.00    +0.000 C 
ATOM     20  N   UNL     1       2.616   7.525  18.506  0.00  0.00    +0.000 N 
ATOM     21  H   UNL     1       2.440   6.928  19.302  0.00  0.00    +0.000 HD
BRANCH  19  22
ATOM     22  C   UNL     1       1.174   9.180  19.565  0.00  0.00    +0.000 A 
ATOM     23  C   UNL     1       1.320   8.465  20.761  0.00  0.00    +0.000 A 
ATOM     24  C   UNL     1       0.613   8.849  21.903  0.00  0.00    +0.000 A 
ATOM     25  C   UNL     1      -0.253   9.939  21.845  0.00  0.00    +0.000 A 
ATOM     26 CL   UNL     1      -1.112  10.422  23.254  0.00  0.00    +0.000 Cl
ATOM     27  C   UNL     1      -0.431  10.637  20.651  0.00  0.00    +0.000 A 
ATOM     28  C   UNL     1       0.279  10.258  19.507  0.00  0.00    +0.000 A 
ENDBRANCH  19  22
ENDBRANCH  17  20
ENDBRANCH   1  17
TORSDOF 5
ENDMDL
MODEL 2
REMARK VINA RESULT:      -8.4      0.652      1.260
REMARK  Name = 
REMARK  5 active torsions:
REMARK  status: ('A' for Active; 'I' for Inactive)
REMARK    1  A    between atoms: C_2  and  C_20
REMARK    2  A    between atoms: N_3  and  C_4
REMARK    3  A    between atoms: C_4  and  C_5
REMARK    4  A    between atoms: C_5  and  C_6
REMARK    5  A    between atoms: C_5  and  C_11
REMARK                            x       y       z     vdW  Elec       q    Type
REMARK                         _______ _______ _______ _____ _____    ______ ____
ROOT
ATOM      1  C   UNL     1       4.345   5.596  17.957  0.00  0.00    +0.000 C 
ENDROOT
BRANCH   1   2
ATOM      2  C   UNL     1       3.408   4.419  18.146  0.00  0.00    +0.000 A 
ATOM      3  C   UNL     1       2.977   3.525  17.177  0.00  0.00    +0.000 A 
ATOM      4  N   UNL     1       2.131   2.620  17.748  0.00  0.00    +0.000 N 
ATOM      5  C   UNL     1       2.009   2.868  19.091  0.00  0.00    +0.000 A 
ATOM      6  C   UNL     1       1.266   2.180  20.058  0.00  0.00    +0.000 A 
ATOM      7  C   UNL     1       1.305   2.657  21.368  0.00  0.00    +0.000 A 
ATOM      8  C   UNL     1       2.058   3.785  21.690  0.00  0.00    +0.000 A 
ATOM      9  C   UNL     1       2.796   4.460  20.709  0.00  0.00    +0.000 A 
ATOM     10  C   UNL     1       2.783   3.995  19.376  0.00  0.00    +0.000 A 
ATOM     11  H   UNL     1       1.657   1.875  17.259  0.00  0.00    +0.000 HD
ENDBRANCH   1   2
BRANCH   1  12
ATOM     12  C   UNL     1       5.469   5.298  16.968  0.00  0.00    +0.000 A 
ATOM     13  C   UNL     1       6.648   4.596  17.162  0.00  0.00    +0.000 A 
ATOM     14  C   UNL     1       7.444   4.509  15.987  0.00  0.00    +0.000 A 
ATOM     15  C   UNL     1       6.856   5.152  14.924  0.00  0.00    +0.000 A 
ATOM     16  S   UNL     1       5.353   5.851  15.345  0.00  0.00    +0.000 S 
ENDBRANCH   1  12
BRANCH   1  17
ATOM     17  C   UNL     1       3.642   6.940  17.616  0.00  0.00    +0.000 C 
BRANCH  17  20
ATOM     18  O   UNL     1       1.951   9.217  17.375  0.00  0.00    +0.000 OA
ATOM     19  C   UNL     1       2.029   8.633  18.450  0.00  0.00    +0.000 C 
ATOM     20  N   UNL     1       2.786   7.501  18.658  0.00  0.00    +0.000 N 
ATOM     21  H   UNL     1       2.696   6.979  19.517  0.00  0.00    +0.000 HD
BRANCH  19  22
ATOM     22  C   UNL     1       1.250   9.134  19.615  0.00  0.00    +0.000 A 
ATOM     23  C   UNL     1       0.550  10.338  19.465  0.00  0.00    +0.000 A 
ATOM     24  C   UNL     1      -0.211  10.848  20.519  0.00  0.00    +0.000 A 
ATOM     25  C   UNL     1      -0.258  10.162  21.731  0.00  0.00    +0.000 A 
ATOM     26 CL   UNL     1      -1.207  10.780  23.025  0.00  0.00    +0.000 Cl
ATOM     27  C   UNL     1       0.462   8.979  21.903  0.00  0.00    +0.000 A 
ATOM     28  C   UNL     1       1.220   8.464  20.846  0.00  0.00    +0.000 A 
ENDBRANCH  19  22
ENDBRANCH  17  20
ENDBRANCH   1  17
TORSDOF 5
ENDMDL
MODEL 3
REMARK VINA RESULT:      -8.0      2.285      4.854
REMARK  Name = 
REMARK  5 active torsions:
REMARK  status: ('A' for Active; 'I' for Inactive)
REMARK    1  A    between atoms: C_2  and  C_20
REMARK    2  A    between atoms: N_3  and  C_4
REMARK    3  A    between atoms: C_4  and  C_5
REMARK    4  A    between atoms: C_5  and  C_6
REMARK    5  A    between atoms: C_5  and  C_11
REMARK                            x       y       z     vdW  Elec       q    Type
REMARK                         _______ _______ _______ _____ _____    ______ ____
ROOT
ATOM      1  C   UNL     1       3.127   5.770  18.557  0.00  0.00    +0.000 C 
ENDROOT
BRANCH   1   2
ATOM      2  C   UNL     1       4.526   5.245  18.291  0.00  0.00    +0.000 A 
ATOM      3  C   UNL     1       5.424   4.744  19.221  0.00  0.00    +0.000 A 
ATOM      4  N   UNL     1       6.576   4.389  18.582  0.00  0.00    +0.000 N 
ATOM      5  C   UNL     1       6.460   4.613  17.234  0.00  0.00    +0.000 A 
ATOM      6  C   UNL     1       7.384   4.376  16.210  0.00  0.00    +0.000 A 
ATOM      7  C   UNL     1       7.013   4.713  14.910  0.00  0.00    +0.000 A 
ATOM      8  C   UNL     1       5.763   5.272  14.650  0.00  0.00    +0.000 A 
ATOM      9  C   UNL     1       4.850   5.502  15.689  0.00  0.00    +0.000 A 
ATOM     10  C   UNL     1       5.194   5.163  17.015  0.00  0.00    +0.000 A 
ATOM     11  H   UNL     1       7.402   4.018  19.031  0.00  0.00    +0.000 HD
ENDBRANCH   1   2
BRANCH   1  12
ATOM     12  C   UNL     1       2.193   4.698  19.109  0.00  0.00    +0.000 A 
ATOM     13  C   UNL     1       1.425   3.766  18.429  0.00  0.00    +0.000 A 
ATOM     14  C   UNL     1       0.692   2.910  19.296  0.00  0.00    +0.000 A 
ATOM     15  C   UNL     1       0.915   3.212  20.618  0.00  0.00    +0.000 A 
ATOM     16  S   UNL     1       2.003   4.516  20.808  0.00  0.00    +0.000 S 
ENDBRANCH   1  12
BRANCH   1  17
ATOM     17  C   UNL     1       3.070   7.062  19.421  0.00  0.00    +0.000 C 
BRANCH  17  20
ATOM     18  O   UNL     1       2.523   9.174  17.595  0.00  0.00    +0.000 OA
ATOM     19  C   UNL     1       1.685   8.870  18.436  0.00  0.00    +0.000 C 
ATOM     20  N   UNL     1       1.837   7.839  19.336  0.00  0.00    +0.000 N 
ATOM     21  H   UNL     1       1.057   7.539  19.903  0.00  0.00    +0.000 HD
BRANCH  19  22
ATOM     22  C   UNL     1       0.401   9.621  18.496  0.00  0.00    +0.000 A 
ATOM     23  C   UNL     1      -0.503   9.456  17.439  0.00  0.00    +0.000 A 
ATOM     24  C   UNL     1      -1.731  10.124  17.451  0.00  0.00    +0.000 A 
ATOM     25  C   UNL     1      -2.046  10.970  18.512  0.00  0.00    +0.000 A 
ATOM     26 CL   UNL     1      -3.563  11.779  18.535  0.00  0.00    +0.000 Cl
ATOM     27  C   UNL     1      -1.139  11.167  19.553  0.00  0.00    +0.000 A 
ATOM     28  C   UNL     1       0.088  10.495  19.546  0.00  0.00    +0.000 A 
ENDBRANCH  19  22
ENDBRANCH  17  20
ENDBRANCH   1  17
TORSDOF 5
ENDMDL
MODEL 4
REMARK VINA RESULT:      -8.0      3.680      7.303
REMARK  Name = 
REMARK  5 active torsions:
REMARK  status: ('A' for Active; 'I' for Inactive)
REMARK    1  A    between atoms: C_2  and  C_20
REMARK    2  A    between atoms: N_3  and  C_4
REMARK    3  A    between atoms: C_4  and  C_5
REMARK    4  A    between atoms: C_5  and  C_6
REMARK    5  A    between atoms: C_5  and  C_11
REMARK                            x       y       z     vdW  Elec       q    Type
REMARK                         _______ _______ _______ _____ _____    ______ ____
ROOT
ATOM      1  C   UNL     1       3.424   5.673  19.729  0.00  0.00    +0.000 C 
ENDROOT
BRANCH   1   2
ATOM      2  C   UNL     1       2.797   6.928  19.153  0.00  0.00    +0.000 A 
ATOM      3  C   UNL     1       2.997   7.462  17.889  0.00  0.00    +0.000 A 
ATOM      4  N   UNL     1       2.262   8.605  17.766  0.00  0.00    +0.000 N 
ATOM      5  C   UNL     1       1.544   8.833  18.911  0.00  0.00    +0.000 A 
ATOM      6  C   UNL     1       0.651   9.870  19.210  0.00  0.00    +0.000 A 
ATOM      7  C   UNL     1       0.060   9.874  20.472  0.00  0.00    +0.000 A 
ATOM      8  C   UNL     1       0.360   8.879  21.400  0.00  0.00    +0.000 A 
ATOM      9  C   UNL     1       1.256   7.848  21.083  0.00  0.00    +0.000 A 
ATOM     10  C   UNL     1       1.864   7.812  19.810  0.00  0.00    +0.000 A 
ATOM     11  H   UNL     1       2.245   9.203  16.952  0.00  0.00    +0.000 HD
ENDBRANCH   1   2
BRANCH   1  12
ATOM     12  C   UNL     1       2.607   4.419  19.431  0.00  0.00    +0.000 A 
ATOM     13  C   UNL     1       1.587   4.232  18.513  0.00  0.00    +0.000 A 
ATOM     14  C   UNL     1       1.076   2.905  18.510  0.00  0.00    +0.000 A 
ATOM     15  C   UNL     1       1.716   2.111  19.431  0.00  0.00    +0.000 A 
ATOM     16  S   UNL     1       2.925   2.963  20.287  0.00  0.00    +0.000 S 
ENDBRANCH   1  12
BRANCH   1  17
ATOM     17  C   UNL     1       4.921   5.466  19.363  0.00  0.00    +0.000 C 
BRANCH  17  20
ATOM     18  O   UNL     1       6.632   6.655  17.424  0.00  0.00    +0.000 OA
ATOM     19  C   UNL     1       6.011   5.637  17.139  0.00  0.00    +0.000 C 
ATOM     20  N   UNL     1       5.191   4.965  18.018  0.00  0.00    +0.000 N 
ATOM     21  H   UNL     1       4.826   4.054  17.779  0.00  0.00    +0.000 HD
BRANCH  19  22
ATOM     22  C   UNL     1       6.152   5.049  15.779  0.00  0.00    +0.000 A 
ATOM     23  C   UNL     1       7.295   5.378  15.039  0.00  0.00    +0.000 A 
ATOM     24  C   UNL     1       7.488   4.843  13.764  0.00  0.00    +0.000 A 
ATOM     25  C   UNL     1       6.528   3.991  13.220  0.00  0.00    +0.000 A 
ATOM     26 CL   UNL     1       6.771   3.319  11.657  0.00  0.00    +0.000 Cl
ATOM     27  C   UNL     1       5.370   3.683  13.935  0.00  0.00    +0.000 A 
ATOM     28  C   UNL     1       5.178   4.213  15.215  0.00  0.00    +0.000 A 
ENDBRANCH  19  22
ENDBRANCH  17  20
ENDBRANCH   1  17
TORSDOF 5
ENDMDL
MODEL 5
REMARK VINA RESULT:      -7.9      3.806      7.442
REMARK  Name = 
REMARK  5 active torsions:
REMARK  status: ('A' for Active; 'I' for Inactive)
REMARK    1  A    between atoms: C_2  and  C_20
REMARK    2  A    between atoms: N_3  and  C_4
REMARK    3  A    between atoms: C_4  and  C_5
REMARK    4  A    between atoms: C_5  and  C_6
REMARK    5  A    between atoms: C_5  and  C_11
REMARK                            x       y       z     vdW  Elec       q    Type
REMARK                         _______ _______ _______ _____ _____    ______ ____
ROOT
ATOM      1  C   UNL     1       2.967   6.041  19.810  0.00  0.00    +0.000 C 
ENDROOT
BRANCH   1   2
ATOM      2  C   UNL     1       2.390   7.326  19.246  0.00  0.00    +0.000 A 
ATOM      3  C   UNL     1       2.589   7.849  17.978  0.00  0.00    +0.000 A 
ATOM      4  N   UNL     1       1.908   9.026  17.869  0.00  0.00    +0.000 N 
ATOM      5  C   UNL     1       1.228   9.290  19.029  0.00  0.00    +0.000 A 
ATOM      6  C   UNL     1       0.393  10.369  19.346  0.00  0.00    +0.000 A 
ATOM      7  C   UNL     1      -0.169  10.403  20.621  0.00  0.00    +0.000 A 
ATOM      8  C   UNL     1       0.102   9.394  21.543  0.00  0.00    +0.000 A 
ATOM      9  C   UNL     1       0.939   8.320  21.208  0.00  0.00    +0.000 A 
ATOM     10  C   UNL     1       1.516   8.255  19.922  0.00  0.00    +0.000 A 
ATOM     11  H   UNL     1       1.903   9.625  17.055  0.00  0.00    +0.000 HD
ENDBRANCH   1   2
BRANCH   1  12
ATOM     12  C   UNL     1       2.138   4.814  19.441  0.00  0.00    +0.000 A 
ATOM     13  C   UNL     1       1.832   4.302  18.191  0.00  0.00    +0.000 A 
ATOM     14  C   UNL     1       1.044   3.120  18.251  0.00  0.00    +0.000 A 
ATOM     15  C   UNL     1       0.762   2.761  19.547  0.00  0.00    +0.000 A 
ATOM     16  S   UNL     1       1.448   3.842  20.680  0.00  0.00    +0.000 S 
ENDBRANCH   1  12
BRANCH   1  17
ATOM     17  C   UNL     1       4.474   5.812  19.499  0.00  0.00    +0.000 C 
BRANCH  17  20
ATOM     18  O   UNL     1       6.764   4.388  18.590  0.00  0.00    +0.000 OA
ATOM     19  C   UNL     1       5.960   4.824  17.774  0.00  0.00    +0.000 C 
ATOM     20  N   UNL     1       4.803   5.489  18.113  0.00  0.00    +0.000 N 
ATOM     21  H   UNL     1       4.108   5.693  17.410  0.00  0.00    +0.000 HD
BRANCH  19  22
ATOM     22  C   UNL     1       6.203   4.613  16.321  0.00  0.00    +0.000 A 
ATOM     23  C   UNL     1       5.270   3.852  15.605  0.00  0.00    +0.000 A 
ATOM     24  C   UNL     1       5.439   3.635  14.235  0.00  0.00    +0.000 A 
ATOM     25  C   UNL     1       6.551   4.166  13.584  0.00  0.00    +0.000 A 
ATOM     26 CL   UNL     1       6.751   3.913  11.895  0.00  0.00    +0.000 Cl
ATOM     27  C   UNL     1       7.503   4.897  14.294  0.00  0.00    +0.000 A 
ATOM     28  C   UNL     1       7.333   5.120  15.664  0.00  0.00    +0.000 A 
ENDBRANCH  19  22
ENDBRANCH  17  20
ENDBRANCH   1  17
TORSDOF 5
ENDMDL
MODEL 6
REMARK VINA RESULT:      -7.8      2.141      4.676
REMARK  Name = 
REMARK  5 active torsions:
REMARK  status: ('A' for Active; 'I' for Inactive)
REMARK    1  A    between atoms: C_2  and  C_20
REMARK    2  A    between atoms: N_3  and  C_4
REMARK    3  A    between atoms: C_4  and  C_5
REMARK    4  A    between atoms: C_5  and  C_6
REMARK    5  A    between atoms: C_5  and  C_11
REMARK                            x       y       z     vdW  Elec       q    Type
REMARK                         _______ _______ _______ _____ _____    ______ ____
ROOT
ATOM      1  C   UNL     1       3.174   5.628  18.720  0.00  0.00    +0.000 C 
ENDROOT
BRANCH   1   2
ATOM      2  C   UNL     1       4.560   5.120  18.370  0.00  0.00    +0.000 A 
ATOM      3  C   UNL     1       5.483   4.542  19.228  0.00  0.00    +0.000 A 
ATOM      4  N   UNL     1       6.612   4.235  18.528  0.00  0.00    +0.000 N 
ATOM      5  C   UNL     1       6.456   4.566  17.207  0.00  0.00    +0.000 A 
ATOM      6  C   UNL     1       7.347   4.407  16.138  0.00  0.00    +0.000 A 
ATOM      7  C   UNL     1       6.939   4.849  14.881  0.00  0.00    +0.000 A 
ATOM      8  C   UNL     1       5.685   5.432  14.706  0.00  0.00    +0.000 A 
ATOM      9  C   UNL     1       4.806   5.582  15.787  0.00  0.00    +0.000 A 
ATOM     10  C   UNL     1       5.188   5.137  17.071  0.00  0.00    +0.000 A 
ATOM     11  H   UNL     1       7.449   3.826  18.919  0.00  0.00    +0.000 HD
ENDBRANCH   1   2
BRANCH   1  12
ATOM     12  C   UNL     1       2.196   4.499  19.030  0.00  0.00    +0.000 A 
ATOM     13  C   UNL     1       1.525   3.654  18.161  0.00  0.00    +0.000 A 
ATOM     14  C   UNL     1       0.708   2.702  18.830  0.00  0.00    +0.000 A 
ATOM     15  C   UNL     1       0.771   2.846  20.196  0.00  0.00    +0.000 A 
ATOM     16  S   UNL     1       1.812   4.119  20.662  0.00  0.00    +0.000 S 
ENDBRANCH   1  12
BRANCH   1  17
ATOM     17  C   UNL     1       3.141   6.718  19.829  0.00  0.00    +0.000 C 
BRANCH  17  20
ATOM     18  O   UNL     1       2.656   8.781  17.930  0.00  0.00    +0.000 OA
ATOM     19  C   UNL     1       1.874   8.619  18.859  0.00  0.00    +0.000 C 
ATOM     20  N   UNL     1       1.998   7.626  19.805  0.00  0.00    +0.000 N 
ATOM     21  H   UNL     1       1.247   7.447  20.457  0.00  0.00    +0.000 HD
BRANCH  19  22
ATOM     22  C   UNL     1       0.691   9.514  18.987  0.00  0.00    +0.000 A 
ATOM     23  C   UNL     1       0.379  10.006  20.261  0.00  0.00    +0.000 A 
ATOM     24  C   UNL     1      -0.710  10.863  20.438  0.00  0.00    +0.000 A 
ATOM     25  C   UNL     1      -1.497  11.215  19.343  0.00  0.00    +0.000 A 
ATOM     26 CL   UNL     1      -2.828  12.282  19.557  0.00  0.00    +0.000 Cl
ATOM     27  C   UNL     1      -1.214  10.704  18.076  0.00  0.00    +0.000 A 
ATOM     28  C   UNL     1      -0.121   9.851  17.896  0.00  0.00    +0.000 A 
ENDBRANCH  19  22
ENDBRANCH  17  20
ENDBRANCH   1  17
TORSDOF 5
ENDMDL
MODEL 7
REMARK VINA RESULT:      -7.8      1.271      1.925
REMARK  Name = 
REMARK  5 active torsions:
REMARK  status: ('A' for Active; 'I' for Inactive)
REMARK    1  A    between atoms: C_2  and  C_20
REMARK    2  A    between atoms: N_3  and  C_4
REMARK    3  A    between atoms: C_4  and  C_5
REMARK    4  A    between atoms: C_5  and  C_6
REMARK    5  A    between atoms: C_5  and  C_11
REMARK                            x       y       z     vdW  Elec       q    Type
REMARK                         _______ _______ _______ _____ _____    ______ ____
ROOT
ATOM      1  C   UNL     1       5.065   5.742  17.370  0.00  0.00    +0.000 C 
ENDROOT
BRANCH   1   2
ATOM      2  C   UNL     1       4.587   4.680  18.342  0.00  0.00    +0.000 A 
ATOM      3  C   UNL     1       5.317   4.085  19.360  0.00  0.00    +0.000 A 
ATOM      4  N   UNL     1       4.530   3.171  19.997  0.00  0.00    +0.000 N 
ATOM      5  C   UNL     1       3.274   3.160  19.448  0.00  0.00    +0.000 A 
ATOM      6  C   UNL     1       2.155   2.398  19.803  0.00  0.00    +0.000 A 
ATOM      7  C   UNL     1       0.988   2.574  19.060  0.00  0.00    +0.000 A 
ATOM      8  C   UNL     1       0.951   3.477  18.000  0.00  0.00    +0.000 A 
ATOM      9  C   UNL     1       2.081   4.233  17.660  0.00  0.00    +0.000 A 
ATOM     10  C   UNL     1       3.274   4.083  18.399  0.00  0.00    +0.000 A 
ATOM     11  H   UNL     1       4.825   2.579  20.762  0.00  0.00    +0.000 HD
ENDBRANCH   1   2
BRANCH   1  12
ATOM     12  C   UNL     1       5.565   5.151  16.055  0.00  0.00    +0.000 A 
ATOM     13  C   UNL     1       4.845   4.609  15.004  0.00  0.00    +0.000 A 
ATOM     14  C   UNL     1       5.668   4.176  13.929  0.00  0.00    +0.000 A 
ATOM     15  C   UNL     1       7.000   4.392  14.188  0.00  0.00    +0.000 A 
ATOM     16  S   UNL     1       7.250   5.117  15.716  0.00  0.00    +0.000 S 
ENDBRANCH   1  12
BRANCH   1  17
ATOM     17  C   UNL     1       4.053   6.896  17.117  0.00  0.00    +0.000 C 
BRANCH  17  20
ATOM     18  O   UNL     1       2.115   8.979  17.161  0.00  0.00    +0.000 OA
ATOM     19  C   UNL     1       2.354   8.353  18.188  0.00  0.00    +0.000 C 
ATOM     20  N   UNL     1       3.242   7.303  18.260  0.00  0.00    +0.000 N 
ATOM     21  H   UNL     1       3.287   6.730  19.091  0.00  0.00    +0.000 HD
BRANCH  19  22
ATOM     22  C   UNL     1       1.636   8.703  19.444  0.00  0.00    +0.000 A 
ATOM     23  C   UNL     1       0.926   9.911  19.476  0.00  0.00    +0.000 A 
ATOM     24  C   UNL     1       0.221  10.284  20.623  0.00  0.00    +0.000 A 
ATOM     25  C   UNL     1       0.239   9.457  21.744  0.00  0.00    +0.000 A 
ATOM     26 CL   UNL     1      -0.642   9.907  23.150  0.00  0.00    +0.000 Cl
ATOM     27  C   UNL     1       0.969   8.268  21.734  0.00  0.00    +0.000 A 
ATOM     28  C   UNL     1       1.672   7.890  20.585  0.00  0.00    +0.000 A 
ENDBRANCH  19  22
ENDBRANCH  17  20
ENDBRANCH   1  17
TORSDOF 5
ENDMDL
MODEL 8
REMARK VINA RESULT:      -7.7      3.619      7.360
REMARK  Name = 
REMARK  5 active torsions:
REMARK  status: ('A' for Active; 'I' for Inactive)
REMARK    1  A    between atoms: C_2  and  C_20
REMARK    2  A    between atoms: N_3  and  C_4
REMARK    3  A    between atoms: C_4  and  C_5
REMARK    4  A    between atoms: C_5  and  C_6
REMARK    5  A    between atoms: C_5  and  C_11
REMARK                            x       y       z     vdW  Elec       q    Type
REMARK                         _______ _______ _______ _____ _____    ______ ____
ROOT
ATOM      1  C   UNL     1       3.217   5.705  19.904  0.00  0.00    +0.000 C 
ENDROOT
BRANCH   1   2
ATOM      2  C   UNL     1       2.697   6.956  19.222  0.00  0.00    +0.000 A 
ATOM      3  C   UNL     1       2.977   7.387  17.934  0.00  0.00    +0.000 A 
ATOM      4  N   UNL     1       2.326   8.564  17.705  0.00  0.00    +0.000 N 
ATOM      5  C   UNL     1       1.587   8.918  18.804  0.00  0.00    +0.000 A 
ATOM      6  C   UNL     1       0.757  10.029  18.998  0.00  0.00    +0.000 A 
ATOM      7  C   UNL     1       0.125  10.160  20.233  0.00  0.00    +0.000 A 
ATOM      8  C   UNL     1       0.324   9.214  21.236  0.00  0.00    +0.000 A 
ATOM      9  C   UNL     1       1.158   8.107  21.025  0.00  0.00    +0.000 A 
ATOM     10  C   UNL     1       1.805   7.943  19.781  0.00  0.00    +0.000 A 
ATOM     11  H   UNL     1       2.379   9.104  16.853  0.00  0.00    +0.000 HD
ENDBRANCH   1   2
BRANCH   1  12
ATOM     12  C   UNL     1       2.316   4.495  19.676  0.00  0.00    +0.000 A 
ATOM     13  C   UNL     1       1.815   3.586  20.592  0.00  0.00    +0.000 A 
ATOM     14  C   UNL     1       0.985   2.596  19.999  0.00  0.00    +0.000 A 
ATOM     15  C   UNL     1       0.876   2.770  18.640  0.00  0.00    +0.000 A 
ATOM     16  S   UNL     1       1.767   4.121  18.090  0.00  0.00    +0.000 S 
ENDBRANCH   1  12
BRANCH   1  17
ATOM     17  C   UNL     1       4.703   5.364  19.595  0.00  0.00    +0.000 C 
BRANCH  17  20
ATOM     18  O   UNL     1       6.845   6.262  17.952  0.00  0.00    +0.000 OA
ATOM     19  C   UNL     1       6.038   5.455  17.505  0.00  0.00    +0.000 C 
ATOM     20  N   UNL     1       4.993   4.930  18.232  0.00  0.00    +0.000 N 
ATOM     21  H   UNL     1       4.452   4.160  17.863  0.00  0.00    +0.000 HD
BRANCH  19  22
ATOM     22  C   UNL     1       6.184   4.969  16.106  0.00  0.00    +0.000 A 
ATOM     23  C   UNL     1       5.155   4.180  15.577  0.00  0.00    +0.000 A 
ATOM     24  C   UNL     1       5.230   3.710  14.263  0.00  0.00    +0.000 A 
ATOM     25  C   UNL     1       6.344   4.015  13.484  0.00  0.00    +0.000 A 
ATOM     26 CL   UNL     1       6.431   3.451  11.862  0.00  0.00    +0.000 Cl
ATOM     27  C   UNL     1       7.390   4.773  14.011  0.00  0.00    +0.000 A 
ATOM     28  C   UNL     1       7.314   5.249  15.324  0.00  0.00    +0.000 A 
ENDBRANCH  19  22
ENDBRANCH  17  20
ENDBRANCH   1  17
TORSDOF 5
ENDMDL
MODEL 9
REMARK VINA RESULT:      -7.6      1.902      2.504
REMARK  Name = 
REMARK  5 active torsions:
REMARK  status: ('A' for Active; 'I' for Inactive)
REMARK    1  A    between atoms: C_2  and  C_20
REMARK    2  A    between atoms: N_3  and  C_4
REMARK    3  A    between atoms: C_4  and  C_5
REMARK    4  A    between atoms: C_5  and  C_6
REMARK    5  A    between atoms: C_5  and  C_11
REMARK                            x       y       z     vdW  Elec       q    Type
REMARK                         _______ _______ _______ _____ _____    ______ ____
ROOT
ATOM      1  C   UNL     1       3.660   6.872  18.425  0.00  0.00    +0.000 C 
ENDROOT
BRANCH   1   2
ATOM      2  C   UNL     1       2.734   5.951  19.196  0.00  0.00    +0.000 A 
ATOM      3  C   UNL     1       2.077   6.225  20.386  0.00  0.00    +0.000 A 
ATOM      4  N   UNL     1       1.353   5.131  20.758  0.00  0.00    +0.000 N 
ATOM      5  C   UNL     1       1.483   4.135  19.825  0.00  0.00    +0.000 A 
ATOM      6  C   UNL     1       0.902   2.862  19.796  0.00  0.00    +0.000 A 
ATOM      7  C   UNL     1       1.217   2.028  18.724  0.00  0.00    +0.000 A 
ATOM      8  C   UNL     1       2.088   2.457  17.724  0.00  0.00    +0.000 A 
ATOM      9  C   UNL     1       2.660   3.736  17.769  0.00  0.00    +0.000 A 
ATOM     10  C   UNL     1       2.352   4.605  18.837  0.00  0.00    +0.000 A 
ATOM     11  H   UNL     1       0.800   5.056  21.601  0.00  0.00    +0.000 HD
ENDBRANCH   1   2
BRANCH   1  12
ATOM     12  C   UNL     1       4.834   6.130  17.793  0.00  0.00    +0.000 A 
ATOM     13  C   UNL     1       5.164   5.981  16.457  0.00  0.00    +0.000 A 
ATOM     14  C   UNL     1       6.355   5.231  16.257  0.00  0.00    +0.000 A 
ATOM     15  C   UNL     1       6.904   4.820  17.448  0.00  0.00    +0.000 A 
ATOM     16  S   UNL     1       5.988   5.340  18.794  0.00  0.00    +0.000 S 
ENDBRANCH   1  12
BRANCH   1  17
ATOM     17  C   UNL     1       2.951   7.787  17.386  0.00  0.00    +0.000 C 
BRANCH  17  20
ATOM     18  O   UNL     1       2.643  10.611  17.548  0.00  0.00    +0.000 OA
ATOM     19  C   UNL     1       1.737   9.881  17.933  0.00  0.00    +0.000 C 
ATOM     20  N   UNL     1       1.773   8.507  17.859  0.00  0.00    +0.000 N 
ATOM     21  H   UNL     1       0.942   7.965  18.051  0.00  0.00    +0.000 HD
BRANCH  19  22
ATOM     22  C   UNL     1       0.497  10.485  18.493  0.00  0.00    +0.000 A 
ATOM     23  C   UNL     1       0.631  11.379  19.563  0.00  0.00    +0.000 A 
ATOM     24  C   UNL     1      -0.496  11.989  20.118  0.00  0.00    +0.000 A 
ATOM     25  C   UNL     1      -1.761  11.690  19.614  0.00  0.00    +0.000 A 
ATOM     26 CL   UNL     1      -3.148  12.452  20.286  0.00  0.00    +0.000 Cl
ATOM     27  C   UNL     1      -1.908  10.776  18.571  0.00  0.00    +0.000 A 
ATOM     28  C   UNL     1      -0.780  10.169  18.010  0.00  0.00    +0.000 A 
ENDBRANCH  19  22
ENDBRANCH  17  20
ENDBRANCH   1  17
TORSDOF 5
ENDMDL
