MODEL 1
REMARK VINA RESULT:      -9.1      0.000      0.000
REMARK  Name = 
REMARK  7 active torsions:
REMARK  status: ('A' for Active; 'I' for Inactive)
REMARK    1  A    between atoms: C_1  and  C_2
REMARK    2  A    between atoms: C_5  and  C_6
REMARK    3  A    between atoms: N_8  and  C_9
REMARK    4  A    between atoms: C_13  and  C_14
REMARK    5  A    between atoms: C_14  and  N_15
REMARK    6  A    between atoms: C_18  and  C_19
REMARK    7  A    between atoms: N_21  and  C_22
REMARK                            x       y       z     vdW  Elec       q    Type
REMARK                         _______ _______ _______ _____ _____    ______ ____
ROOT
ATOM      1  C   UNL     1       0.673   9.529  19.763  0.00  0.00    +0.000 A 
ATOM      2  C   UNL     1       1.103   9.837  18.477  0.00  0.00    +0.000 A 
ATOM      3  C   UNL     1       2.026   9.026  17.807  0.00  0.00    +0.000 A 
ATOM      4  C   UNL     1       2.532   7.888  18.420  0.00  0.00    +0.000 A 
ATOM      5  C   UNL     1       2.141   7.550  19.719  0.00  0.00    +0.000 A 
ATOM      6  C   UNL     1       1.212   8.384  20.394  0.00  0.00    +0.000 A 
ENDROOT
BRANCH   1   9
ATOM      7  C   UNL     1      -0.029  11.414  21.279  0.00  0.00    +0.000 C 
ATOM      8  O   UNL     1       1.089  11.853  21.534  0.00  0.00    +0.000 OA
ATOM      9  N   UNL     1      -0.293  10.315  20.461  0.00  0.00    +0.000 N 
ATOM     10  H   UNL     1      -1.269  10.090  20.284  0.00  0.00    +0.000 HD
BRANCH   7  15
ATOM     11  C   UNL     1      -4.836  14.211  22.991  0.00  0.00    +0.000 C 
ATOM     12  C   UNL     1      -3.515  13.577  22.667  0.00  0.00    +0.000 A 
ATOM     13  C   UNL     1      -2.723  14.068  21.622  0.00  0.00    +0.000 A 
ATOM     14  C   UNL     1      -1.570  13.377  21.228  0.00  0.00    +0.000 A 
ATOM     15  C   UNL     1      -1.187  12.175  21.852  0.00  0.00    +0.000 A 
ATOM     16  C   UNL     1      -1.948  11.731  22.931  0.00  0.00    +0.000 A 
ATOM     17  F   UNL     1      -1.621  10.609  23.588  0.00  0.00    +0.000 F 
ATOM     18  C   UNL     1      -3.098  12.421  23.337  0.00  0.00    +0.000 A 
ENDBRANCH   7  15
ENDBRANCH   1   9
BRANCH   5  19
ATOM     19  C   UNL     1       2.639   6.240  20.313  0.00  0.00    +0.000 C 
BRANCH  19  20
ATOM     20  N   UNL     1       1.895   5.033  19.863  0.00  0.00    +0.000 NA
ATOM     21  C   UNL     1       1.757   5.044  18.396  0.00  0.00    +0.000 C 
ATOM     22  C   UNL     1       1.241   3.730  17.789  0.00  0.00    +0.000 C 
ATOM     23  C   UNL     1       1.995   2.500  18.310  0.00  0.00    +0.000 C 
ATOM     24  C   UNL     1       1.944   2.534  19.836  0.00  0.00    +0.000 C 
ATOM     25  C   UNL     1       2.570   3.827  20.365  0.00  0.00    +0.000 C 
BRANCH  23  26
ATOM     26  C   UNL     1       3.438   2.431  17.792  0.00  0.00    +0.000 C 
ATOM     27  O   UNL     1       4.120   1.412  17.845  0.00  0.00    +0.000 OA
ATOM     28  N   UNL     1       3.911   3.625  17.276  0.00  0.00    +0.000 N 
ATOM     29  H   UNL     1       3.438   4.471  17.565  0.00  0.00    +0.000 HD
BRANCH  28  30
ATOM     30  C   UNL     1       5.270   3.752  16.748  0.00  0.00    +0.000 C 
ATOM     31  C   UNL     1       5.326   4.620  15.476  0.00  0.00    +0.000 C 
ATOM     32  C   UNL     1       5.251   6.125  15.739  0.00  0.00    +0.000 C 
ATOM     33  C   UNL     1       6.255   6.574  16.792  0.00  0.00    +0.000 C 
ATOM     34  C   UNL     1       6.086   5.779  18.080  0.00  0.00    +0.000 C 
ATOM     35  C   UNL     1       6.234   4.281  17.822  0.00  0.00    +0.000 C 
ENDBRANCH  28  30
ENDBRANCH  23  26
ENDBRANCH  19  20
ENDBRANCH   5  19
TORSDOF 6
ENDMDL
MODEL 2
REMARK VINA RESULT:      -9.0      0.865      1.177
REMARK  Name = 
REMARK  7 active torsions:
REMARK  status: ('A' for Active; 'I' for Inactive)
REMARK    1  A    between atoms: C_1  and  C_2
REMARK    2  A    between atoms: C_5  and  C_6
REMARK    3  A    between atoms: N_8  and  C_9
REMARK    4  A    between atoms: C_13  and  C_14
REMARK    5  A    between atoms: C_14  and  N_15
REMARK    6  A    between atoms: C_18  and  C_19
REMARK    7  A    between atoms: N_21  and  C_22
REMARK                            x       y       z     vdW  Elec       q    Type
REMARK                         _______ _______ _______ _____ _____    ______ ____
ROOT
ATOM      1  C   UNL     1       0.554   9.505  19.668  0.00  0.00    +0.000 A 
ATOM      2  C   UNL     1       1.069   9.873  18.430  0.00  0.00    +0.000 A 
ATOM      3  C   UNL     1       2.091   9.135  17.820  0.00  0.00    +0.000 A 
ATOM      4  C   UNL     1       2.610   8.009  18.447  0.00  0.00    +0.000 A 
ATOM      5  C   UNL     1       2.133   7.613  19.701  0.00  0.00    +0.000 A 
ATOM      6  C   UNL     1       1.105   8.374  20.315  0.00  0.00    +0.000 A 
ENDROOT
BRANCH   1   9
ATOM      7  C   UNL     1      -0.378  11.239  21.239  0.00  0.00    +0.000 C 
ATOM      8  O   UNL     1       0.688  11.664  21.674  0.00  0.00    +0.000 OA
ATOM      9  N   UNL     1      -0.511  10.215  20.301  0.00  0.00    +0.000 N 
ATOM     10  H   UNL     1      -1.450   9.996  19.979  0.00  0.00    +0.000 HD
BRANCH   7  15
ATOM     11  C   UNL     1      -4.810  14.284  23.464  0.00  0.00    +0.000 C 
ATOM     12  C   UNL     1      -3.781  13.387  22.839  0.00  0.00    +0.000 A 
ATOM     13  C   UNL     1      -3.076  12.459  23.615  0.00  0.00    +0.000 A 
ATOM     14  C   UNL     1      -2.014  11.737  23.058  0.00  0.00    +0.000 A 
ATOM     15  C   UNL     1      -1.617  11.933  21.722  0.00  0.00    +0.000 A 
ATOM     16  C   UNL     1      -2.365  12.813  20.943  0.00  0.00    +0.000 A 
ATOM     17  F   UNL     1      -2.057  13.024  19.655  0.00  0.00    +0.000 F 
ATOM     18  C   UNL     1      -3.434  13.532  21.491  0.00  0.00    +0.000 A 
ENDBRANCH   7  15
ENDBRANCH   1   9
BRANCH   5  19
ATOM     19  C   UNL     1       2.657   6.317  20.302  0.00  0.00    +0.000 C 
BRANCH  19  20
ATOM     20  N   UNL     1       1.912   5.097  19.889  0.00  0.00    +0.000 NA
ATOM     21  C   UNL     1       1.737   5.085  18.427  0.00  0.00    +0.000 C 
ATOM     22  C   UNL     1       1.217   3.758  17.853  0.00  0.00    +0.000 C 
ATOM     23  C   UNL     1       1.995   2.542  18.372  0.00  0.00    +0.000 C 
ATOM     24  C   UNL     1       1.983   2.598  19.898  0.00  0.00    +0.000 C 
ATOM     25  C   UNL     1       2.611   3.905  20.391  0.00  0.00    +0.000 C 
BRANCH  23  26
ATOM     26  C   UNL     1       3.425   2.478  17.818  0.00  0.00    +0.000 C 
ATOM     27  O   UNL     1       4.092   1.448  17.805  0.00  0.00    +0.000 OA
ATOM     28  N   UNL     1       3.904   3.689  17.349  0.00  0.00    +0.000 N 
ATOM     29  H   UNL     1       3.451   4.526  17.690  0.00  0.00    +0.000 HD
BRANCH  28  30
ATOM     30  C   UNL     1       5.253   3.822  16.797  0.00  0.00    +0.000 C 
ATOM     31  C   UNL     1       5.284   4.704  15.534  0.00  0.00    +0.000 C 
ATOM     32  C   UNL     1       5.214   6.206  15.814  0.00  0.00    +0.000 C 
ATOM     33  C   UNL     1       6.239   6.644  16.853  0.00  0.00    +0.000 C 
ATOM     34  C   UNL     1       6.094   5.835  18.135  0.00  0.00    +0.000 C 
ATOM     35  C   UNL     1       6.237   4.340  17.858  0.00  0.00    +0.000 C 
ENDBRANCH  28  30
ENDBRANCH  23  26
ENDBRANCH  19  20
ENDBRANCH   5  19
TORSDOF 6
ENDMDL
MODEL 3
REMARK VINA RESULT:      -8.7      2.595      3.421
REMARK  Name = 
REMARK  7 active torsions:
REMARK  status: ('A' for Active; 'I' for Inactive)
REMARK    1  A    between atoms: C_1  and  C_2
REMARK    2  A    between atoms: C_5  and  C_6
REMARK    3  A    between atoms: N_8  and  C_9
REMARK    4  A    between atoms: C_13  and  C_14
REMARK    5  A    between atoms: C_14  and  N_15
REMARK    6  A    between atoms: C_18  and  C_19
REMARK    7  A    between atoms: N_21  and  C_22
REMARK                            x       y       z     vdW  Elec       q    Type
REMARK                         _______ _______ _______ _____ _____    ______ ____
ROOT
ATOM      1  C   UNL     1       0.561  10.735  20.162  0.00  0.00    +0.000 A 
ATOM      2  C   UNL     1       0.076  10.204  21.352  0.00  0.00    +0.000 A 
ATOM      3  C   UNL     1       0.316   8.869  21.701  0.00  0.00    +0.000 A 
ATOM      4  C   UNL     1       1.051   8.047  20.858  0.00  0.00    +0.000 A 
ATOM      5  C   UNL     1       1.542   8.535  19.643  0.00  0.00    +0.000 A 
ATOM      6  C   UNL     1       1.285   9.886  19.293  0.00  0.00    +0.000 A 
ENDROOT
BRANCH   1   9
ATOM      7  C   UNL     1       1.053  13.201  20.301  0.00  0.00    +0.000 C 
ATOM      8  O   UNL     1       1.923  13.153  21.166  0.00  0.00    +0.000 OA
ATOM      9  N   UNL     1       0.364  12.100  19.792  0.00  0.00    +0.000 N 
ATOM     10  H   UNL     1      -0.292  12.270  19.034  0.00  0.00    +0.000 HD
BRANCH   7  15
ATOM     11  C   UNL     1       0.068  18.194  17.479  0.00  0.00    +0.000 C 
ATOM     12  C   UNL     1       0.337  16.999  18.345  0.00  0.00    +0.000 A 
ATOM     13  C   UNL     1       1.627  16.465  18.448  0.00  0.00    +0.000 A 
ATOM     14  C   UNL     1       1.840  15.262  19.132  0.00  0.00    +0.000 A 
ATOM     15  C   UNL     1       0.773  14.554  19.717  0.00  0.00    +0.000 A 
ATOM     16  C   UNL     1      -0.496  15.127  19.662  0.00  0.00    +0.000 A 
ATOM     17  F   UNL     1      -1.550  14.518  20.224  0.00  0.00    +0.000 F 
ATOM     18  C   UNL     1      -0.714  16.334  18.987  0.00  0.00    +0.000 A 
ENDBRANCH   7  15
ENDBRANCH   1   9
BRANCH   5  19
ATOM     19  C   UNL     1       2.429   7.630  18.800  0.00  0.00    +0.000 C 
BRANCH  19  20
ATOM     20  N   UNL     1       2.278   6.178  19.082  0.00  0.00    +0.000 NA
ATOM     21  C   UNL     1       1.893   5.463  17.852  0.00  0.00    +0.000 C 
ATOM     22  C   UNL     1       1.961   3.932  17.950  0.00  0.00    +0.000 C 
ATOM     23  C   UNL     1       3.286   3.433  18.541  0.00  0.00    +0.000 C 
ATOM     24  C   UNL     1       3.498   4.145  19.876  0.00  0.00    +0.000 C 
ATOM     25  C   UNL     1       3.521   5.663  19.676  0.00  0.00    +0.000 C 
BRANCH  23  26
ATOM     26  C   UNL     1       4.471   3.647  17.590  0.00  0.00    +0.000 C 
ATOM     27  O   UNL     1       4.460   3.290  16.416  0.00  0.00    +0.000 OA
ATOM     28  N   UNL     1       5.564   4.263  18.176  0.00  0.00    +0.000 N 
ATOM     29  H   UNL     1       5.629   4.220  19.185  0.00  0.00    +0.000 HD
BRANCH  28  30
ATOM     30  C   UNL     1       6.789   4.536  17.426  0.00  0.00    +0.000 C 
ATOM     31  C   UNL     1       6.633   5.728  16.462  0.00  0.00    +0.000 C 
ATOM     32  C   UNL     1       6.702   7.098  17.139  0.00  0.00    +0.000 C 
ATOM     33  C   UNL     1       7.926   7.233  18.035  0.00  0.00    +0.000 C 
ATOM     34  C   UNL     1       7.980   6.107  19.058  0.00  0.00    +0.000 C 
ATOM     35  C   UNL     1       7.983   4.743  18.372  0.00  0.00    +0.000 C 
ENDBRANCH  28  30
ENDBRANCH  23  26
ENDBRANCH  19  20
ENDBRANCH   5  19
TORSDOF 6
ENDMDL
MODEL 4
REMARK VINA RESULT:      -8.6      3.596     10.278
REMARK  Name = 
REMARK  7 active torsions:
REMARK  status: ('A' for Active; 'I' for Inactive)
REMARK    1  A    between atoms: C_1  and  C_2
REMARK    2  A    between atoms: C_5  and  C_6
REMARK    3  A    between atoms: N_8  and  C_9
REMARK    4  A    between atoms: C_13  and  C_14
REMARK    5  A    between atoms: C_14  and  N_15
REMARK    6  A    between atoms: C_18  and  C_19
REMARK    7  A    between atoms: N_21  and  C_22
REMARK                            x       y       z     vdW  Elec       q    Type
REMARK                         _______ _______ _______ _____ _____    ______ ____
ROOT
ATOM      1  C   UNL     1       2.941   5.268  18.524  0.00  0.00    +0.000 A 
ATOM      2  C   UNL     1       2.219   4.179  19.000  0.00  0.00    +0.000 A 
ATOM      3  C   UNL     1       1.363   4.300  20.101  0.00  0.00    +0.000 A 
ATOM      4  C   UNL     1       1.217   5.524  20.741  0.00  0.00    +0.000 A 
ATOM      5  C   UNL     1       1.936   6.641  20.306  0.00  0.00    +0.000 A 
ATOM      6  C   UNL     1       2.809   6.505  19.196  0.00  0.00    +0.000 A 
ENDROOT
BRANCH   1   9
ATOM      7  C   UNL     1       5.087   4.661  17.355  0.00  0.00    +0.000 C 
ATOM      8  O   UNL     1       5.687   4.208  18.325  0.00  0.00    +0.000 OA
ATOM      9  N   UNL     1       3.795   5.186  17.383  0.00  0.00    +0.000 N 
ATOM     10  H   UNL     1       3.390   5.476  16.496  0.00  0.00    +0.000 HD
BRANCH   7  15
ATOM     11  C   UNL     1       7.361   4.638  11.998  0.00  0.00    +0.000 C 
ATOM     12  C   UNL     1       6.883   4.522  13.416  0.00  0.00    +0.000 A 
ATOM     13  C   UNL     1       5.763   3.745  13.732  0.00  0.00    +0.000 A 
ATOM     14  C   UNL     1       5.233   3.767  15.028  0.00  0.00    +0.000 A 
ATOM     15  C   UNL     1       5.796   4.573  16.035  0.00  0.00    +0.000 A 
ATOM     16  C   UNL     1       6.948   5.292  15.725  0.00  0.00    +0.000 A 
ATOM     17  F   UNL     1       7.550   6.057  16.647  0.00  0.00    +0.000 F 
ATOM     18  C   UNL     1       7.488   5.269  14.434  0.00  0.00    +0.000 A 
ENDBRANCH   7  15
ENDBRANCH   1   9
BRANCH   5  19
ATOM     19  C   UNL     1       1.667   7.984  20.970  0.00  0.00    +0.000 C 
BRANCH  19  20
ATOM     20  N   UNL     1       0.728   8.865  20.226  0.00  0.00    +0.000 NA
ATOM     21  C   UNL     1       0.040   9.772  21.160  0.00  0.00    +0.000 C 
ATOM     22  C   UNL     1      -0.756  10.903  20.491  0.00  0.00    +0.000 C 
ATOM     23  C   UNL     1       0.055  11.648  19.423  0.00  0.00    +0.000 C 
ATOM     24  C   UNL     1       0.595  10.611  18.441  0.00  0.00    +0.000 C 
ATOM     25  C   UNL     1       1.462   9.581  19.171  0.00  0.00    +0.000 C 
BRANCH  23  26
ATOM     26  C   UNL     1       1.181  12.498  20.027  0.00  0.00    +0.000 C 
ATOM     27  O   UNL     1       1.530  12.410  21.200  0.00  0.00    +0.000 OA
ATOM     28  N   UNL     1       1.758  13.387  19.138  0.00  0.00    +0.000 N 
ATOM     29  H   UNL     1       1.217  13.638  18.321  0.00  0.00    +0.000 HD
BRANCH  28  30
ATOM     30  C   UNL     1       2.839  14.288  19.540  0.00  0.00    +0.000 C 
ATOM     31  C   UNL     1       3.910  14.446  18.444  0.00  0.00    +0.000 C 
ATOM     32  C   UNL     1       3.508  15.382  17.303  0.00  0.00    +0.000 C 
ATOM     33  C   UNL     1       2.999  16.724  17.814  0.00  0.00    +0.000 C 
ATOM     34  C   UNL     1       1.856  16.533  18.801  0.00  0.00    +0.000 C 
ATOM     35  C   UNL     1       2.286  15.656  19.974  0.00  0.00    +0.000 C 
ENDBRANCH  28  30
ENDBRANCH  23  26
ENDBRANCH  19  20
ENDBRANCH   5  19
TORSDOF 6
ENDMDL
MODEL 5
REMARK VINA RESULT:      -8.6      2.753      3.561
REMARK  Name = 
REMARK  7 active torsions:
REMARK  status: ('A' for Active; 'I' for Inactive)
REMARK    1  A    between atoms: C_1  and  C_2
REMARK    2  A    between atoms: C_5  and  C_6
REMARK    3  A    between atoms: N_8  and  C_9
REMARK    4  A    between atoms: C_13  and  C_14
REMARK    5  A    between atoms: C_14  and  N_15
REMARK    6  A    between atoms: C_18  and  C_19
REMARK    7  A    between atoms: N_21  and  C_22
REMARK                            x       y       z     vdW  Elec       q    Type
REMARK                         _______ _______ _______ _____ _____    ______ ____
ROOT
ATOM      1  C   UNL     1       0.475  10.569  20.427  0.00  0.00    +0.000 A 
ATOM      2  C   UNL     1      -0.299  10.250  21.537  0.00  0.00    +0.000 A 
ATOM      3  C   UNL     1      -0.259   8.973  22.108  0.00  0.00    +0.000 A 
ATOM      4  C   UNL     1       0.566   7.993  21.570  0.00  0.00    +0.000 A 
ATOM      5  C   UNL     1       1.348   8.264  20.444  0.00  0.00    +0.000 A 
ATOM      6  C   UNL     1       1.292   9.560  19.867  0.00  0.00    +0.000 A 
ENDROOT
BRANCH   1   9
ATOM      7  C   UNL     1       1.208  12.975  20.294  0.00  0.00    +0.000 C 
ATOM      8  O   UNL     1       1.934  12.987  21.284  0.00  0.00    +0.000 OA
ATOM      9  N   UNL     1       0.483  11.872  19.842  0.00  0.00    +0.000 N 
ATOM     10  H   UNL     1      -0.036  11.978  18.974  0.00  0.00    +0.000 HD
BRANCH   7  15
ATOM     11  C   UNL     1       0.923  18.178  17.704  0.00  0.00    +0.000 C 
ATOM     12  C   UNL     1       0.980  16.770  18.220  0.00  0.00    +0.000 A 
ATOM     13  C   UNL     1      -0.168  16.144  18.720  0.00  0.00    +0.000 A 
ATOM     14  C   UNL     1      -0.075  14.892  19.339  0.00  0.00    +0.000 A 
ATOM     15  C   UNL     1       1.163  14.240  19.489  0.00  0.00    +0.000 A 
ATOM     16  C   UNL     1       2.288  14.843  18.931  0.00  0.00    +0.000 A 
ATOM     17  F   UNL     1       3.493  14.261  19.013  0.00  0.00    +0.000 F 
ATOM     18  C   UNL     1       2.201  16.092  18.303  0.00  0.00    +0.000 A 
ENDBRANCH   7  15
ENDBRANCH   1   9
BRANCH   5  19
ATOM     19  C   UNL     1       2.313   7.196  19.952  0.00  0.00    +0.000 C 
BRANCH  19  20
ATOM     20  N   UNL     1       1.697   5.860  19.732  0.00  0.00    +0.000 NA
ATOM     21  C   UNL     1       1.840   5.465  18.320  0.00  0.00    +0.000 C 
ATOM     22  C   UNL     1       1.480   4.001  18.022  0.00  0.00    +0.000 C 
ATOM     23  C   UNL     1       2.151   3.017  18.988  0.00  0.00    +0.000 C 
ATOM     24  C   UNL     1       1.812   3.456  20.411  0.00  0.00    +0.000 C 
ATOM     25  C   UNL     1       2.295   4.887  20.660  0.00  0.00    +0.000 C 
BRANCH  23  26
ATOM     26  C   UNL     1       3.668   2.921  18.771  0.00  0.00    +0.000 C 
ATOM     27  O   UNL     1       4.411   2.283  19.511  0.00  0.00    +0.000 OA
ATOM     28  N   UNL     1       4.129   3.632  17.676  0.00  0.00    +0.000 N 
ATOM     29  H   UNL     1       3.539   4.378  17.331  0.00  0.00    +0.000 HD
BRANCH  28  30
ATOM     30  C   UNL     1       5.548   3.667  17.322  0.00  0.00    +0.000 C 
ATOM     31  C   UNL     1       5.770   3.921  15.819  0.00  0.00    +0.000 C 
ATOM     32  C   UNL     1       5.593   5.380  15.394  0.00  0.00    +0.000 C 
ATOM     33  C   UNL     1       6.397   6.333  16.268  0.00  0.00    +0.000 C 
ATOM     34  C   UNL     1       6.058   6.141  17.740  0.00  0.00    +0.000 C 
ATOM     35  C   UNL     1       6.306   4.698  18.175  0.00  0.00    +0.000 C 
ENDBRANCH  28  30
ENDBRANCH  23  26
ENDBRANCH  19  20
ENDBRANCH   5  19
TORSDOF 6
ENDMDL
MODEL 6
REMARK VINA RESULT:      -8.6      1.690      2.398
REMARK  Name = 
REMARK  7 active torsions:
REMARK  status: ('A' for Active; 'I' for Inactive)
REMARK    1  A    between atoms: C_1  and  C_2
REMARK    2  A    between atoms: C_5  and  C_6
REMARK    3  A    between atoms: N_8  and  C_9
REMARK    4  A    between atoms: C_13  and  C_14
REMARK    5  A    between atoms: C_14  and  N_15
REMARK    6  A    between atoms: C_18  and  C_19
REMARK    7  A    between atoms: N_21  and  C_22
REMARK                            x       y       z     vdW  Elec       q    Type
REMARK                         _______ _______ _______ _____ _____    ______ ____
ROOT
ATOM      1  C   UNL     1       1.399   7.896  20.337  0.00  0.00    +0.000 A 
ATOM      2  C   UNL     1       2.147   7.912  19.165  0.00  0.00    +0.000 A 
ATOM      3  C   UNL     1       2.917   6.808  18.780  0.00  0.00    +0.000 A 
ATOM      4  C   UNL     1       2.945   5.666  19.570  0.00  0.00    +0.000 A 
ATOM      5  C   UNL     1       2.222   5.613  20.765  0.00  0.00    +0.000 A 
ATOM      6  C   UNL     1       1.453   6.741  21.152  0.00  0.00    +0.000 A 
ENDROOT
BRANCH   1   9
ATOM      7  C   UNL     1       0.715   9.742  21.908  0.00  0.00    +0.000 C 
ATOM      8  O   UNL     1       1.563   9.552  22.774  0.00  0.00    +0.000 OA
ATOM      9  N   UNL     1       0.576   8.991  20.741  0.00  0.00    +0.000 N 
ATOM     10  H   UNL     1      -0.132   9.290  20.075  0.00  0.00    +0.000 HD
BRANCH   7  15
ATOM     11  C   UNL     1      -2.550  14.361  23.274  0.00  0.00    +0.000 C 
ATOM     12  C   UNL     1      -1.814  13.145  22.794  0.00  0.00    +0.000 A 
ATOM     13  C   UNL     1      -2.052  11.891  23.371  0.00  0.00    +0.000 A 
ATOM     14  C   UNL     1      -1.254  10.794  23.026  0.00  0.00    +0.000 A 
ATOM     15  C   UNL     1      -0.190  10.921  22.113  0.00  0.00    +0.000 A 
ATOM     16  C   UNL     1      -0.003  12.158  21.500  0.00  0.00    +0.000 A 
ATOM     17  F   UNL     1       0.974  12.338  20.599  0.00  0.00    +0.000 F 
ATOM     18  C   UNL     1      -0.804  13.257  21.833  0.00  0.00    +0.000 A 
ENDBRANCH   7  15
ENDBRANCH   1   9
BRANCH   5  19
ATOM     19  C   UNL     1       2.199   4.306  21.545  0.00  0.00    +0.000 C 
BRANCH  19  20
ATOM     20  N   UNL     1       2.352   3.085  20.710  0.00  0.00    +0.000 NA
ATOM     21  C   UNL     1       1.239   2.987  19.750  0.00  0.00    +0.000 C 
ATOM     22  C   UNL     1       1.420   1.918  18.662  0.00  0.00    +0.000 C 
ATOM     23  C   UNL     1       2.792   1.990  17.981  0.00  0.00    +0.000 C 
ATOM     24  C   UNL     1       3.858   1.943  19.074  0.00  0.00    +0.000 C 
ATOM     25  C   UNL     1       3.670   3.101  20.057  0.00  0.00    +0.000 C 
BRANCH  23  26
ATOM     26  C   UNL     1       2.943   3.235  17.095  0.00  0.00    +0.000 C 
ATOM     27  O   UNL     1       1.993   3.787  16.550  0.00  0.00    +0.000 OA
ATOM     28  N   UNL     1       4.249   3.671  16.950  0.00  0.00    +0.000 N 
ATOM     29  H   UNL     1       4.981   2.999  17.136  0.00  0.00    +0.000 HD
BRANCH  28  30
ATOM     30  C   UNL     1       4.586   4.835  16.130  0.00  0.00    +0.000 C 
ATOM     31  C   UNL     1       5.613   5.756  16.816  0.00  0.00    +0.000 C 
ATOM     32  C   UNL     1       7.055   5.249  16.749  0.00  0.00    +0.000 C 
ATOM     33  C   UNL     1       7.466   4.876  15.331  0.00  0.00    +0.000 C 
ATOM     34  C   UNL     1       6.497   3.866  14.731  0.00  0.00    +0.000 C 
ATOM     35  C   UNL     1       5.070   4.409  14.735  0.00  0.00    +0.000 C 
ENDBRANCH  28  30
ENDBRANCH  23  26
ENDBRANCH  19  20
ENDBRANCH   5  19
TORSDOF 6
ENDMDL
MODEL 7
REMARK VINA RESULT:      -8.5      1.262      1.455
REMARK  Name = 
REMARK  7 active torsions:
REMARK  status: ('A' for Active; 'I' for Inactive)
REMARK    1  A    between atoms: C_1  and  C_2
REMARK    2  A    between atoms: C_5  and  C_6
REMARK    3  A    between atoms: N_8  and  C_9
REMARK    4  A    between atoms: C_13  and  C_14
REMARK    5  A    between atoms: C_14  and  N_15
REMARK    6  A    between atoms: C_18  and  C_19
REMARK    7  A    between atoms: N_21  and  C_22
REMARK                            x       y       z     vdW  Elec       q    Type
REMARK                         _______ _______ _______ _____ _____    ______ ____
ROOT
ATOM      1  C   UNL     1       0.699   9.236  19.472  0.00  0.00    +0.000 A 
ATOM      2  C   UNL     1       1.186   9.526  18.203  0.00  0.00    +0.000 A 
ATOM      3  C   UNL     1       2.216   8.770  17.630  0.00  0.00    +0.000 A 
ATOM      4  C   UNL     1       2.772   7.705  18.327  0.00  0.00    +0.000 A 
ATOM      5  C   UNL     1       2.325   7.389  19.614  0.00  0.00    +0.000 A 
ATOM      6  C   UNL     1       1.288   8.169  20.189  0.00  0.00    +0.000 A 
ENDROOT
BRANCH   1   9
ATOM      7  C   UNL     1      -0.284  11.223  20.668  0.00  0.00    +0.000 C 
ATOM      8  O   UNL     1       0.746  11.879  20.784  0.00  0.00    +0.000 OA
ATOM      9  N   UNL     1      -0.373   9.965  20.071  0.00  0.00    +0.000 N 
ATOM     10  H   UNL     1      -1.299   9.553  19.987  0.00  0.00    +0.000 HD
BRANCH   7  15
ATOM     11  C   UNL     1      -5.476  13.267  22.319  0.00  0.00    +0.000 C 
ATOM     12  C   UNL     1      -4.078  12.893  21.925  0.00  0.00    +0.000 A 
ATOM     13  C   UNL     1      -3.685  12.909  20.581  0.00  0.00    +0.000 A 
ATOM     14  C   UNL     1      -2.431  12.412  20.207  0.00  0.00    +0.000 A 
ATOM     15  C   UNL     1      -1.544  11.873  21.159  0.00  0.00    +0.000 A 
ATOM     16  C   UNL     1      -1.920  11.921  22.499  0.00  0.00    +0.000 A 
ATOM     17  F   UNL     1      -1.109  11.451  23.458  0.00  0.00    +0.000 F 
ATOM     18  C   UNL     1      -3.170  12.425  22.881  0.00  0.00    +0.000 A 
ENDBRANCH   7  15
ENDBRANCH   1   9
BRANCH   5  19
ATOM     19  C   UNL     1       2.890   6.153  20.298  0.00  0.00    +0.000 C 
BRANCH  19  20
ATOM     20  N   UNL     1       2.628   4.876  19.583  0.00  0.00    +0.000 NA
ATOM     21  C   UNL     1       2.132   5.151  18.224  0.00  0.00    +0.000 C 
ATOM     22  C   UNL     1       2.074   3.926  17.299  0.00  0.00    +0.000 C 
ATOM     23  C   UNL     1       3.376   3.115  17.307  0.00  0.00    +0.000 C 
ATOM     24  C   UNL     1       3.705   2.775  18.759  0.00  0.00    +0.000 C 
ATOM     25  C   UNL     1       3.847   4.053  19.590  0.00  0.00    +0.000 C 
BRANCH  23  26
ATOM     26  C   UNL     1       4.533   3.855  16.622  0.00  0.00    +0.000 C 
ATOM     27  O   UNL     1       4.415   4.429  15.544  0.00  0.00    +0.000 OA
ATOM     28  N   UNL     1       5.728   3.805  17.318  0.00  0.00    +0.000 N 
ATOM     29  H   UNL     1       5.835   3.060  17.995  0.00  0.00    +0.000 HD
BRANCH  28  30
ATOM     30  C   UNL     1       6.943   4.443  16.811  0.00  0.00    +0.000 C 
ATOM     31  C   UNL     1       6.664   5.827  16.193  0.00  0.00    +0.000 C 
ATOM     32  C   UNL     1       6.464   6.944  17.218  0.00  0.00    +0.000 C 
ATOM     33  C   UNL     1       7.586   6.984  18.249  0.00  0.00    +0.000 C 
ATOM     34  C   UNL     1       7.749   5.632  18.929  0.00  0.00    +0.000 C 
ATOM     35  C   UNL     1       8.020   4.532  17.905  0.00  0.00    +0.000 C 
ENDBRANCH  28  30
ENDBRANCH  23  26
ENDBRANCH  19  20
ENDBRANCH   5  19
TORSDOF 6
ENDMDL
MODEL 8
REMARK VINA RESULT:      -8.5      2.223      2.985
REMARK  Name = 
REMARK  7 active torsions:
REMARK  status: ('A' for Active; 'I' for Inactive)
REMARK    1  A    between atoms: C_1  and  C_2
REMARK    2  A    between atoms: C_5  and  C_6
REMARK    3  A    between atoms: N_8  and  C_9
REMARK    4  A    between atoms: C_13  and  C_14
REMARK    5  A    between atoms: C_14  and  N_15
REMARK    6  A    between atoms: C_18  and  C_19
REMARK    7  A    between atoms: N_21  and  C_22
REMARK                            x       y       z     vdW  Elec       q    Type
REMARK                         _______ _______ _______ _____ _____    ______ ____
ROOT
ATOM      1  C   UNL     1       0.407  10.505  20.747  0.00  0.00    +0.000 A 
ATOM      2  C   UNL     1      -0.164   9.822  21.816  0.00  0.00    +0.000 A 
ATOM      3  C   UNL     1       0.057   8.453  22.004  0.00  0.00    +0.000 A 
ATOM      4  C   UNL     1       0.861   7.747  21.119  0.00  0.00    +0.000 A 
ATOM      5  C   UNL     1       1.441   8.389  20.021  0.00  0.00    +0.000 A 
ATOM      6  C   UNL     1       1.202   9.775  19.833  0.00  0.00    +0.000 A 
ENDROOT
BRANCH   1   9
ATOM      7  C   UNL     1      -0.644  12.508  19.639  0.00  0.00    +0.000 C 
ATOM      8  O   UNL     1      -1.378  11.906  18.861  0.00  0.00    +0.000 OA
ATOM      9  N   UNL     1       0.230  11.907  20.546  0.00  0.00    +0.000 N 
ATOM     10  H   UNL     1       0.741  12.520  21.177  0.00  0.00    +0.000 HD
BRANCH   7  15
ATOM     11  C   UNL     1      -1.419  18.251  19.115  0.00  0.00    +0.000 C 
ATOM     12  C   UNL     1      -1.100  16.806  19.361  0.00  0.00    +0.000 A 
ATOM     13  C   UNL     1      -0.234  16.109  18.509  0.00  0.00    +0.000 A 
ATOM     14  C   UNL     1      -0.063  14.727  18.655  0.00  0.00    +0.000 A 
ATOM     15  C   UNL     1      -0.760  14.003  19.640  0.00  0.00    +0.000 A 
ATOM     16  C   UNL     1      -1.570  14.717  20.521  0.00  0.00    +0.000 A 
ATOM     17  F   UNL     1      -2.239  14.091  21.500  0.00  0.00    +0.000 F 
ATOM     18  C   UNL     1      -1.739  16.100  20.387  0.00  0.00    +0.000 A 
ENDBRANCH   7  15
ENDBRANCH   1   9
BRANCH   5  19
ATOM     19  C   UNL     1       2.397   7.601  19.137  0.00  0.00    +0.000 C 
BRANCH  19  20
ATOM     20  N   UNL     1       2.250   6.124  19.230  0.00  0.00    +0.000 NA
ATOM     21  C   UNL     1       1.838   5.575  17.926  0.00  0.00    +0.000 C 
ATOM     22  C   UNL     1       1.907   4.044  17.822  0.00  0.00    +0.000 C 
ATOM     23  C   UNL     1       3.244   3.476  18.314  0.00  0.00    +0.000 C 
ATOM     24  C   UNL     1       3.486   4.007  19.725  0.00  0.00    +0.000 C 
ATOM     25  C   UNL     1       3.506   5.538  19.725  0.00  0.00    +0.000 C 
BRANCH  23  26
ATOM     26  C   UNL     1       4.409   3.814  17.373  0.00  0.00    +0.000 C 
ATOM     27  O   UNL     1       4.334   3.712  16.152  0.00  0.00    +0.000 OA
ATOM     28  N   UNL     1       5.559   4.229  18.022  0.00  0.00    +0.000 N 
ATOM     29  H   UNL     1       5.656   3.972  18.995  0.00  0.00    +0.000 HD
BRANCH  28  30
ATOM     30  C   UNL     1       6.774   4.581  17.287  0.00  0.00    +0.000 C 
ATOM     31  C   UNL     1       6.607   5.872  16.463  0.00  0.00    +0.000 C 
ATOM     32  C   UNL     1       6.691   7.159  17.286  0.00  0.00    +0.000 C 
ATOM     33  C   UNL     1       7.929   7.193  18.173  0.00  0.00    +0.000 C 
ATOM     34  C   UNL     1       7.994   5.961  19.065  0.00  0.00    +0.000 C 
ATOM     35  C   UNL     1       7.983   4.680  18.232  0.00  0.00    +0.000 C 
ENDBRANCH  28  30
ENDBRANCH  23  26
ENDBRANCH  19  20
ENDBRANCH   5  19
TORSDOF 6
ENDMDL
MODEL 9
REMARK VINA RESULT:      -8.4      3.080     10.703
REMARK  Name = 
REMARK  7 active torsions:
REMARK  status: ('A' for Active; 'I' for Inactive)
REMARK    1  A    between atoms: C_1  and  C_2
REMARK    2  A    between atoms: C_5  and  C_6
REMARK    3  A    between atoms: N_8  and  C_9
REMARK    4  A    between atoms: C_13  and  C_14
REMARK    5  A    between atoms: C_14  and  N_15
REMARK    6  A    between atoms: C_18  and  C_19
REMARK    7  A    between atoms: N_21  and  C_22
REMARK                            x       y       z     vdW  Elec       q    Type
REMARK                         _______ _______ _______ _____ _____    ______ ____
ROOT
ATOM      1  C   UNL     1      -0.031  10.462  19.351  0.00  0.00    +0.000 A 
ATOM      2  C   UNL     1      -0.905  10.891  18.358  0.00  0.00    +0.000 A 
ATOM      3  C   UNL     1      -1.615  12.090  18.485  0.00  0.00    +0.000 A 
ATOM      4  C   UNL     1      -1.455  12.881  19.615  0.00  0.00    +0.000 A 
ATOM      5  C   UNL     1      -0.599  12.481  20.645  0.00  0.00    +0.000 A 
ATOM      6  C   UNL     1       0.108  11.258  20.511  0.00  0.00    +0.000 A 
ENDROOT
BRANCH   1   9
ATOM      7  C   UNL     1       1.810   9.047  18.374  0.00  0.00    +0.000 C 
ATOM      8  O   UNL     1       2.242   9.863  17.566  0.00  0.00    +0.000 OA
ATOM      9  N   UNL     1       0.735   9.262  19.237  0.00  0.00    +0.000 N 
ATOM     10  H   UNL     1       0.514   8.524  19.900  0.00  0.00    +0.000 HD
BRANCH   7  15
ATOM     11  C   UNL     1       5.210   4.345  18.817  0.00  0.00    +0.000 C 
ATOM     12  C   UNL     1       4.218   5.456  18.638  0.00  0.00    +0.000 A 
ATOM     13  C   UNL     1       4.264   6.282  17.508  0.00  0.00    +0.000 A 
ATOM     14  C   UNL     1       3.436   7.408  17.424  0.00  0.00    +0.000 A 
ATOM     15  C   UNL     1       2.554   7.748  18.467  0.00  0.00    +0.000 A 
ATOM     16  C   UNL     1       2.472   6.884  19.557  0.00  0.00    +0.000 A 
ATOM     17  F   UNL     1       1.631   7.134  20.571  0.00  0.00    +0.000 F 
ATOM     18  C   UNL     1       3.291   5.751  19.644  0.00  0.00    +0.000 A 
ENDBRANCH   7  15
ENDBRANCH   1   9
BRANCH   5  19
ATOM     19  C   UNL     1      -0.375  13.427  21.815  0.00  0.00    +0.000 C 
BRANCH  19  20
ATOM     20  N   UNL     1      -1.270  13.195  22.980  0.00  0.00    +0.000 NA
ATOM     21  C   UNL     1      -1.840  14.472  23.441  0.00  0.00    +0.000 C 
ATOM     22  C   UNL     1      -2.978  14.338  24.464  0.00  0.00    +0.000 C 
ATOM     23  C   UNL     1      -4.048  13.328  24.031  0.00  0.00    +0.000 C 
ATOM     24  C   UNL     1      -3.345  12.009  23.717  0.00  0.00    +0.000 C 
ATOM     25  C   UNL     1      -2.300  12.209  22.616  0.00  0.00    +0.000 C 
BRANCH  23  26
ATOM     26  C   UNL     1      -4.879  13.826  22.840  0.00  0.00    +0.000 C 
ATOM     27  O   UNL     1      -4.988  15.013  22.550  0.00  0.00    +0.000 OA
ATOM     28  N   UNL     1      -5.511  12.819  22.131  0.00  0.00    +0.000 N 
ATOM     29  H   UNL     1      -5.651  11.938  22.608  0.00  0.00    +0.000 HD
BRANCH  28  30
ATOM     30  C   UNL     1      -6.356  13.107  20.972  0.00  0.00    +0.000 C 
ATOM     31  C   UNL     1      -5.563  13.101  19.651  0.00  0.00    +0.000 C 
ATOM     32  C   UNL     1      -5.245  11.703  19.116  0.00  0.00    +0.000 C 
ATOM     33  C   UNL     1      -6.482  10.818  19.052  0.00  0.00    +0.000 C 
ATOM     34  C   UNL     1      -7.171  10.746  20.408  0.00  0.00    +0.000 C 
ATOM     35  C   UNL     1      -7.550  12.140  20.904  0.00  0.00    +0.000 C 
ENDBRANCH  28  30
ENDBRANCH  23  26
ENDBRANCH  19  20
ENDBRANCH   5  19
TORSDOF 6
ENDMDL
