MODEL 1
REMARK VINA RESULT:      -8.6      0.000      0.000
REMARK  Name = 
REMARK  9 active torsions:
REMARK  status: ('A' for Active; 'I' for Inactive)
REMARK    1  A    between atoms: N_1  and  C_2
REMARK    2  A    between atoms: C_2  and  C_3
REMARK    3  A    between atoms: C_2  and  C_19
REMARK    4  A    between atoms: C_3  and  O_4
REMARK    5  A    between atoms: O_4  and  C_5
REMARK    6  A    between atoms: C_9  and  C_10
REMARK    7  A    between atoms: C_11  and  C_12
REMARK    8  A    between atoms: C_19  and  C_20
REMARK    9  A    between atoms: C_19  and  C_26
REMARK                            x       y       z     vdW  Elec       q    Type
REMARK                         _______ _______ _______ _____ _____    ______ ____
ROOT
ATOM      1  C   UNL     1       3.097   4.720  17.246  0.00  0.00    +0.000 C 
ENDROOT
BRANCH   1   2
ATOM      2  N   UNL     1       2.375   3.427  17.124  0.00  0.00    +0.000 NA
ATOM      3  H   UNL     1       1.395   3.544  17.377  0.00  0.00    +0.000 HD
ATOM      4  H   UNL     1       2.757   2.749  17.780  0.00  0.00    +0.000 HD
ENDBRANCH   1   2
BRANCH   1   5
ATOM      5  C   UNL     1       4.521   4.540  16.693  0.00  0.00    +0.000 C 
BRANCH   5   6
ATOM      6  O   UNL     1       5.164   5.816  16.546  0.00  0.00    +0.000 OA
BRANCH   6   7
ATOM      7  C   UNL     1       6.194   6.049  17.412  0.00  0.00    +0.000 A 
ATOM      8  C   UNL     1       6.547   5.031  18.284  0.00  0.00    +0.000 A 
ATOM      9  N   UNL     1       7.554   5.120  19.187  0.00  0.00    +0.000 NA
ATOM     10  C   UNL     1       8.250   6.283  19.202  0.00  0.00    +0.000 A 
ATOM     11  C   UNL     1       7.993   7.361  18.362  0.00  0.00    +0.000 A 
ATOM     12  C   UNL     1       6.921   7.234  17.481  0.00  0.00    +0.000 A 
BRANCH  11  13
ATOM     13  C   UNL     1       8.784   8.597  18.424  0.00  0.00    +0.000 C 
ATOM     14  C   UNL     1       8.273   9.811  18.147  0.00  0.00    +0.000 C 
BRANCH  14  15
ATOM     15  C   UNL     1       9.033  11.063  18.193  0.00  0.00    +0.000 A 
ATOM     16  C   UNL     1       8.529  12.254  17.678  0.00  0.00    +0.000 A 
ATOM     17  C   UNL     1       9.292  13.405  17.804  0.00  0.00    +0.000 A 
ATOM     18  N   UNL     1      10.496  13.448  18.403  0.00  0.00    +0.000 NA
ATOM     19  C   UNL     1      10.960  12.288  18.911  0.00  0.00    +0.000 A 
ATOM     20  C   UNL     1      10.274  11.088  18.838  0.00  0.00    +0.000 A 
ENDBRANCH  14  15
ENDBRANCH  11  13
ENDBRANCH   6   7
ENDBRANCH   5   6
ENDBRANCH   1   5
BRANCH   1  21
ATOM     21  C   UNL     1       3.132   5.270  18.727  0.00  0.00    +0.000 C 
BRANCH  21  22
ATOM     22  C   UNL     1       2.474   6.648  18.849  0.00  0.00    +0.000 A 
ATOM     23  C   UNL     1       2.212   7.429  17.713  0.00  0.00    +0.000 A 
ATOM     24  C   UNL     1       1.686   8.715  17.835  0.00  0.00    +0.000 A 
ATOM     25  C   UNL     1       1.406   9.240  19.096  0.00  0.00    +0.000 A 
ATOM     26  C   UNL     1       1.639   8.473  20.230  0.00  0.00    +0.000 A 
ATOM     27  C   UNL     1       2.166   7.181  20.113  0.00  0.00    +0.000 A 
ENDBRANCH  21  22
BRANCH  21  28
ATOM     28  C   UNL     1       2.579   4.285  19.763  0.00  0.00    +0.000 A 
ATOM     29  C   UNL     1       3.463   3.559  20.578  0.00  0.00    +0.000 A 
ATOM     30  C   UNL     1       2.979   2.609  21.481  0.00  0.00    +0.000 A 
ATOM     31  C   UNL     1       1.611   2.369  21.580  0.00  0.00    +0.000 A 
ATOM     32  C   UNL     1       0.721   3.097  20.798  0.00  0.00    +0.000 A 
ATOM     33  C   UNL     1       1.200   4.063  19.916  0.00  0.00    +0.000 A 
ENDBRANCH  21  28
ENDBRANCH   1  21
TORSDOF 9
ENDMDL
MODEL 2
REMARK VINA RESULT:      -8.4      0.691      1.086
REMARK  Name = 
REMARK  9 active torsions:
REMARK  status: ('A' for Active; 'I' for Inactive)
REMARK    1  A    between atoms: N_1  and  C_2
REMARK    2  A    between atoms: C_2  and  C_3
REMARK    3  A    between atoms: C_2  and  C_19
REMARK    4  A    between atoms: C_3  and  O_4
REMARK    5  A    between atoms: O_4  and  C_5
REMARK    6  A    between atoms: C_9  and  C_10
REMARK    7  A    between atoms: C_11  and  C_12
REMARK    8  A    between atoms: C_19  and  C_20
REMARK    9  A    between atoms: C_19  and  C_26
REMARK                            x       y       z     vdW  Elec       q    Type
REMARK                         _______ _______ _______ _____ _____    ______ ____
ROOT
ATOM      1  C   UNL     1       3.582   5.367  16.956  0.00  0.00    +0.000 C 
ENDROOT
BRANCH   1   2
ATOM      2  N   UNL     1       4.002   3.960  16.728  0.00  0.00    +0.000 NA
ATOM      3  H   UNL     1       4.997   3.919  16.508  0.00  0.00    +0.000 HD
ATOM      4  H   UNL     1       3.518   3.576  15.919  0.00  0.00    +0.000 HD
ENDBRANCH   1   2
BRANCH   1   5
ATOM      5  C   UNL     1       4.643   6.299  16.349  0.00  0.00    +0.000 C 
BRANCH   5   6
ATOM      6  O   UNL     1       5.918   5.639  16.301  0.00  0.00    +0.000 OA
BRANCH   6   7
ATOM      7  C   UNL     1       6.767   5.942  17.327  0.00  0.00    +0.000 A 
ATOM      8  C   UNL     1       7.129   4.917  18.188  0.00  0.00    +0.000 A 
ATOM      9  N   UNL     1       7.970   5.070  19.240  0.00  0.00    +0.000 NA
ATOM     10  C   UNL     1       8.486   6.310  19.424  0.00  0.00    +0.000 A 
ATOM     11  C   UNL     1       8.204   7.405  18.613  0.00  0.00    +0.000 A 
ATOM     12  C   UNL     1       7.302   7.203  17.571  0.00  0.00    +0.000 A 
BRANCH  11  13
ATOM     13  C   UNL     1       8.796   8.726  18.862  0.00  0.00    +0.000 C 
ATOM     14  C   UNL     1       8.610   9.779  18.046  0.00  0.00    +0.000 C 
BRANCH  14  15
ATOM     15  C   UNL     1       9.188  11.109  18.259  0.00  0.00    +0.000 A 
ATOM     16  C   UNL     1       8.673  12.248  17.645  0.00  0.00    +0.000 A 
ATOM     17  C   UNL     1       9.250  13.475  17.937  0.00  0.00    +0.000 A 
ATOM     18  N   UNL     1      10.278  13.639  18.789  0.00  0.00    +0.000 NA
ATOM     19  C   UNL     1      10.752  12.528  19.388  0.00  0.00    +0.000 A 
ATOM     20  C   UNL     1      10.245  11.260  19.164  0.00  0.00    +0.000 A 
ENDBRANCH  14  15
ENDBRANCH  11  13
ENDBRANCH   6   7
ENDBRANCH   5   6
ENDBRANCH   1   5
BRANCH   1  21
ATOM     21  C   UNL     1       3.343   5.701  18.482  0.00  0.00    +0.000 C 
BRANCH  21  22
ATOM     22  C   UNL     1       2.564   7.005  18.675  0.00  0.00    +0.000 A 
ATOM     23  C   UNL     1       2.368   7.896  17.610  0.00  0.00    +0.000 A 
ATOM     24  C   UNL     1       1.727   9.118  17.808  0.00  0.00    +0.000 A 
ATOM     25  C   UNL     1       1.264   9.469  19.076  0.00  0.00    +0.000 A 
ATOM     26  C   UNL     1       1.430   8.589  20.138  0.00  0.00    +0.000 A 
ATOM     27  C   UNL     1       2.072   7.360  19.943  0.00  0.00    +0.000 A 
ENDBRANCH  21  22
BRANCH  21  28
ATOM     28  C   UNL     1       2.721   4.546  19.274  0.00  0.00    +0.000 A 
ATOM     29  C   UNL     1       1.435   4.085  18.946  0.00  0.00    +0.000 A 
ATOM     30  C   UNL     1       0.827   3.078  19.699  0.00  0.00    +0.000 A 
ATOM     31  C   UNL     1       1.490   2.521  20.790  0.00  0.00    +0.000 A 
ATOM     32  C   UNL     1       2.774   2.947  21.113  0.00  0.00    +0.000 A 
ATOM     33  C   UNL     1       3.392   3.933  20.347  0.00  0.00    +0.000 A 
ENDBRANCH  21  28
ENDBRANCH   1  21
TORSDOF 9
ENDMDL
MODEL 3
REMARK VINA RESULT:      -8.2      4.771      9.019
REMARK  Name = 
REMARK  9 active torsions:
REMARK  status: ('A' for Active; 'I' for Inactive)
REMARK    1  A    between atoms: N_1  and  C_2
REMARK    2  A    between atoms: C_2  and  C_3
REMARK    3  A    between atoms: C_2  and  C_19
REMARK    4  A    between atoms: C_3  and  O_4
REMARK    5  A    between atoms: O_4  and  C_5
REMARK    6  A    between atoms: C_9  and  C_10
REMARK    7  A    between atoms: C_11  and  C_12
REMARK    8  A    between atoms: C_19  and  C_20
REMARK    9  A    between atoms: C_19  and  C_26
REMARK                            x       y       z     vdW  Elec       q    Type
REMARK                         _______ _______ _______ _____ _____    ______ ____
ROOT
ATOM      1  C   UNL     1       3.343   7.037  18.692  0.00  0.00    +0.000 C 
ENDROOT
BRANCH   1   2
ATOM      2  N   UNL     1       2.440   6.932  19.867  0.00  0.00    +0.000 NA
ATOM      3  H   UNL     1       1.784   7.712  19.880  0.00  0.00    +0.000 HD
ATOM      4  H   UNL     1       2.977   7.001  20.730  0.00  0.00    +0.000 HD
ENDBRANCH   1   2
BRANCH   1   5
ATOM      5  C   UNL     1       2.970   8.301  17.900  0.00  0.00    +0.000 C 
BRANCH   5   6
ATOM      6  O   UNL     1       1.567   8.301  17.594  0.00  0.00    +0.000 OA
BRANCH   6   7
ATOM      7  C   UNL     1       0.893   9.430  17.964  0.00  0.00    +0.000 A 
ATOM      8  C   UNL     1       1.636  10.496  18.448  0.00  0.00    +0.000 A 
ATOM      9  N   UNL     1       1.102  11.678  18.840  0.00  0.00    +0.000 NA
ATOM     10  C   UNL     1      -0.243  11.800  18.723  0.00  0.00    +0.000 A 
ATOM     11  C   UNL     1      -1.082  10.804  18.235  0.00  0.00    +0.000 A 
ATOM     12  C   UNL     1      -0.487   9.594  17.885  0.00  0.00    +0.000 A 
BRANCH  11  13
ATOM     13  C   UNL     1      -2.534  10.996  18.131  0.00  0.00    +0.000 C 
ATOM     14  C   UNL     1      -3.220  11.847  18.916  0.00  0.00    +0.000 C 
BRANCH  14  15
ATOM     15  C   UNL     1      -4.668  12.062  18.844  0.00  0.00    +0.000 A 
ATOM     16  C   UNL     1      -5.376  11.945  17.651  0.00  0.00    +0.000 A 
ATOM     17  C   UNL     1      -6.752  12.118  17.678  0.00  0.00    +0.000 A 
ATOM     18  N   UNL     1      -7.454  12.386  18.794  0.00  0.00    +0.000 NA
ATOM     19  C   UNL     1      -6.754  12.478  19.942  0.00  0.00    +0.000 A 
ATOM     20  C   UNL     1      -5.381  12.321  20.020  0.00  0.00    +0.000 A 
ENDBRANCH  14  15
ENDBRANCH  11  13
ENDBRANCH   6   7
ENDBRANCH   5   6
ENDBRANCH   1   5
BRANCH   1  21
ATOM     21  C   UNL     1       3.304   5.757  17.766  0.00  0.00    +0.000 C 
BRANCH  21  22
ATOM     22  C   UNL     1       4.670   5.448  17.147  0.00  0.00    +0.000 A 
ATOM     23  C   UNL     1       4.819   4.429  16.194  0.00  0.00    +0.000 A 
ATOM     24  C   UNL     1       6.078   4.099  15.691  0.00  0.00    +0.000 A 
ATOM     25  C   UNL     1       7.209   4.787  16.128  0.00  0.00    +0.000 A 
ATOM     26  C   UNL     1       7.077   5.814  17.055  0.00  0.00    +0.000 A 
ATOM     27  C   UNL     1       5.816   6.149  17.561  0.00  0.00    +0.000 A 
ENDBRANCH  21  22
BRANCH  21  28
ATOM     28  C   UNL     1       2.697   4.524  18.446  0.00  0.00    +0.000 A 
ATOM     29  C   UNL     1       3.394   3.884  19.483  0.00  0.00    +0.000 A 
ATOM     30  C   UNL     1       2.886   2.722  20.069  0.00  0.00    +0.000 A 
ATOM     31  C   UNL     1       1.681   2.182  19.626  0.00  0.00    +0.000 A 
ATOM     32  C   UNL     1       0.965   2.819  18.618  0.00  0.00    +0.000 A 
ATOM     33  C   UNL     1       1.458   3.992  18.050  0.00  0.00    +0.000 A 
ENDBRANCH  21  28
ENDBRANCH   1  21
TORSDOF 9
ENDMDL
MODEL 4
REMARK VINA RESULT:      -8.1      1.338      1.517
REMARK  Name = 
REMARK  9 active torsions:
REMARK  status: ('A' for Active; 'I' for Inactive)
REMARK    1  A    between atoms: N_1  and  C_2
REMARK    2  A    between atoms: C_2  and  C_3
REMARK    3  A    between atoms: C_2  and  C_19
REMARK    4  A    between atoms: C_3  and  O_4
REMARK    5  A    between atoms: O_4  and  C_5
REMARK    6  A    between atoms: C_9  and  C_10
REMARK    7  A    between atoms: C_11  and  C_12
REMARK    8  A    between atoms: C_19  and  C_20
REMARK    9  A    between atoms: C_19  and  C_26
REMARK                            x       y       z     vdW  Elec       q    Type
REMARK                         _______ _______ _______ _____ _____    ______ ____
ROOT
ATOM      1  C   UNL     1       4.292   5.066  18.438  0.00  0.00    +0.000 C 
ENDROOT
BRANCH   1   2
ATOM      2  N   UNL     1       3.486   4.521  17.315  0.00  0.00    +0.000 NA
ATOM      3  H   UNL     1       3.075   5.281  16.773  0.00  0.00    +0.000 HD
ATOM      4  H   UNL     1       2.704   3.978  17.676  0.00  0.00    +0.000 HD
ENDBRANCH   1   2
BRANCH   1   5
ATOM      5  C   UNL     1       5.270   3.978  18.910  0.00  0.00    +0.000 C 
BRANCH   5   6
ATOM      6  O   UNL     1       6.564   4.548  19.167  0.00  0.00    +0.000 OA
BRANCH   6   7
ATOM      7  C   UNL     1       6.992   5.456  18.241  0.00  0.00    +0.000 A 
ATOM      8  C   UNL     1       7.026   5.057  16.914  0.00  0.00    +0.000 A 
ATOM      9  N   UNL     1       7.418   5.856  15.891  0.00  0.00    +0.000 NA
ATOM     10  C   UNL     1       7.775   7.122  16.217  0.00  0.00    +0.000 A 
ATOM     11  C   UNL     1       7.762   7.632  17.511  0.00  0.00    +0.000 A 
ATOM     12  C   UNL     1       7.391   6.758  18.530  0.00  0.00    +0.000 A 
BRANCH  11  13
ATOM     13  C   UNL     1       8.159   9.015  17.803  0.00  0.00    +0.000 C 
ATOM     14  C   UNL     1       8.908   9.355  18.868  0.00  0.00    +0.000 C 
BRANCH  14  15
ATOM     15  C   UNL     1       9.319  10.724  19.193  0.00  0.00    +0.000 A 
ATOM     16  C   UNL     1       9.132  11.783  18.309  0.00  0.00    +0.000 A 
ATOM     17  C   UNL     1       9.507  13.056  18.714  0.00  0.00    +0.000 A 
ATOM     18  N   UNL     1      10.036  13.338  19.918  0.00  0.00    +0.000 NA
ATOM     19  C   UNL     1      10.194  12.302  20.767  0.00  0.00    +0.000 A 
ATOM     20  C   UNL     1       9.850  10.997  20.459  0.00  0.00    +0.000 A 
ENDBRANCH  14  15
ENDBRANCH  11  13
ENDBRANCH   6   7
ENDBRANCH   5   6
ENDBRANCH   1   5
BRANCH   1  21
ATOM     21  C   UNL     1       3.406   5.588  19.638  0.00  0.00    +0.000 C 
BRANCH  21  22
ATOM     22  C   UNL     1       2.648   6.872  19.283  0.00  0.00    +0.000 A 
ATOM     23  C   UNL     1       2.758   7.449  18.010  0.00  0.00    +0.000 A 
ATOM     24  C   UNL     1       2.130   8.659  17.717  0.00  0.00    +0.000 A 
ATOM     25  C   UNL     1       1.374   9.310  18.691  0.00  0.00    +0.000 A 
ATOM     26  C   UNL     1       1.237   8.741  19.951  0.00  0.00    +0.000 A 
ATOM     27  C   UNL     1       1.864   7.526  20.249  0.00  0.00    +0.000 A 
ENDBRANCH  21  22
BRANCH  21  28
ATOM     28  C   UNL     1       2.473   4.522  20.223  0.00  0.00    +0.000 A 
ATOM     29  C   UNL     1       2.713   4.015  21.510  0.00  0.00    +0.000 A 
ATOM     30  C   UNL     1       1.911   2.997  22.033  0.00  0.00    +0.000 A 
ATOM     31  C   UNL     1       0.865   2.471  21.279  0.00  0.00    +0.000 A 
ATOM     32  C   UNL     1       0.598   2.980  20.013  0.00  0.00    +0.000 A 
ATOM     33  C   UNL     1       1.380   4.013  19.501  0.00  0.00    +0.000 A 
ENDBRANCH  21  28
ENDBRANCH   1  21
TORSDOF 9
ENDMDL
MODEL 5
REMARK VINA RESULT:      -8.1      3.282      7.566
REMARK  Name = 
REMARK  9 active torsions:
REMARK  status: ('A' for Active; 'I' for Inactive)
REMARK    1  A    between atoms: N_1  and  C_2
REMARK    2  A    between atoms: C_2  and  C_3
REMARK    3  A    between atoms: C_2  and  C_19
REMARK    4  A    between atoms: C_3  and  O_4
REMARK    5  A    between atoms: O_4  and  C_5
REMARK    6  A    between atoms: C_9  and  C_10
REMARK    7  A    between atoms: C_11  and  C_12
REMARK    8  A    between atoms: C_19  and  C_20
REMARK    9  A    between atoms: C_19  and  C_26
REMARK                            x       y       z     vdW  Elec       q    Type
REMARK                         _______ _______ _______ _____ _____    ______ ____
ROOT
ATOM      1  C   UNL     1       4.745   4.039  16.302  0.00  0.00    +0.000 C 
ENDROOT
BRANCH   1   2
ATOM      2  N   UNL     1       4.129   5.342  16.660  0.00  0.00    +0.000 NA
ATOM      3  H   UNL     1       3.268   5.195  17.186  0.00  0.00    +0.000 HD
ATOM      4  H   UNL     1       3.860   5.847  15.817  0.00  0.00    +0.000 HD
ENDBRANCH   1   2
BRANCH   1   5
ATOM      5  C   UNL     1       4.401   3.018  17.399  0.00  0.00    +0.000 C 
BRANCH   5   6
ATOM      6  O   UNL     1       2.989   3.026  17.663  0.00  0.00    +0.000 OA
BRANCH   6   7
ATOM      7  C   UNL     1       2.636   3.420  18.922  0.00  0.00    +0.000 A 
ATOM      8  C   UNL     1       2.969   2.583  19.976  0.00  0.00    +0.000 A 
ATOM      9  N   UNL     1       2.691   2.852  21.275  0.00  0.00    +0.000 NA
ATOM     10  C   UNL     1       2.065   4.028  21.527  0.00  0.00    +0.000 A 
ATOM     11  C   UNL     1       1.701   4.947  20.550  0.00  0.00    +0.000 A 
ATOM     12  C   UNL     1       1.972   4.604  19.228  0.00  0.00    +0.000 A 
BRANCH  11  13
ATOM     13  C   UNL     1       1.024   6.207  20.886  0.00  0.00    +0.000 C 
ATOM     14  C   UNL     1       1.580   7.416  20.684  0.00  0.00    +0.000 C 
BRANCH  14  15
ATOM     15  C   UNL     1       0.939   8.692  21.011  0.00  0.00    +0.000 A 
ATOM     16  C   UNL     1       0.675   9.658  20.044  0.00  0.00    +0.000 A 
ATOM     17  C   UNL     1       0.022  10.819  20.429  0.00  0.00    +0.000 A 
ATOM     18  N   UNL     1      -0.384  11.072  21.687  0.00  0.00    +0.000 NA
ATOM     19  C   UNL     1      -0.135  10.118  22.606  0.00  0.00    +0.000 A 
ATOM     20  C   UNL     1       0.508   8.926  22.322  0.00  0.00    +0.000 A 
ENDBRANCH  14  15
ENDBRANCH  11  13
ENDBRANCH   6   7
ENDBRANCH   5   6
ENDBRANCH   1   5
BRANCH   1  21
ATOM     21  C   UNL     1       6.308   4.133  16.089  0.00  0.00    +0.000 C 
BRANCH  21  22
ATOM     22  C   UNL     1       6.684   4.273  14.610  0.00  0.00    +0.000 A 
ATOM     23  C   UNL     1       7.713   5.134  14.203  0.00  0.00    +0.000 A 
ATOM     24  C   UNL     1       7.999   5.318  12.851  0.00  0.00    +0.000 A 
ATOM     25  C   UNL     1       7.264   4.638  11.881  0.00  0.00    +0.000 A 
ATOM     26  C   UNL     1       6.255   3.764  12.267  0.00  0.00    +0.000 A 
ATOM     27  C   UNL     1       5.966   3.576  13.623  0.00  0.00    +0.000 A 
ENDBRANCH  21  22
BRANCH  21  28
ATOM     28  C   UNL     1       6.984   5.206  16.950  0.00  0.00    +0.000 A 
ATOM     29  C   UNL     1       7.555   4.854  18.184  0.00  0.00    +0.000 A 
ATOM     30  C   UNL     1       8.116   5.830  19.011  0.00  0.00    +0.000 A 
ATOM     31  C   UNL     1       8.112   7.167  18.620  0.00  0.00    +0.000 A 
ATOM     32  C   UNL     1       7.574   7.529  17.390  0.00  0.00    +0.000 A 
ATOM     33  C   UNL     1       7.037   6.553  16.553  0.00  0.00    +0.000 A 
ENDBRANCH  21  28
ENDBRANCH   1  21
TORSDOF 9
ENDMDL
MODEL 6
REMARK VINA RESULT:      -8.0      4.748      8.358
REMARK  Name = 
REMARK  9 active torsions:
REMARK  status: ('A' for Active; 'I' for Inactive)
REMARK    1  A    between atoms: N_1  and  C_2
REMARK    2  A    between atoms: C_2  and  C_3
REMARK    3  A    between atoms: C_2  and  C_19
REMARK    4  A    between atoms: C_3  and  O_4
REMARK    5  A    between atoms: O_4  and  C_5
REMARK    6  A    between atoms: C_9  and  C_10
REMARK    7  A    between atoms: C_11  and  C_12
REMARK    8  A    between atoms: C_19  and  C_20
REMARK    9  A    between atoms: C_19  and  C_26
REMARK                            x       y       z     vdW  Elec       q    Type
REMARK                         _______ _______ _______ _____ _____    ______ ____
ROOT
ATOM      1  C   UNL     1       3.255   6.774  18.821  0.00  0.00    +0.000 C 
ENDROOT
BRANCH   1   2
ATOM      2  N   UNL     1       2.822   6.357  20.180  0.00  0.00    +0.000 NA
ATOM      3  H   UNL     1       3.632   6.228  20.785  0.00  0.00    +0.000 HD
ATOM      4  H   UNL     1       2.356   5.453  20.137  0.00  0.00    +0.000 HD
ENDBRANCH   1   2
BRANCH   1   5
ATOM      5  C   UNL     1       2.349   7.924  18.350  0.00  0.00    +0.000 C 
BRANCH   5   6
ATOM      6  O   UNL     1       1.824   8.640  19.479  0.00  0.00    +0.000 OA
BRANCH   6   7
ATOM      7  C   UNL     1       0.772   9.465  19.206  0.00  0.00    +0.000 A 
ATOM      8  C   UNL     1       0.218   9.405  17.935  0.00  0.00    +0.000 A 
ATOM      9  N   UNL     1      -0.834  10.156  17.529  0.00  0.00    +0.000 NA
ATOM     10  C   UNL     1      -1.367  10.996  18.451  0.00  0.00    +0.000 A 
ATOM     11  C   UNL     1      -0.903  11.124  19.755  0.00  0.00    +0.000 A 
ATOM     12  C   UNL     1       0.206  10.360  20.109  0.00  0.00    +0.000 A 
BRANCH  11  13
ATOM     13  C   UNL     1      -1.524  12.052  20.710  0.00  0.00    +0.000 C 
ATOM     14  C   UNL     1      -1.408  11.919  22.044  0.00  0.00    +0.000 C 
BRANCH  14  15
ATOM     15  C   UNL     1      -2.017  12.821  23.026  0.00  0.00    +0.000 A 
ATOM     16  C   UNL     1      -3.293  12.604  23.539  0.00  0.00    +0.000 A 
ATOM     17  C   UNL     1      -3.777  13.479  24.499  0.00  0.00    +0.000 A 
ATOM     18  N   UNL     1      -3.085  14.529  24.978  0.00  0.00    +0.000 NA
ATOM     19  C   UNL     1      -1.844  14.713  24.482  0.00  0.00    +0.000 A 
ATOM     20  C   UNL     1      -1.272  13.895  23.524  0.00  0.00    +0.000 A 
ENDBRANCH  14  15
ENDBRANCH  11  13
ENDBRANCH   6   7
ENDBRANCH   5   6
ENDBRANCH   1   5
BRANCH   1  21
ATOM     21  C   UNL     1       3.248   5.586  17.779  0.00  0.00    +0.000 C 
BRANCH  21  22
ATOM     22  C   UNL     1       4.609   5.403  17.100  0.00  0.00    +0.000 A 
ATOM     23  C   UNL     1       5.704   6.208  17.444  0.00  0.00    +0.000 A 
ATOM     24  C   UNL     1       6.919   6.091  16.768  0.00  0.00    +0.000 A 
ATOM     25  C   UNL     1       7.061   5.160  15.739  0.00  0.00    +0.000 A 
ATOM     26  C   UNL     1       5.992   4.339  15.400  0.00  0.00    +0.000 A 
ATOM     27  C   UNL     1       4.772   4.453  16.077  0.00  0.00    +0.000 A 
ENDBRANCH  21  22
BRANCH  21  28
ATOM     28  C   UNL     1       2.718   4.268  18.353  0.00  0.00    +0.000 A 
ATOM     29  C   UNL     1       1.403   3.861  18.072  0.00  0.00    +0.000 A 
ATOM     30  C   UNL     1       0.884   2.696  18.640  0.00  0.00    +0.000 A 
ATOM     31  C   UNL     1       1.666   1.924  19.496  0.00  0.00    +0.000 A 
ATOM     32  C   UNL     1       2.978   2.298  19.764  0.00  0.00    +0.000 A 
ATOM     33  C   UNL     1       3.506   3.446  19.178  0.00  0.00    +0.000 A 
ENDBRANCH  21  28
ENDBRANCH   1  21
TORSDOF 9
ENDMDL
MODEL 7
REMARK VINA RESULT:      -8.0      1.015      1.530
REMARK  Name = 
REMARK  9 active torsions:
REMARK  status: ('A' for Active; 'I' for Inactive)
REMARK    1  A    between atoms: N_1  and  C_2
REMARK    2  A    between atoms: C_2  and  C_3
REMARK    3  A    between atoms: C_2  and  C_19
REMARK    4  A    between atoms: C_3  and  O_4
REMARK    5  A    between atoms: O_4  and  C_5
REMARK    6  A    between atoms: C_9  and  C_10
REMARK    7  A    between atoms: C_11  and  C_12
REMARK    8  A    between atoms: C_19  and  C_20
REMARK    9  A    between atoms: C_19  and  C_26
REMARK                            x       y       z     vdW  Elec       q    Type
REMARK                         _______ _______ _______ _____ _____    ______ ____
ROOT
ATOM      1  C   UNL     1       3.522   5.704  17.336  0.00  0.00    +0.000 C 
ENDROOT
BRANCH   1   2
ATOM      2  N   UNL     1       4.207   4.395  17.181  0.00  0.00    +0.000 NA
ATOM      3  H   UNL     1       5.163   4.532  16.856  0.00  0.00    +0.000 HD
ATOM      4  H   UNL     1       3.743   3.839  16.465  0.00  0.00    +0.000 HD
ENDBRANCH   1   2
BRANCH   1   5
ATOM      5  C   UNL     1       4.422   6.800  16.741  0.00  0.00    +0.000 C 
BRANCH   5   6
ATOM      6  O   UNL     1       5.741   6.286  16.498  0.00  0.00    +0.000 OA
BRANCH   6   7
ATOM      7  C   UNL     1       6.675   6.614  17.439  0.00  0.00    +0.000 A 
ATOM      8  C   UNL     1       7.004   5.652  18.383  0.00  0.00    +0.000 A 
ATOM      9  N   UNL     1       7.919   5.836  19.366  0.00  0.00    +0.000 NA
ATOM     10  C   UNL     1       8.546   7.038  19.389  0.00  0.00    +0.000 A 
ATOM     11  C   UNL     1       8.306   8.065  18.483  0.00  0.00    +0.000 A 
ATOM     12  C   UNL     1       7.327   7.840  17.519  0.00  0.00    +0.000 A 
BRANCH  11  13
ATOM     13  C   UNL     1       9.020   9.347  18.559  0.00  0.00    +0.000 C 
ATOM     14  C   UNL     1       8.624  10.448  17.894  0.00  0.00    +0.000 C 
BRANCH  14  15
ATOM     15  C   UNL     1       9.312  11.741  17.941  0.00  0.00    +0.000 A 
ATOM     16  C   UNL     1      10.650  11.881  17.581  0.00  0.00    +0.000 A 
ATOM     17  C   UNL     1      11.213  13.148  17.609  0.00  0.00    +0.000 A 
ATOM     18  N   UNL     1      10.544  14.261  17.956  0.00  0.00    +0.000 NA
ATOM     19  C   UNL     1       9.245  14.109  18.285  0.00  0.00    +0.000 A 
ATOM     20  C   UNL     1       8.591  12.889  18.287  0.00  0.00    +0.000 A 
ENDBRANCH  14  15
ENDBRANCH  11  13
ENDBRANCH   6   7
ENDBRANCH   5   6
ENDBRANCH   1   5
BRANCH   1  21
ATOM     21  C   UNL     1       3.148   6.033  18.835  0.00  0.00    +0.000 C 
BRANCH  21  22
ATOM     22  C   UNL     1       2.386   7.355  18.967  0.00  0.00    +0.000 A 
ATOM     23  C   UNL     1       1.905   7.793  20.209  0.00  0.00    +0.000 A 
ATOM     24  C   UNL     1       1.144   8.957  20.311  0.00  0.00    +0.000 A 
ATOM     25  C   UNL     1       0.858   9.709  19.172  0.00  0.00    +0.000 A 
ATOM     26  C   UNL     1       1.346   9.302  17.936  0.00  0.00    +0.000 A 
ATOM     27  C   UNL     1       2.111   8.135  17.830  0.00  0.00    +0.000 A 
ENDBRANCH  21  22
BRANCH  21  28
ATOM     28  C   UNL     1       2.425   4.888  19.554  0.00  0.00    +0.000 A 
ATOM     29  C   UNL     1       2.763   4.570  20.879  0.00  0.00    +0.000 A 
ATOM     30  C   UNL     1       2.161   3.488  21.526  0.00  0.00    +0.000 A 
ATOM     31  C   UNL     1       1.218   2.709  20.860  0.00  0.00    +0.000 A 
ATOM     32  C   UNL     1       0.852   3.026  19.556  0.00  0.00    +0.000 A 
ATOM     33  C   UNL     1       1.434   4.120  18.918  0.00  0.00    +0.000 A 
ENDBRANCH  21  28
ENDBRANCH   1  21
TORSDOF 9
ENDMDL
MODEL 8
REMARK VINA RESULT:      -7.9      4.841      9.064
REMARK  Name = 
REMARK  9 active torsions:
REMARK  status: ('A' for Active; 'I' for Inactive)
REMARK    1  A    between atoms: N_1  and  C_2
REMARK    2  A    between atoms: C_2  and  C_3
REMARK    3  A    between atoms: C_2  and  C_19
REMARK    4  A    between atoms: C_3  and  O_4
REMARK    5  A    between atoms: O_4  and  C_5
REMARK    6  A    between atoms: C_9  and  C_10
REMARK    7  A    between atoms: C_11  and  C_12
REMARK    8  A    between atoms: C_19  and  C_20
REMARK    9  A    between atoms: C_19  and  C_26
REMARK                            x       y       z     vdW  Elec       q    Type
REMARK                         _______ _______ _______ _____ _____    ______ ____
ROOT
ATOM      1  C   UNL     1       3.061   7.241  18.977  0.00  0.00    +0.000 C 
ENDROOT
BRANCH   1   2
ATOM      2  N   UNL     1       2.113   7.394  20.111  0.00  0.00    +0.000 NA
ATOM      3  H   UNL     1       1.389   8.073  19.878  0.00  0.00    +0.000 HD
ATOM      4  H   UNL     1       2.598   7.766  20.925  0.00  0.00    +0.000 HD
ENDBRANCH   1   2
BRANCH   1   5
ATOM      5  C   UNL     1       2.734   8.308  17.919  0.00  0.00    +0.000 C 
BRANCH   5   6
ATOM      6  O   UNL     1       1.316   8.376  17.700  0.00  0.00    +0.000 OA
BRANCH   6   7
ATOM      7  C   UNL     1       0.737   9.573  18.009  0.00  0.00    +0.000 A 
ATOM      8  C   UNL     1       1.564  10.592  18.460  0.00  0.00    +0.000 A 
ATOM      9  N   UNL     1       1.128  11.832  18.791  0.00  0.00    +0.000 NA
ATOM     10  C   UNL     1      -0.199  12.064  18.645  0.00  0.00    +0.000 A 
ATOM     11  C   UNL     1      -1.114  11.122  18.187  0.00  0.00    +0.000 A 
ATOM     12  C   UNL     1      -0.622   9.852  17.899  0.00  0.00    +0.000 A 
BRANCH  11  13
ATOM     13  C   UNL     1      -2.543  11.434  18.049  0.00  0.00    +0.000 C 
ATOM     14  C   UNL     1      -3.324  11.775  19.090  0.00  0.00    +0.000 C 
BRANCH  14  15
ATOM     15  C   UNL     1      -4.752  12.088  18.992  0.00  0.00    +0.000 A 
ATOM     16  C   UNL     1      -5.356  13.054  19.792  0.00  0.00    +0.000 A 
ATOM     17  C   UNL     1      -6.704  13.321  19.603  0.00  0.00    +0.000 A 
ATOM     18  N   UNL     1      -7.471  12.709  18.683  0.00  0.00    +0.000 NA
ATOM     19  C   UNL     1      -6.864  11.789  17.905  0.00  0.00    +0.000 A 
ATOM     20  C   UNL     1      -5.527  11.452  18.015  0.00  0.00    +0.000 A 
ENDBRANCH  14  15
ENDBRANCH  11  13
ENDBRANCH   6   7
ENDBRANCH   5   6
ENDBRANCH   1   5
BRANCH   1  21
ATOM     21  C   UNL     1       3.040   5.793  18.345  0.00  0.00    +0.000 C 
BRANCH  21  22
ATOM     22  C   UNL     1       4.434   5.330  17.911  0.00  0.00    +0.000 A 
ATOM     23  C   UNL     1       5.536   5.447  18.770  0.00  0.00    +0.000 A 
ATOM     24  C   UNL     1       6.817   5.097  18.342  0.00  0.00    +0.000 A 
ATOM     25  C   UNL     1       7.016   4.617  17.049  0.00  0.00    +0.000 A 
ATOM     26  C   UNL     1       5.932   4.474  16.191  0.00  0.00    +0.000 A 
ATOM     27  C   UNL     1       4.645   4.823  16.616  0.00  0.00    +0.000 A 
ENDBRANCH  21  22
BRANCH  21  28
ATOM     28  C   UNL     1       2.343   4.749  19.223  0.00  0.00    +0.000 A 
ATOM     29  C   UNL     1       2.665   4.655  20.587  0.00  0.00    +0.000 A 
ATOM     30  C   UNL     1       2.088   3.666  21.387  0.00  0.00    +0.000 A 
ATOM     31  C   UNL     1       1.187   2.757  20.838  0.00  0.00    +0.000 A 
ATOM     32  C   UNL     1       0.837   2.852  19.495  0.00  0.00    +0.000 A 
ATOM     33  C   UNL     1       1.392   3.854  18.702  0.00  0.00    +0.000 A 
ENDBRANCH  21  28
ENDBRANCH   1  21
TORSDOF 9
ENDMDL
MODEL 9
REMARK VINA RESULT:      -7.9      4.811      8.928
REMARK  Name = 
REMARK  9 active torsions:
REMARK  status: ('A' for Active; 'I' for Inactive)
REMARK    1  A    between atoms: N_1  and  C_2
REMARK    2  A    between atoms: C_2  and  C_3
REMARK    3  A    between atoms: C_2  and  C_19
REMARK    4  A    between atoms: C_3  and  O_4
REMARK    5  A    between atoms: O_4  and  C_5
REMARK    6  A    between atoms: C_9  and  C_10
REMARK    7  A    between atoms: C_11  and  C_12
REMARK    8  A    between atoms: C_19  and  C_20
REMARK    9  A    between atoms: C_19  and  C_26
REMARK                            x       y       z     vdW  Elec       q    Type
REMARK                         _______ _______ _______ _____ _____    ______ ____
ROOT
ATOM      1  C   UNL     1       2.845   7.185  17.807  0.00  0.00    +0.000 C 
ENDROOT
BRANCH   1   2
ATOM      2  N   UNL     1       3.765   8.041  17.014  0.00  0.00    +0.000 NA
ATOM      3  H   UNL     1       4.446   8.491  17.625  0.00  0.00    +0.000 HD
ATOM      4  H   UNL     1       3.245   8.796  16.569  0.00  0.00    +0.000 HD
ENDBRANCH   1   2
BRANCH   1   5
ATOM      5  C   UNL     1       1.973   8.092  18.691  0.00  0.00    +0.000 C 
BRANCH   5   6
ATOM      6  O   UNL     1       1.289   9.065  17.885  0.00  0.00    +0.000 OA
BRANCH   6   7
ATOM      7  C   UNL     1       0.950  10.219  18.532  0.00  0.00    +0.000 A 
ATOM      8  C   UNL     1       1.872  11.254  18.530  0.00  0.00    +0.000 A 
ATOM      9  N   UNL     1       1.665  12.456  19.121  0.00  0.00    +0.000 NA
ATOM     10  C   UNL     1       0.465  12.631  19.728  0.00  0.00    +0.000 A 
ATOM     11  C   UNL     1      -0.537  11.668  19.776  0.00  0.00    +0.000 A 
ATOM     12  C   UNL     1      -0.257  10.437  19.189  0.00  0.00    +0.000 A 
BRANCH  11  13
ATOM     13  C   UNL     1      -1.819  11.917  20.448  0.00  0.00    +0.000 C 
ATOM     14  C   UNL     1      -1.917  12.199  21.761  0.00  0.00    +0.000 C 
BRANCH  14  15
ATOM     15  C   UNL     1      -3.176  12.448  22.466  0.00  0.00    +0.000 A 
ATOM     16  C   UNL     1      -4.345  12.798  21.795  0.00  0.00    +0.000 A 
ATOM     17  C   UNL     1      -5.506  12.970  22.534  0.00  0.00    +0.000 A 
ATOM     18  N   UNL     1      -5.580  12.811  23.868  0.00  0.00    +0.000 NA
ATOM     19  C   UNL     1      -4.442  12.455  24.498  0.00  0.00    +0.000 A 
ATOM     20  C   UNL     1      -3.235  12.259  23.852  0.00  0.00    +0.000 A 
ENDBRANCH  14  15
ENDBRANCH  11  13
ENDBRANCH   6   7
ENDBRANCH   5   6
ENDBRANCH   1   5
BRANCH   1  21
ATOM     21  C   UNL     1       3.603   6.107  18.679  0.00  0.00    +0.000 C 
BRANCH  21  22
ATOM     22  C   UNL     1       2.684   4.961  19.112  0.00  0.00    +0.000 A 
ATOM     23  C   UNL     1       2.037   4.154  18.165  0.00  0.00    +0.000 A 
ATOM     24  C   UNL     1       1.140   3.163  18.562  0.00  0.00    +0.000 A 
ATOM     25  C   UNL     1       0.879   2.957  19.916  0.00  0.00    +0.000 A 
ATOM     26  C   UNL     1       1.528   3.733  20.870  0.00  0.00    +0.000 A 
ATOM     27  C   UNL     1       2.430   4.727  20.475  0.00  0.00    +0.000 A 
ENDBRANCH  21  22
BRANCH  21  28
ATOM     28  C   UNL     1       4.891   5.587  18.031  0.00  0.00    +0.000 A 
ATOM     29  C   UNL     1       4.860   5.083  16.720  0.00  0.00    +0.000 A 
ATOM     30  C   UNL     1       6.011   4.545  16.139  0.00  0.00    +0.000 A 
ATOM     31  C   UNL     1       7.204   4.500  16.856  0.00  0.00    +0.000 A 
ATOM     32  C   UNL     1       7.258   5.018  18.145  0.00  0.00    +0.000 A 
ATOM     33  C   UNL     1       6.118   5.579  18.717  0.00  0.00    +0.000 A 
ENDBRANCH  21  28
ENDBRANCH   1  21
TORSDOF 9
ENDMDL
