MODEL 1
REMARK VINA RESULT:      -7.9      0.000      0.000
REMARK  Name = 
REMARK  3 active torsions:
REMARK  status: ('A' for Active; 'I' for Inactive)
REMARK    1  A    between atoms: C_3  and  N_4
REMARK    2  A    between atoms: C_13  and  C_14
REMARK    3  A    between atoms: C_21  and  C_22
REMARK                            x       y       z     vdW  Elec       q    Type
REMARK                         _______ _______ _______ _____ _____    ______ ____
ROOT
ATOM      1  N   UNL     1       4.306   5.656  17.637  0.00  0.00    +0.000 N 
ATOM      2  C   UNL     1       5.133   6.759  17.129  0.00  0.00    +0.000 C 
ATOM      3  C   UNL     1       6.623   6.483  17.312  0.00  0.00    +0.000 C 
ATOM      4  C   UNL     1       7.123   5.121  16.830  0.00  0.00    +0.000 C 
ATOM      5  N   UNL     1       6.294   4.545  15.776  0.00  0.00    +0.000 N 
ATOM      6  C   UNL     1       6.672   4.502  14.447  0.00  0.00    +0.000 A 
ATOM      7  C   UNL     1       7.577   5.404  13.926  0.00  0.00    +0.000 A 
ATOM      8  C   UNL     1       7.910   5.275  12.599  0.00  0.00    +0.000 A 
ATOM      9  N   UNL     1       7.404   4.330  11.797  0.00  0.00    +0.000 NA
ATOM     10  C   UNL     1       6.517   3.485  12.352  0.00  0.00    +0.000 A 
ATOM     11  N   UNL     1       6.130   3.565  13.645  0.00  0.00    +0.000 NA
ATOM     12  C   UNL     1       5.137   3.751  16.237  0.00  0.00    +0.000 C 
ATOM     13  C   UNL     1       3.939   4.651  16.609  0.00  0.00    +0.000 C 
ENDROOT
BRANCH   1  16
ATOM     14  C   UNL     1       1.936   7.164  19.973  0.00  0.00    +0.000 A 
ATOM     15  C   UNL     1       2.782   7.062  18.892  0.00  0.00    +0.000 A 
ATOM     16  C   UNL     1       3.419   5.856  18.692  0.00  0.00    +0.000 A 
ATOM     17  N   UNL     1       3.226   4.857  19.576  0.00  0.00    +0.000 NA
ATOM     18  C   UNL     1       2.394   5.031  20.627  0.00  0.00    +0.000 A 
ATOM     19  N   UNL     1       1.720   6.171  20.847  0.00  0.00    +0.000 NA
BRANCH  18  20
ATOM     20  C   UNL     1       2.208   3.868  21.575  0.00  0.00    +0.000 C 
ATOM     21  C   UNL     1       1.252   2.756  21.195  0.00  0.00    +0.000 C 
ATOM     22  C   UNL     1       2.724   2.480  21.263  0.00  0.00    +0.000 C 
ENDBRANCH  18  20
ENDBRANCH   1  16
BRANCH  10  23
ATOM     23  C   UNL     1       5.911   2.415  11.475  0.00  0.00    +0.000 C 
ATOM     24  C   UNL     1       6.804   1.543  10.618  0.00  0.00    +0.000 C 
ATOM     25  C   UNL     1       6.097   0.949  11.800  0.00  0.00    +0.000 C 
ENDBRANCH  10  23
TORSDOF 3
ENDMDL
MODEL 2
REMARK VINA RESULT:      -7.2      0.903      2.227
REMARK  Name = 
REMARK  3 active torsions:
REMARK  status: ('A' for Active; 'I' for Inactive)
REMARK    1  A    between atoms: C_3  and  N_4
REMARK    2  A    between atoms: C_13  and  C_14
REMARK    3  A    between atoms: C_21  and  C_22
REMARK                            x       y       z     vdW  Elec       q    Type
REMARK                         _______ _______ _______ _____ _____    ______ ____
ROOT
ATOM      1  N   UNL     1       4.174   5.260  17.724  0.00  0.00    +0.000 N 
ATOM      2  C   UNL     1       4.966   6.423  17.304  0.00  0.00    +0.000 C 
ATOM      3  C   UNL     1       6.463   6.191  17.497  0.00  0.00    +0.000 C 
ATOM      4  C   UNL     1       7.022   4.884  16.937  0.00  0.00    +0.000 C 
ATOM      5  N   UNL     1       6.234   4.347  15.832  0.00  0.00    +0.000 N 
ATOM      6  C   UNL     1       6.635   4.406  14.512  0.00  0.00    +0.000 A 
ATOM      7  C   UNL     1       7.513   5.373  14.066  0.00  0.00    +0.000 A 
ATOM      8  C   UNL     1       7.873   5.343  12.741  0.00  0.00    +0.000 A 
ATOM      9  N   UNL     1       7.416   4.435  11.870  0.00  0.00    +0.000 NA
ATOM     10  C   UNL     1       6.553   3.523  12.353  0.00  0.00    +0.000 A 
ATOM     11  N   UNL     1       6.143   3.503  13.640  0.00  0.00    +0.000 NA
ATOM     12  C   UNL     1       5.100   3.483  16.219  0.00  0.00    +0.000 C 
ATOM     13  C   UNL     1       3.863   4.311  16.626  0.00  0.00    +0.000 C 
ENDROOT
BRANCH   1  16
ATOM     14  C   UNL     1       1.716   4.453  20.303  0.00  0.00    +0.000 A 
ATOM     15  C   UNL     1       2.611   4.252  19.277  0.00  0.00    +0.000 A 
ATOM     16  C   UNL     1       3.263   5.356  18.772  0.00  0.00    +0.000 A 
ATOM     17  N   UNL     1       2.967   6.576  19.266  0.00  0.00    +0.000 NA
ATOM     18  C   UNL     1       2.064   6.704  20.263  0.00  0.00    +0.000 A 
ATOM     19  N   UNL     1       1.430   5.658  20.817  0.00  0.00    +0.000 NA
BRANCH  18  20
ATOM     20  C   UNL     1       1.788   8.096  20.784  0.00  0.00    +0.000 C 
ATOM     21  C   UNL     1       0.864   9.004  20.000  0.00  0.00    +0.000 C 
ATOM     22  C   UNL     1       0.441   8.496  21.345  0.00  0.00    +0.000 C 
ENDBRANCH  18  20
ENDBRANCH   1  16
BRANCH  10  23
ATOM     23  C   UNL     1       6.003   2.491  11.397  0.00  0.00    +0.000 C 
ATOM     24  C   UNL     1       6.945   1.555  10.668  0.00  0.00    +0.000 C 
ATOM     25  C   UNL     1       6.043   1.018  11.739  0.00  0.00    +0.000 C 
ENDBRANCH  10  23
TORSDOF 3
ENDMDL
MODEL 3
REMARK VINA RESULT:      -6.9      4.878     10.423
REMARK  Name = 
REMARK  3 active torsions:
REMARK  status: ('A' for Active; 'I' for Inactive)
REMARK    1  A    between atoms: C_3  and  N_4
REMARK    2  A    between atoms: C_13  and  C_14
REMARK    3  A    between atoms: C_21  and  C_22
REMARK                            x       y       z     vdW  Elec       q    Type
REMARK                         _______ _______ _______ _____ _____    ______ ____
ROOT
ATOM      1  N   UNL     1       1.571   8.338  19.590  0.00  0.00    +0.000 N 
ATOM      2  C   UNL     1       1.940   9.430  18.679  0.00  0.00    +0.000 C 
ATOM      3  C   UNL     1       0.803   9.780  17.723  0.00  0.00    +0.000 C 
ATOM      4  C   UNL     1      -0.570  10.001  18.357  0.00  0.00    +0.000 C 
ATOM      5  N   UNL     1      -0.499  10.421  19.752  0.00  0.00    +0.000 N 
ATOM      6  C   UNL     1      -0.744  11.715  20.171  0.00  0.00    +0.000 A 
ATOM      7  C   UNL     1      -0.581  12.791  19.322  0.00  0.00    +0.000 A 
ATOM      8  C   UNL     1      -0.867  14.041  19.818  0.00  0.00    +0.000 A 
ATOM      9  N   UNL     1      -1.288  14.262  21.069  0.00  0.00    +0.000 NA
ATOM     10  C   UNL     1      -1.417  13.180  21.858  0.00  0.00    +0.000 A 
ATOM     11  N   UNL     1      -1.137  11.925  21.443  0.00  0.00    +0.000 NA
ATOM     12  C   UNL     1      -0.419   9.330  20.744  0.00  0.00    +0.000 C 
ATOM     13  C   UNL     1       1.021   8.794  20.890  0.00  0.00    +0.000 C 
ENDROOT
BRANCH   1  16
ATOM     14  C   UNL     1       3.825   5.615  18.668  0.00  0.00    +0.000 A 
ATOM     15  C   UNL     1       3.215   6.848  18.616  0.00  0.00    +0.000 A 
ATOM     16  C   UNL     1       2.258   7.126  19.567  0.00  0.00    +0.000 A 
ATOM     17  N   UNL     1       1.931   6.178  20.467  0.00  0.00    +0.000 NA
ATOM     18  C   UNL     1       2.558   4.981  20.452  0.00  0.00    +0.000 A 
ATOM     19  N   UNL     1       3.524   4.671  19.572  0.00  0.00    +0.000 NA
BRANCH  18  20
ATOM     20  C   UNL     1       2.158   3.965  21.497  0.00  0.00    +0.000 C 
ATOM     21  C   UNL     1       1.202   2.854  21.114  0.00  0.00    +0.000 C 
ATOM     22  C   UNL     1       2.626   2.527  21.447  0.00  0.00    +0.000 C 
ENDBRANCH  18  20
ENDBRANCH   1  16
BRANCH  10  23
ATOM     23  C   UNL     1      -1.875  13.391  23.282  0.00  0.00    +0.000 C 
ATOM     24  C   UNL     1      -3.128  14.193  23.565  0.00  0.00    +0.000 C 
ATOM     25  C   UNL     1      -3.122  12.713  23.805  0.00  0.00    +0.000 C 
ENDBRANCH  10  23
TORSDOF 3
ENDMDL
MODEL 4
REMARK VINA RESULT:      -6.8      3.670      6.360
REMARK  Name = 
REMARK  3 active torsions:
REMARK  status: ('A' for Active; 'I' for Inactive)
REMARK    1  A    between atoms: C_3  and  N_4
REMARK    2  A    between atoms: C_13  and  C_14
REMARK    3  A    between atoms: C_21  and  C_22
REMARK                            x       y       z     vdW  Elec       q    Type
REMARK                         _______ _______ _______ _____ _____    ______ ____
ROOT
ATOM      1  N   UNL     1       1.329   8.912  19.228  0.00  0.00    +0.000 N 
ATOM      2  C   UNL     1       1.913   8.385  20.469  0.00  0.00    +0.000 C 
ATOM      3  C   UNL     1       1.479   6.945  20.733  0.00  0.00    +0.000 C 
ATOM      4  C   UNL     1       1.630   5.968  19.567  0.00  0.00    +0.000 C 
ATOM      5  N   UNL     1       2.664   6.363  18.616  0.00  0.00    +0.000 N 
ATOM      6  C   UNL     1       3.897   5.746  18.532  0.00  0.00    +0.000 A 
ATOM      7  C   UNL     1       4.446   5.081  19.610  0.00  0.00    +0.000 A 
ATOM      8  C   UNL     1       5.668   4.479  19.430  0.00  0.00    +0.000 A 
ATOM      9  N   UNL     1       6.345   4.508  18.275  0.00  0.00    +0.000 NA
ATOM     10  C   UNL     1       5.771   5.180  17.261  0.00  0.00    +0.000 A 
ATOM     11  N   UNL     1       4.580   5.810  17.372  0.00  0.00    +0.000 NA
ATOM     12  C   UNL     1       2.228   7.285  17.548  0.00  0.00    +0.000 C 
ATOM     13  C   UNL     1       2.196   8.750  18.035  0.00  0.00    +0.000 C 
ENDROOT
BRANCH   1  16
ATOM     14  C   UNL     1      -0.237  12.115  20.024  0.00  0.00    +0.000 A 
ATOM     15  C   UNL     1       0.689  11.097  20.057  0.00  0.00    +0.000 A 
ATOM     16  C   UNL     1       0.461  10.001  19.254  0.00  0.00    +0.000 A 
ATOM     17  N   UNL     1      -0.665   9.951  18.515  0.00  0.00    +0.000 NA
ATOM     18  C   UNL     1      -1.542  10.979  18.542  0.00  0.00    +0.000 A 
ATOM     19  N   UNL     1      -1.350  12.086  19.276  0.00  0.00    +0.000 NA
BRANCH  18  20
ATOM     20  C   UNL     1      -2.778  10.870  17.679  0.00  0.00    +0.000 C 
ATOM     21  C   UNL     1      -2.648  11.056  16.181  0.00  0.00    +0.000 C 
ATOM     22  C   UNL     1      -3.005   9.709  16.735  0.00  0.00    +0.000 C 
ENDBRANCH  18  20
ENDBRANCH   1  16
BRANCH  10  23
ATOM     23  C   UNL     1       6.511   5.249  15.946  0.00  0.00    +0.000 C 
ATOM     24  C   UNL     1       6.543   4.043  15.030  0.00  0.00    +0.000 C 
ATOM     25  C   UNL     1       5.761   5.259  14.633  0.00  0.00    +0.000 C 
ENDBRANCH  10  23
TORSDOF 3
ENDMDL
MODEL 5
REMARK VINA RESULT:      -6.8      4.653     10.076
REMARK  Name = 
REMARK  3 active torsions:
REMARK  status: ('A' for Active; 'I' for Inactive)
REMARK    1  A    between atoms: C_3  and  N_4
REMARK    2  A    between atoms: C_13  and  C_14
REMARK    3  A    between atoms: C_21  and  C_22
REMARK                            x       y       z     vdW  Elec       q    Type
REMARK                         _______ _______ _______ _____ _____    ______ ____
ROOT
ATOM      1  N   UNL     1       1.791   7.941  19.631  0.00  0.00    +0.000 N 
ATOM      2  C   UNL     1       2.331   8.805  18.573  0.00  0.00    +0.000 C 
ATOM      3  C   UNL     1       1.250   9.238  17.587  0.00  0.00    +0.000 C 
ATOM      4  C   UNL     1      -0.032   9.808  18.195  0.00  0.00    +0.000 C 
ATOM      5  N   UNL     1       0.169  10.391  19.517  0.00  0.00    +0.000 N 
ATOM      6  C   UNL     1       0.193  11.753  19.753  0.00  0.00    +0.000 A 
ATOM      7  C   UNL     1       0.530  12.651  18.760  0.00  0.00    +0.000 A 
ATOM      8  C   UNL     1       0.508  13.987  19.079  0.00  0.00    +0.000 A 
ATOM      9  N   UNL     1       0.182  14.455  20.290  0.00  0.00    +0.000 NA
ATOM     10  C   UNL     1      -0.125  13.537  21.224  0.00  0.00    +0.000 A 
ATOM     11  N   UNL     1      -0.107  12.206  20.986  0.00  0.00    +0.000 NA
ATOM     12  C   UNL     1       0.071   9.450  20.651  0.00  0.00    +0.000 C 
ATOM     13  C   UNL     1       1.385   8.667  20.859  0.00  0.00    +0.000 C 
ENDROOT
BRANCH   1  16
ATOM     14  C   UNL     1       2.243   4.516  20.821  0.00  0.00    +0.000 A 
ATOM     15  C   UNL     1       1.733   5.793  20.752  0.00  0.00    +0.000 A 
ATOM     16  C   UNL     1       2.229   6.626  19.773  0.00  0.00    +0.000 A 
ATOM     17  N   UNL     1       3.212   6.178  18.965  0.00  0.00    +0.000 NA
ATOM     18  C   UNL     1       3.679   4.917  19.099  0.00  0.00    +0.000 A 
ATOM     19  N   UNL     1       3.204   4.052  20.010  0.00  0.00    +0.000 NA
BRANCH  18  20
ATOM     20  C   UNL     1       4.769   4.469  18.153  0.00  0.00    +0.000 C 
ATOM     21  C   UNL     1       4.383   3.861  16.820  0.00  0.00    +0.000 C 
ATOM     22  C   UNL     1       5.066   5.195  16.859  0.00  0.00    +0.000 C 
ENDBRANCH  18  20
ENDBRANCH   1  16
BRANCH  10  23
ATOM     23  C   UNL     1      -0.483  14.024  22.608  0.00  0.00    +0.000 C 
ATOM     24  C   UNL     1      -1.842  14.640  22.867  0.00  0.00    +0.000 C 
ATOM     25  C   UNL     1      -1.512  13.297  23.445  0.00  0.00    +0.000 C 
ENDBRANCH  10  23
TORSDOF 3
ENDMDL
MODEL 6
REMARK VINA RESULT:      -6.6      1.207      2.466
REMARK  Name = 
REMARK  3 active torsions:
REMARK  status: ('A' for Active; 'I' for Inactive)
REMARK    1  A    between atoms: C_3  and  N_4
REMARK    2  A    between atoms: C_13  and  C_14
REMARK    3  A    between atoms: C_21  and  C_22
REMARK                            x       y       z     vdW  Elec       q    Type
REMARK                         _______ _______ _______ _____ _____    ______ ____
ROOT
ATOM      1  N   UNL     1       4.171   5.366  18.105  0.00  0.00    +0.000 N 
ATOM      2  C   UNL     1       5.172   6.385  17.764  0.00  0.00    +0.000 C 
ATOM      3  C   UNL     1       6.595   5.850  17.899  0.00  0.00    +0.000 C 
ATOM      4  C   UNL     1       6.883   4.512  17.217  0.00  0.00    +0.000 C 
ATOM      5  N   UNL     1       5.995   4.238  16.092  0.00  0.00    +0.000 N 
ATOM      6  C   UNL     1       6.388   4.333  14.771  0.00  0.00    +0.000 A 
ATOM      7  C   UNL     1       7.435   5.145  14.386  0.00  0.00    +0.000 A 
ATOM      8  C   UNL     1       7.770   5.162  13.054  0.00  0.00    +0.000 A 
ATOM      9  N   UNL     1       7.137   4.440  12.122  0.00  0.00    +0.000 NA
ATOM     10  C   UNL     1       6.116   3.675  12.548  0.00  0.00    +0.000 A 
ATOM     11  N   UNL     1       5.721   3.623  13.839  0.00  0.00    +0.000 NA
ATOM     12  C   UNL     1       4.717   3.581  16.434  0.00  0.00    +0.000 C 
ATOM     13  C   UNL     1       3.670   4.595  16.940  0.00  0.00    +0.000 C 
ENDROOT
BRANCH   1  16
ATOM     14  C   UNL     1       2.030   4.774  21.006  0.00  0.00    +0.000 A 
ATOM     15  C   UNL     1       2.901   4.496  19.977  0.00  0.00    +0.000 A 
ATOM     16  C   UNL     1       3.305   5.546  19.181  0.00  0.00    +0.000 A 
ATOM     17  N   UNL     1       2.802   6.776  19.412  0.00  0.00    +0.000 NA
ATOM     18  C   UNL     1       1.937   6.976  20.430  0.00  0.00    +0.000 A 
ATOM     19  N   UNL     1       1.541   5.996  21.259  0.00  0.00    +0.000 NA
BRANCH  18  20
ATOM     20  C   UNL     1       1.421   8.380  20.647  0.00  0.00    +0.000 C 
ATOM     21  C   UNL     1       0.055   8.573  21.273  0.00  0.00    +0.000 C 
ATOM     22  C   UNL     1       1.283   8.987  22.026  0.00  0.00    +0.000 C 
ENDBRANCH  18  20
ENDBRANCH   1  16
BRANCH  10  23
ATOM     23  C   UNL     1       5.366   2.857  11.523  0.00  0.00    +0.000 C 
ATOM     24  C   UNL     1       3.852   2.824  11.541  0.00  0.00    +0.000 C 
ATOM     25  C   UNL     1       4.568   3.529  10.428  0.00  0.00    +0.000 C 
ENDBRANCH  10  23
TORSDOF 3
ENDMDL
MODEL 7
REMARK VINA RESULT:      -6.6      3.583      6.332
REMARK  Name = 
REMARK  3 active torsions:
REMARK  status: ('A' for Active; 'I' for Inactive)
REMARK    1  A    between atoms: C_3  and  N_4
REMARK    2  A    between atoms: C_13  and  C_14
REMARK    3  A    between atoms: C_21  and  C_22
REMARK                            x       y       z     vdW  Elec       q    Type
REMARK                         _______ _______ _______ _____ _____    ______ ____
ROOT
ATOM      1  N   UNL     1       1.255   8.619  19.658  0.00  0.00    +0.000 N 
ATOM      2  C   UNL     1       1.834   7.939  20.825  0.00  0.00    +0.000 C 
ATOM      3  C   UNL     1       1.425   6.470  20.886  0.00  0.00    +0.000 C 
ATOM      4  C   UNL     1       1.610   5.662  19.601  0.00  0.00    +0.000 C 
ATOM      5  N   UNL     1       2.648   6.201  18.728  0.00  0.00    +0.000 N 
ATOM      6  C   UNL     1       3.894   5.623  18.580  0.00  0.00    +0.000 A 
ATOM      7  C   UNL     1       4.442   4.828  19.566  0.00  0.00    +0.000 A 
ATOM      8  C   UNL     1       5.678   4.278  19.325  0.00  0.00    +0.000 A 
ATOM      9  N   UNL     1       6.369   4.475  18.195  0.00  0.00    +0.000 NA
ATOM     10  C   UNL     1       5.794   5.267  17.272  0.00  0.00    +0.000 A 
ATOM     11  N   UNL     1       4.590   5.855  17.450  0.00  0.00    +0.000 NA
ATOM     12  C   UNL     1       2.207   7.251  17.787  0.00  0.00    +0.000 C 
ATOM     13  C   UNL     1       2.140   8.635  18.466  0.00  0.00    +0.000 C 
ENDROOT
BRANCH   1  16
ATOM     14  C   UNL     1      -0.990  11.425  19.002  0.00  0.00    +0.000 A 
ATOM     15  C   UNL     1      -0.129  10.383  18.740  0.00  0.00    +0.000 A 
ATOM     16  C   UNL     1       0.365   9.678  19.817  0.00  0.00    +0.000 A 
ATOM     17  N   UNL     1       0.026  10.061  21.064  0.00  0.00    +0.000 NA
ATOM     18  C   UNL     1      -0.812  11.104  21.251  0.00  0.00    +0.000 A 
ATOM     19  N   UNL     1      -1.352  11.801  20.238  0.00  0.00    +0.000 NA
BRANCH  18  20
ATOM     20  C   UNL     1      -1.166  11.475  22.673  0.00  0.00    +0.000 C 
ATOM     21  C   UNL     1      -1.166  12.935  23.074  0.00  0.00    +0.000 C 
ATOM     22  C   UNL     1      -2.459  12.177  23.027  0.00  0.00    +0.000 C 
ENDBRANCH  18  20
ENDBRANCH   1  16
BRANCH  10  23
ATOM     23  C   UNL     1       6.550   5.526  15.990  0.00  0.00    +0.000 C 
ATOM     24  C   UNL     1       6.942   4.369  15.095  0.00  0.00    +0.000 C 
ATOM     25  C   UNL     1       5.884   5.333  14.646  0.00  0.00    +0.000 C 
ENDBRANCH  10  23
TORSDOF 3
ENDMDL
MODEL 8
REMARK VINA RESULT:      -6.5      6.327     11.604
REMARK  Name = 
REMARK  3 active torsions:
REMARK  status: ('A' for Active; 'I' for Inactive)
REMARK    1  A    between atoms: C_3  and  N_4
REMARK    2  A    between atoms: C_13  and  C_14
REMARK    3  A    between atoms: C_21  and  C_22
REMARK                            x       y       z     vdW  Elec       q    Type
REMARK                         _______ _______ _______ _____ _____    ______ ____
ROOT
ATOM      1  N   UNL     1       0.372  10.103  19.695  0.00  0.00    +0.000 N 
ATOM      2  C   UNL     1       0.539  10.732  21.012  0.00  0.00    +0.000 C 
ATOM      3  C   UNL     1       0.797  12.232  20.896  0.00  0.00    +0.000 C 
ATOM      4  C   UNL     1      -0.163  13.017  20.003  0.00  0.00    +0.000 C 
ATOM      5  N   UNL     1      -1.473  12.386  19.873  0.00  0.00    +0.000 N 
ATOM      6  C   UNL     1      -2.608  12.851  20.509  0.00  0.00    +0.000 A 
ATOM      7  C   UNL     1      -2.532  13.597  21.668  0.00  0.00    +0.000 A 
ATOM      8  C   UNL     1      -3.711  14.035  22.220  0.00  0.00    +0.000 A 
ATOM      9  N   UNL     1      -4.916  13.775  21.698  0.00  0.00    +0.000 NA
ATOM     10  C   UNL     1      -4.934  13.034  20.575  0.00  0.00    +0.000 A 
ATOM     11  N   UNL     1      -3.815  12.555  19.987  0.00  0.00    +0.000 NA
ATOM     12  C   UNL     1      -1.592  11.377  18.802  0.00  0.00    +0.000 C 
ATOM     13  C   UNL     1      -1.038  10.005  19.244  0.00  0.00    +0.000 C 
ENDROOT
BRANCH   1  16
ATOM     14  C   UNL     1       2.733   8.186  17.671  0.00  0.00    +0.000 A 
ATOM     15  C   UNL     1       1.884   9.210  18.025  0.00  0.00    +0.000 A 
ATOM     16  C   UNL     1       1.261   9.127  19.252  0.00  0.00    +0.000 A 
ATOM     17  N   UNL     1       1.470   8.040  20.023  0.00  0.00    +0.000 NA
ATOM     18  C   UNL     1       2.304   7.062  19.606  0.00  0.00    +0.000 A 
ATOM     19  N   UNL     1       2.965   7.111  18.438  0.00  0.00    +0.000 NA
BRANCH  18  20
ATOM     20  C   UNL     1       2.509   5.877  20.521  0.00  0.00    +0.000 C 
ATOM     21  C   UNL     1       1.493   4.754  20.510  0.00  0.00    +0.000 C 
ATOM     22  C   UNL     1       2.881   4.507  19.999  0.00  0.00    +0.000 C 
ENDBRANCH  18  20
ENDBRANCH   1  16
BRANCH  10  23
ATOM     23  C   UNL     1      -6.276  12.706  19.964  0.00  0.00    +0.000 C 
ATOM     24  C   UNL     1      -6.985  11.420  20.336  0.00  0.00    +0.000 C 
ATOM     25  C   UNL     1      -7.537  12.735  20.799  0.00  0.00    +0.000 C 
ENDBRANCH  10  23
TORSDOF 3
ENDMDL
MODEL 9
REMARK VINA RESULT:      -6.4      5.023      8.889
REMARK  Name = 
REMARK  3 active torsions:
REMARK  status: ('A' for Active; 'I' for Inactive)
REMARK    1  A    between atoms: C_3  and  N_4
REMARK    2  A    between atoms: C_13  and  C_14
REMARK    3  A    between atoms: C_21  and  C_22
REMARK                            x       y       z     vdW  Elec       q    Type
REMARK                         _______ _______ _______ _____ _____    ______ ____
ROOT
ATOM      1  N   UNL     1      -0.431  10.378  20.079  0.00  0.00    +0.000 N 
ATOM      2  C   UNL     1      -0.375   9.968  18.670  0.00  0.00    +0.000 C 
ATOM      3  C   UNL     1       1.031  10.111  18.093  0.00  0.00    +0.000 C 
ATOM      4  C   UNL     1       2.165   9.498  18.915  0.00  0.00    +0.000 C 
ATOM      5  N   UNL     1       1.726   8.402  19.773  0.00  0.00    +0.000 N 
ATOM      6  C   UNL     1       1.985   7.072  19.503  0.00  0.00    +0.000 A 
ATOM      7  C   UNL     1       2.217   6.629  18.216  0.00  0.00    +0.000 A 
ATOM      8  C   UNL     1       2.486   5.293  18.043  0.00  0.00    +0.000 A 
ATOM      9  N   UNL     1       2.533   4.411  19.048  0.00  0.00    +0.000 NA
ATOM     10  C   UNL     1       2.288   4.892  20.280  0.00  0.00    +0.000 A 
ATOM     11  N   UNL     1       1.998   6.190  20.521  0.00  0.00    +0.000 NA
ATOM     12  C   UNL     1       1.221   8.797  21.103  0.00  0.00    +0.000 C 
ATOM     13  C   UNL     1      -0.249   9.263  21.042  0.00  0.00    +0.000 C 
ENDROOT
BRANCH   1  16
ATOM     14  C   UNL     1      -2.905  13.065  20.143  0.00  0.00    +0.000 A 
ATOM     15  C   UNL     1      -2.192  11.990  19.663  0.00  0.00    +0.000 A 
ATOM     16  C   UNL     1      -1.218  11.455  20.479  0.00  0.00    +0.000 A 
ATOM     17  N   UNL     1      -0.977  12.027  21.676  0.00  0.00    +0.000 NA
ATOM     18  C   UNL     1      -1.704  13.093  22.079  0.00  0.00    +0.000 A 
ATOM     19  N   UNL     1      -2.689  13.629  21.340  0.00  0.00    +0.000 NA
BRANCH  18  20
ATOM     20  C   UNL     1      -1.396  13.680  23.437  0.00  0.00    +0.000 C 
ATOM     21  C   UNL     1      -0.806  15.072  23.520  0.00  0.00    +0.000 C 
ATOM     22  C   UNL     1      -2.196  14.822  24.024  0.00  0.00    +0.000 C 
ENDBRANCH  18  20
ENDBRANCH   1  16
BRANCH  10  23
ATOM     23  C   UNL     1       2.315   3.924  21.439  0.00  0.00    +0.000 C 
ATOM     24  C   UNL     1       1.333   2.772  21.487  0.00  0.00    +0.000 C 
ATOM     25  C   UNL     1       2.789   2.500  21.248  0.00  0.00    +0.000 C 
ENDBRANCH  10  23
TORSDOF 3
ENDMDL
