MODEL 1
REMARK VINA RESULT:      -8.7      0.000      0.000
REMARK  Name = 
REMARK  14 active torsions:
REMARK  status: ('A' for Active; 'I' for Inactive)
REMARK    1  A    between atoms: C_1  and  C_2
REMARK    2  A    between atoms: C_4  and  C_5
REMARK    3  A    between atoms: C_12  and  C_13
REMARK    4  A    between atoms: C_13  and  C_14
REMARK    5  A    between atoms: C_14  and  O_15
REMARK    6  A    between atoms: O_15  and  C_16
REMARK    7  A    between atoms: C_19  and  C_20
REMARK    8  A    between atoms: C_20  and  CA_21
REMARK    9  A    between atoms: CA_21  and  N_22
REMARK   10  A    between atoms: CA_21  and  C_32
REMARK   11  A    between atoms: N_22  and  C_23
REMARK   12  A    between atoms: C_28  and  C_29
REMARK   13  A    between atoms: C_29  and  O_31
REMARK   14  A    between atoms: C_32  and  OXT_34
REMARK                            x       y       z     vdW  Elec       q    Type
REMARK                         _______ _______ _______ _____ _____    ______ ____
ROOT
ATOM      1  C   UNL     1       2.839   6.104  19.387  0.00  0.00    +0.000 A 
ATOM      2  C   UNL     1       2.197   7.005  20.239  0.00  0.00    +0.000 A 
ATOM      3  C   UNL     1       1.772   8.243  19.792  0.00  0.00    +0.000 A 
ATOM      4  C   UNL     1       1.913   8.626  18.464  0.00  0.00    +0.000 A 
ATOM      5  C   UNL     1       2.652   7.772  17.625  0.00  0.00    +0.000 A 
ATOM      6  C   UNL     1       3.120   6.523  18.090  0.00  0.00    +0.000 A 
ENDROOT
BRANCH   1   7
ATOM      7  O   UNL     1       3.176   4.819  19.770  0.00  0.00    +0.000 OA
BRANCH   7   8
ATOM      8  C   UNL     1       4.294   4.312  19.016  0.00  0.00    +0.000 C 
BRANCH   8   9
ATOM      9  C   UNL     1       5.634   4.975  19.301  0.00  0.00    +0.000 C 
BRANCH   9  15
ATOM     10  C   UNL     1       8.042   7.198  18.382  0.00  0.00    +0.000 C 
ATOM     11  C   UNL     1       7.303   6.145  17.667  0.00  0.00    +0.000 A 
ATOM     12  O   UNL     1       7.566   6.018  16.333  0.00  0.00    +0.000 OA
ATOM     13  C   UNL     1       6.735   5.016  15.905  0.00  0.00    +0.000 A 
ATOM     14  N   UNL     1       5.987   4.506  16.865  0.00  0.00    +0.000 NA
ATOM     15  C   UNL     1       6.342   5.214  18.002  0.00  0.00    +0.000 A 
BRANCH  13  16
ATOM     16  C   UNL     1       6.792   4.693  14.478  0.00  0.00    +0.000 A 
ATOM     17  C   UNL     1       5.971   3.701  13.915  0.00  0.00    +0.000 A 
ATOM     18  C   UNL     1       6.035   3.399  12.552  0.00  0.00    +0.000 A 
ATOM     19  C   UNL     1       6.925   4.084  11.730  0.00  0.00    +0.000 A 
ATOM     20  C   UNL     1       7.750   5.069  12.269  0.00  0.00    +0.000 A 
ATOM     21  C   UNL     1       7.682   5.373  13.634  0.00  0.00    +0.000 A 
ENDBRANCH  13  16
ENDBRANCH   9  15
ENDBRANCH   8   9
ENDBRANCH   7   8
ENDBRANCH   1   7
BRANCH   4  22
ATOM     22  C   UNL     1       1.161   9.816  17.893  0.00  0.00    +0.000 C 
BRANCH  22  23
ATOM     23  CA  UNL     1      -0.152  10.276  18.589  0.00  0.00    +0.000 C 
BRANCH  23  24
ATOM     24  N   UNL     1       0.060  11.405  19.554  0.00  0.00    +0.000 N 
ATOM     25  H   UNL     1      -0.085  12.308  19.085  0.00  0.00    +0.000 HD
BRANCH  24  26
ATOM     26  C   UNL     1      -0.600  11.432  20.811  0.00  0.00    +0.000 A 
ATOM     27  C   UNL     1      -0.415  10.447  21.797  0.00  0.00    +0.000 A 
ATOM     28  C   UNL     1      -1.023  10.513  23.053  0.00  0.00    +0.000 A 
ATOM     29  C   UNL     1      -1.848  11.576  23.369  0.00  0.00    +0.000 A 
ATOM     30  C   UNL     1      -2.085  12.557  22.413  0.00  0.00    +0.000 A 
ATOM     31  C   UNL     1      -1.484  12.489  21.140  0.00  0.00    +0.000 A 
BRANCH  31  32
ATOM     32  C   UNL     1      -1.846  13.591  20.204  0.00  0.00    +0.000 C 
ATOM     33  O   UNL     1      -1.042  14.119  19.452  0.00  0.00    +0.000 OA
BRANCH  32  34
ATOM     34  O   UNL     1      -3.151  13.937  20.231  0.00  0.00    +0.000 OA
ATOM     35  H   UNL     1      -3.439  14.111  21.155  0.00  0.00    +0.000 HD
ENDBRANCH  32  34
ENDBRANCH  31  32
ENDBRANCH  24  26
ENDBRANCH  23  24
BRANCH  23  36
ATOM     36  C   UNL     1      -1.381  10.566  17.672  0.00  0.00    +0.000 C 
ATOM     37  O   UNL     1      -2.197   9.746  17.284  0.00  0.00    +0.000 OA
BRANCH  36  38
ATOM     38  OXT UNL     1      -1.513  11.881  17.357  0.00  0.00    +0.000 OA
ATOM     39  HXT UNL     1      -1.982  12.416  18.021  0.00  0.00    +0.000 HD
ENDBRANCH  36  38
ENDBRANCH  23  36
ENDBRANCH  22  23
ENDBRANCH   4  22
TORSDOF 13
ENDMDL
MODEL 2
REMARK VINA RESULT:      -8.6      2.392     11.361
REMARK  Name = 
REMARK  14 active torsions:
REMARK  status: ('A' for Active; 'I' for Inactive)
REMARK    1  A    between atoms: C_1  and  C_2
REMARK    2  A    between atoms: C_4  and  C_5
REMARK    3  A    between atoms: C_12  and  C_13
REMARK    4  A    between atoms: C_13  and  C_14
REMARK    5  A    between atoms: C_14  and  O_15
REMARK    6  A    between atoms: O_15  and  C_16
REMARK    7  A    between atoms: C_19  and  C_20
REMARK    8  A    between atoms: C_20  and  CA_21
REMARK    9  A    between atoms: CA_21  and  N_22
REMARK   10  A    between atoms: CA_21  and  C_32
REMARK   11  A    between atoms: N_22  and  C_23
REMARK   12  A    between atoms: C_28  and  C_29
REMARK   13  A    between atoms: C_29  and  O_31
REMARK   14  A    between atoms: C_32  and  OXT_34
REMARK                            x       y       z     vdW  Elec       q    Type
REMARK                         _______ _______ _______ _____ _____    ______ ____
ROOT
ATOM      1  C   UNL     1       1.928   7.496  20.084  0.00  0.00    +0.000 A 
ATOM      2  C   UNL     1       2.379   7.610  18.767  0.00  0.00    +0.000 A 
ATOM      3  C   UNL     1       2.618   6.493  17.987  0.00  0.00    +0.000 A 
ATOM      4  C   UNL     1       2.369   5.210  18.457  0.00  0.00    +0.000 A 
ATOM      5  C   UNL     1       2.019   5.079  19.813  0.00  0.00    +0.000 A 
ATOM      6  C   UNL     1       1.811   6.218  20.622  0.00  0.00    +0.000 A 
ENDROOT
BRANCH   1   7
ATOM      7  O   UNL     1       1.572   8.589  20.853  0.00  0.00    +0.000 OA
BRANCH   7   8
ATOM      8  C   UNL     1       0.752   9.516  20.118  0.00  0.00    +0.000 C 
BRANCH   8   9
ATOM      9  C   UNL     1       0.830  10.967  20.571  0.00  0.00    +0.000 C 
BRANCH   9  15
ATOM     10  C   UNL     1      -0.015   9.488  23.517  0.00  0.00    +0.000 C 
ATOM     11  C   UNL     1      -0.592  10.589  22.729  0.00  0.00    +0.000 A 
ATOM     12  O   UNL     1      -1.743  11.144  23.212  0.00  0.00    +0.000 OA
ATOM     13  C   UNL     1      -2.088  12.097  22.291  0.00  0.00    +0.000 A 
ATOM     14  N   UNL     1      -1.241  12.185  21.282  0.00  0.00    +0.000 NA
ATOM     15  C   UNL     1      -0.274  11.230  21.550  0.00  0.00    +0.000 A 
BRANCH  13  16
ATOM     16  C   UNL     1      -3.325  12.835  22.553  0.00  0.00    +0.000 A 
ATOM     17  C   UNL     1      -4.452  12.700  21.725  0.00  0.00    +0.000 A 
ATOM     18  C   UNL     1      -5.627  13.411  21.983  0.00  0.00    +0.000 A 
ATOM     19  C   UNL     1      -5.692  14.271  23.075  0.00  0.00    +0.000 A 
ATOM     20  C   UNL     1      -4.586  14.421  23.908  0.00  0.00    +0.000 A 
ATOM     21  C   UNL     1      -3.409  13.706  23.649  0.00  0.00    +0.000 A 
ENDBRANCH  13  16
ENDBRANCH   9  15
ENDBRANCH   8   9
ENDBRANCH   7   8
ENDBRANCH   1   7
BRANCH   4  22
ATOM     22  C   UNL     1       2.303   4.017  17.519  0.00  0.00    +0.000 C 
BRANCH  22  23
ATOM     23  CA  UNL     1       3.378   2.900  17.650  0.00  0.00    +0.000 C 
BRANCH  23  24
ATOM     24  N   UNL     1       4.738   3.433  17.993  0.00  0.00    +0.000 N 
ATOM     25  H   UNL     1       5.290   2.716  18.482  0.00  0.00    +0.000 HD
BRANCH  24  26
ATOM     26  C   UNL     1       5.556   4.047  17.009  0.00  0.00    +0.000 A 
ATOM     27  C   UNL     1       5.529   3.683  15.651  0.00  0.00    +0.000 A 
ATOM     28  C   UNL     1       6.295   4.334  14.680  0.00  0.00    +0.000 A 
ATOM     29  C   UNL     1       7.124   5.380  15.037  0.00  0.00    +0.000 A 
ATOM     30  C   UNL     1       7.207   5.754  16.373  0.00  0.00    +0.000 A 
ATOM     31  C   UNL     1       6.446   5.094  17.359  0.00  0.00    +0.000 A 
BRANCH  31  32
ATOM     32  C   UNL     1       6.651   5.576  18.754  0.00  0.00    +0.000 C 
ATOM     33  O   UNL     1       5.818   5.444  19.636  0.00  0.00    +0.000 OA
BRANCH  32  34
ATOM     34  O   UNL     1       7.855   6.147  18.972  0.00  0.00    +0.000 OA
ATOM     35  H   UNL     1       7.968   6.938  18.398  0.00  0.00    +0.000 HD
ENDBRANCH  32  34
ENDBRANCH  31  32
ENDBRANCH  24  26
ENDBRANCH  23  24
BRANCH  23  36
ATOM     36  C   UNL     1       3.029   1.676  18.553  0.00  0.00    +0.000 C 
ATOM     37  O   UNL     1       2.048   1.570  19.270  0.00  0.00    +0.000 OA
BRANCH  36  38
ATOM     38  OXT UNL     1       3.920   0.657  18.439  0.00  0.00    +0.000 OA
ATOM     39  HXT UNL     1       4.157   0.420  17.525  0.00  0.00    +0.000 HD
ENDBRANCH  36  38
ENDBRANCH  23  36
ENDBRANCH  22  23
ENDBRANCH   4  22
TORSDOF 13
ENDMDL
MODEL 3
REMARK VINA RESULT:      -8.5      2.881     11.269
REMARK  Name = 
REMARK  14 active torsions:
REMARK  status: ('A' for Active; 'I' for Inactive)
REMARK    1  A    between atoms: C_1  and  C_2
REMARK    2  A    between atoms: C_4  and  C_5
REMARK    3  A    between atoms: C_12  and  C_13
REMARK    4  A    between atoms: C_13  and  C_14
REMARK    5  A    between atoms: C_14  and  O_15
REMARK    6  A    between atoms: O_15  and  C_16
REMARK    7  A    between atoms: C_19  and  C_20
REMARK    8  A    between atoms: C_20  and  CA_21
REMARK    9  A    between atoms: CA_21  and  N_22
REMARK   10  A    between atoms: CA_21  and  C_32
REMARK   11  A    between atoms: N_22  and  C_23
REMARK   12  A    between atoms: C_28  and  C_29
REMARK   13  A    between atoms: C_29  and  O_31
REMARK   14  A    between atoms: C_32  and  OXT_34
REMARK                            x       y       z     vdW  Elec       q    Type
REMARK                         _______ _______ _______ _____ _____    ______ ____
ROOT
ATOM      1  C   UNL     1       1.229   9.718  18.763  0.00  0.00    +0.000 A 
ATOM      2  C   UNL     1       1.036   9.224  20.054  0.00  0.00    +0.000 A 
ATOM      3  C   UNL     1       1.505   7.977  20.427  0.00  0.00    +0.000 A 
ATOM      4  C   UNL     1       2.238   7.183  19.554  0.00  0.00    +0.000 A 
ATOM      5  C   UNL     1       2.345   7.624  18.222  0.00  0.00    +0.000 A 
ATOM      6  C   UNL     1       1.833   8.881  17.830  0.00  0.00    +0.000 A 
ENDROOT
BRANCH   1   7
ATOM      7  O   UNL     1       0.874  11.001  18.389  0.00  0.00    +0.000 OA
BRANCH   7   8
ATOM      8  C   UNL     1      -0.556  11.171  18.352  0.00  0.00    +0.000 C 
BRANCH   8   9
ATOM      9  C   UNL     1      -1.326  10.102  17.591  0.00  0.00    +0.000 C 
BRANCH   9  15
ATOM     10  C   UNL     1      -3.084  10.217  14.679  0.00  0.00    +0.000 C 
ATOM     11  C   UNL     1      -3.357  10.675  16.051  0.00  0.00    +0.000 A 
ATOM     12  O   UNL     1      -4.535  11.338  16.248  0.00  0.00    +0.000 OA
ATOM     13  C   UNL     1      -4.526  11.685  17.573  0.00  0.00    +0.000 A 
ATOM     14  N   UNL     1      -3.445  11.284  18.215  0.00  0.00    +0.000 NA
ATOM     15  C   UNL     1      -2.688  10.631  17.256  0.00  0.00    +0.000 A 
BRANCH  13  16
ATOM     16  C   UNL     1      -5.681  12.448  18.050  0.00  0.00    +0.000 A 
ATOM     17  C   UNL     1      -5.890  12.688  19.419  0.00  0.00    +0.000 A 
ATOM     18  C   UNL     1      -6.997  13.415  19.864  0.00  0.00    +0.000 A 
ATOM     19  C   UNL     1      -7.916  13.913  18.944  0.00  0.00    +0.000 A 
ATOM     20  C   UNL     1      -7.729  13.685  17.583  0.00  0.00    +0.000 A 
ATOM     21  C   UNL     1      -6.617  12.958  17.138  0.00  0.00    +0.000 A 
ENDBRANCH  13  16
ENDBRANCH   9  15
ENDBRANCH   8   9
ENDBRANCH   7   8
ENDBRANCH   1   7
BRANCH   4  22
ATOM     22  C   UNL     1       3.036   5.987  20.043  0.00  0.00    +0.000 C 
BRANCH  22  23
ATOM     23  CA  UNL     1       3.322   4.823  19.051  0.00  0.00    +0.000 C 
BRANCH  23  24
ATOM     24  N   UNL     1       4.781   4.489  18.944  0.00  0.00    +0.000 N 
ATOM     25  H   UNL     1       4.973   3.583  19.390  0.00  0.00    +0.000 HD
BRANCH  24  26
ATOM     26  C   UNL     1       5.456   4.537  17.696  0.00  0.00    +0.000 A 
ATOM     27  C   UNL     1       4.966   3.917  16.533  0.00  0.00    +0.000 A 
ATOM     28  C   UNL     1       5.607   4.020  15.297  0.00  0.00    +0.000 A 
ATOM     29  C   UNL     1       6.774   4.751  15.178  0.00  0.00    +0.000 A 
ATOM     30  C   UNL     1       7.312   5.356  16.308  0.00  0.00    +0.000 A 
ATOM     31  C   UNL     1       6.676   5.245  17.561  0.00  0.00    +0.000 A 
BRANCH  31  32
ATOM     32  C   UNL     1       7.375   5.918  18.694  0.00  0.00    +0.000 C 
ATOM     33  O   UNL     1       7.939   6.994  18.585  0.00  0.00    +0.000 OA
BRANCH  32  34
ATOM     34  O   UNL     1       7.305   5.249  19.864  0.00  0.00    +0.000 OA
ATOM     35  H   UNL     1       7.087   5.866  20.599  0.00  0.00    +0.000 HD
ENDBRANCH  32  34
ENDBRANCH  31  32
ENDBRANCH  24  26
ENDBRANCH  23  24
BRANCH  23  36
ATOM     36  C   UNL     1       2.475   3.522  19.216  0.00  0.00    +0.000 C 
ATOM     37  O   UNL     1       1.259   3.445  19.154  0.00  0.00    +0.000 OA
BRANCH  36  38
ATOM     38  OXT UNL     1       3.235   2.410  19.394  0.00  0.00    +0.000 OA
ATOM     39  HXT UNL     1       3.074   1.934  20.228  0.00  0.00    +0.000 HD
ENDBRANCH  36  38
ENDBRANCH  23  36
ENDBRANCH  22  23
ENDBRANCH   4  22
TORSDOF 13
ENDMDL
MODEL 4
REMARK VINA RESULT:      -8.5      1.566      2.231
REMARK  Name = 
REMARK  14 active torsions:
REMARK  status: ('A' for Active; 'I' for Inactive)
REMARK    1  A    between atoms: C_1  and  C_2
REMARK    2  A    between atoms: C_4  and  C_5
REMARK    3  A    between atoms: C_12  and  C_13
REMARK    4  A    between atoms: C_13  and  C_14
REMARK    5  A    between atoms: C_14  and  O_15
REMARK    6  A    between atoms: O_15  and  C_16
REMARK    7  A    between atoms: C_19  and  C_20
REMARK    8  A    between atoms: C_20  and  CA_21
REMARK    9  A    between atoms: CA_21  and  N_22
REMARK   10  A    between atoms: CA_21  and  C_32
REMARK   11  A    between atoms: N_22  and  C_23
REMARK   12  A    between atoms: C_28  and  C_29
REMARK   13  A    between atoms: C_29  and  O_31
REMARK   14  A    between atoms: C_32  and  OXT_34
REMARK                            x       y       z     vdW  Elec       q    Type
REMARK                         _______ _______ _______ _____ _____    ______ ____
ROOT
ATOM      1  C   UNL     1       2.211   7.481  19.673  0.00  0.00    +0.000 A 
ATOM      2  C   UNL     1       2.159   8.026  18.389  0.00  0.00    +0.000 A 
ATOM      3  C   UNL     1       1.393   9.142  18.108  0.00  0.00    +0.000 A 
ATOM      4  C   UNL     1       0.684   9.808  19.100  0.00  0.00    +0.000 A 
ATOM      5  C   UNL     1       0.643   9.207  20.372  0.00  0.00    +0.000 A 
ATOM      6  C   UNL     1       1.395   8.044  20.650  0.00  0.00    +0.000 A 
ENDROOT
BRANCH   1   7
ATOM      7  O   UNL     1       3.050   6.437  20.014  0.00  0.00    +0.000 OA
BRANCH   7   8
ATOM      8  C   UNL     1       3.600   5.791  18.850  0.00  0.00    +0.000 C 
BRANCH   8   9
ATOM      9  C   UNL     1       4.689   4.762  19.120  0.00  0.00    +0.000 C 
BRANCH   9  15
ATOM     10  C   UNL     1       7.914   5.843  19.025  0.00  0.00    +0.000 C 
ATOM     11  C   UNL     1       6.996   5.289  18.016  0.00  0.00    +0.000 A 
ATOM     12  O   UNL     1       7.472   5.214  16.738  0.00  0.00    +0.000 OA
ATOM     13  C   UNL     1       6.430   4.713  16.004  0.00  0.00    +0.000 A 
ATOM     14  N   UNL     1       5.351   4.465  16.722  0.00  0.00    +0.000 NA
ATOM     15  C   UNL     1       5.699   4.823  18.015  0.00  0.00    +0.000 A 
BRANCH  13  16
ATOM     16  C   UNL     1       6.665   4.559  14.566  0.00  0.00    +0.000 A 
ATOM     17  C   UNL     1       5.939   3.635  13.797  0.00  0.00    +0.000 A 
ATOM     18  C   UNL     1       6.173   3.494  12.427  0.00  0.00    +0.000 A 
ATOM     19  C   UNL     1       7.142   4.276  11.804  0.00  0.00    +0.000 A 
ATOM     20  C   UNL     1       7.875   5.197  12.549  0.00  0.00    +0.000 A 
ATOM     21  C   UNL     1       7.637   5.339  13.922  0.00  0.00    +0.000 A 
ENDBRANCH  13  16
ENDBRANCH   9  15
ENDBRANCH   8   9
ENDBRANCH   7   8
ENDBRANCH   1   7
BRANCH   4  22
ATOM     22  C   UNL     1       0.125  11.202  18.882  0.00  0.00    +0.000 C 
BRANCH  22  23
ATOM     23  CA  UNL     1      -1.397  11.442  19.100  0.00  0.00    +0.000 C 
BRANCH  23  24
ATOM     24  N   UNL     1      -1.692  12.725  19.820  0.00  0.00    +0.000 N 
ATOM     25  H   UNL     1      -1.989  13.448  19.153  0.00  0.00    +0.000 HD
BRANCH  24  26
ATOM     26  C   UNL     1      -2.559  12.755  20.943  0.00  0.00    +0.000 A 
ATOM     27  C   UNL     1      -3.910  13.136  20.862  0.00  0.00    +0.000 A 
ATOM     28  C   UNL     1      -4.770  13.105  21.962  0.00  0.00    +0.000 A 
ATOM     29  C   UNL     1      -4.305  12.690  23.195  0.00  0.00    +0.000 A 
ATOM     30  C   UNL     1      -2.968  12.333  23.330  0.00  0.00    +0.000 A 
ATOM     31  C   UNL     1      -2.092  12.374  22.227  0.00  0.00    +0.000 A 
BRANCH  31  32
ATOM     32  C   UNL     1      -0.681  11.993  22.517  0.00  0.00    +0.000 C 
ATOM     33  O   UNL     1      -0.375  10.990  23.142  0.00  0.00    +0.000 OA
BRANCH  32  34
ATOM     34  O   UNL     1       0.239  12.836  22.001  0.00  0.00    +0.000 OA
ATOM     35  H   UNL     1      -0.179  13.694  21.764  0.00  0.00    +0.000 HD
ENDBRANCH  32  34
ENDBRANCH  31  32
ENDBRANCH  24  26
ENDBRANCH  23  24
BRANCH  23  36
ATOM     36  C   UNL     1      -2.328  11.287  17.858  0.00  0.00    +0.000 C 
ATOM     37  O   UNL     1      -3.507  11.596  17.801  0.00  0.00    +0.000 OA
BRANCH  36  38
ATOM     38  OXT UNL     1      -1.684  10.801  16.765  0.00  0.00    +0.000 OA
ATOM     39  HXT UNL     1      -2.135  10.962  15.918  0.00  0.00    +0.000 HD
ENDBRANCH  36  38
ENDBRANCH  23  36
ENDBRANCH  22  23
ENDBRANCH   4  22
TORSDOF 13
ENDMDL
MODEL 5
REMARK VINA RESULT:      -8.5      1.636      2.866
REMARK  Name = 
REMARK  14 active torsions:
REMARK  status: ('A' for Active; 'I' for Inactive)
REMARK    1  A    between atoms: C_1  and  C_2
REMARK    2  A    between atoms: C_4  and  C_5
REMARK    3  A    between atoms: C_12  and  C_13
REMARK    4  A    between atoms: C_13  and  C_14
REMARK    5  A    between atoms: C_14  and  O_15
REMARK    6  A    between atoms: O_15  and  C_16
REMARK    7  A    between atoms: C_19  and  C_20
REMARK    8  A    between atoms: C_20  and  CA_21
REMARK    9  A    between atoms: CA_21  and  N_22
REMARK   10  A    between atoms: CA_21  and  C_32
REMARK   11  A    between atoms: N_22  and  C_23
REMARK   12  A    between atoms: C_28  and  C_29
REMARK   13  A    between atoms: C_29  and  O_31
REMARK   14  A    between atoms: C_32  and  OXT_34
REMARK                            x       y       z     vdW  Elec       q    Type
REMARK                         _______ _______ _______ _____ _____    ______ ____
ROOT
ATOM      1  C   UNL     1       2.885   7.160  18.570  0.00  0.00    +0.000 A 
ATOM      2  C   UNL     1       2.482   8.118  17.638  0.00  0.00    +0.000 A 
ATOM      3  C   UNL     1       1.608   9.134  17.980  0.00  0.00    +0.000 A 
ATOM      4  C   UNL     1       1.133   9.282  19.277  0.00  0.00    +0.000 A 
ATOM      5  C   UNL     1       1.447   8.262  20.195  0.00  0.00    +0.000 A 
ATOM      6  C   UNL     1       2.310   7.203  19.837  0.00  0.00    +0.000 A 
ENDROOT
BRANCH   1   7
ATOM      7  O   UNL     1       3.842   6.200  18.295  0.00  0.00    +0.000 OA
BRANCH   7   8
ATOM      8  C   UNL     1       4.070   5.334  19.423  0.00  0.00    +0.000 C 
BRANCH   8   9
ATOM      9  C   UNL     1       4.945   4.118  19.152  0.00  0.00    +0.000 C 
BRANCH   9  15
ATOM     10  C   UNL     1       7.826   5.917  18.950  0.00  0.00    +0.000 C 
ATOM     11  C   UNL     1       7.016   5.180  17.967  0.00  0.00    +0.000 A 
ATOM     12  O   UNL     1       7.438   5.234  16.669  0.00  0.00    +0.000 OA
ATOM     13  C   UNL     1       6.507   4.515  15.967  0.00  0.00    +0.000 A 
ATOM     14  N   UNL     1       5.548   4.014  16.723  0.00  0.00    +0.000 NA
ATOM     15  C   UNL     1       5.862   4.426  18.008  0.00  0.00    +0.000 A 
BRANCH  13  16
ATOM     16  C   UNL     1       6.706   4.439  14.518  0.00  0.00    +0.000 A 
ATOM     17  C   UNL     1       7.654   5.243  13.863  0.00  0.00    +0.000 A 
ATOM     18  C   UNL     1       7.834   5.164  12.479  0.00  0.00    +0.000 A 
ATOM     19  C   UNL     1       7.064   4.281  11.728  0.00  0.00    +0.000 A 
ATOM     20  C   UNL     1       6.117   3.477  12.358  0.00  0.00    +0.000 A 
ATOM     21  C   UNL     1       5.940   3.555  13.745  0.00  0.00    +0.000 A 
ENDBRANCH  13  16
ENDBRANCH   9  15
ENDBRANCH   8   9
ENDBRANCH   7   8
ENDBRANCH   1   7
BRANCH   4  22
ATOM     22  C   UNL     1       0.459  10.562  19.739  0.00  0.00    +0.000 C 
BRANCH  22  23
ATOM     23  CA  UNL     1       0.872  11.907  19.076  0.00  0.00    +0.000 C 
BRANCH  23  24
ATOM     24  N   UNL     1      -0.291  12.656  18.494  0.00  0.00    +0.000 N 
ATOM     25  H   UNL     1      -0.427  12.395  17.509  0.00  0.00    +0.000 HD
BRANCH  24  26
ATOM     26  C   UNL     1      -1.553  12.670  19.142  0.00  0.00    +0.000 A 
ATOM     27  C   UNL     1      -1.818  13.433  20.293  0.00  0.00    +0.000 A 
ATOM     28  C   UNL     1      -3.081  13.487  20.889  0.00  0.00    +0.000 A 
ATOM     29  C   UNL     1      -4.133  12.771  20.351  0.00  0.00    +0.000 A 
ATOM     30  C   UNL     1      -3.910  11.977  19.231  0.00  0.00    +0.000 A 
ATOM     31  C   UNL     1      -2.636  11.909  18.633  0.00  0.00    +0.000 A 
BRANCH  31  32
ATOM     32  C   UNL     1      -2.530  11.000  17.457  0.00  0.00    +0.000 C 
ATOM     33  O   UNL     1      -2.906   9.839  17.474  0.00  0.00    +0.000 OA
BRANCH  32  34
ATOM     34  O   UNL     1      -2.009  11.578  16.354  0.00  0.00    +0.000 OA
ATOM     35  H   UNL     1      -2.567  12.337  16.070  0.00  0.00    +0.000 HD
ENDBRANCH  32  34
ENDBRANCH  31  32
ENDBRANCH  24  26
ENDBRANCH  23  24
BRANCH  23  36
ATOM     36  C   UNL     1       1.776  12.866  19.912  0.00  0.00    +0.000 C 
ATOM     37  O   UNL     1       1.768  12.982  21.127  0.00  0.00    +0.000 OA
BRANCH  36  38
ATOM     38  OXT UNL     1       2.656  13.568  19.152  0.00  0.00    +0.000 OA
ATOM     39  HXT UNL     1       2.720  13.277  18.225  0.00  0.00    +0.000 HD
ENDBRANCH  36  38
ENDBRANCH  23  36
ENDBRANCH  22  23
ENDBRANCH   4  22
TORSDOF 13
ENDMDL
MODEL 6
REMARK VINA RESULT:      -8.4      2.273     11.462
REMARK  Name = 
REMARK  14 active torsions:
REMARK  status: ('A' for Active; 'I' for Inactive)
REMARK    1  A    between atoms: C_1  and  C_2
REMARK    2  A    between atoms: C_4  and  C_5
REMARK    3  A    between atoms: C_12  and  C_13
REMARK    4  A    between atoms: C_13  and  C_14
REMARK    5  A    between atoms: C_14  and  O_15
REMARK    6  A    between atoms: O_15  and  C_16
REMARK    7  A    between atoms: C_19  and  C_20
REMARK    8  A    between atoms: C_20  and  CA_21
REMARK    9  A    between atoms: CA_21  and  N_22
REMARK   10  A    between atoms: CA_21  and  C_32
REMARK   11  A    between atoms: N_22  and  C_23
REMARK   12  A    between atoms: C_28  and  C_29
REMARK   13  A    between atoms: C_29  and  O_31
REMARK   14  A    between atoms: C_32  and  OXT_34
REMARK                            x       y       z     vdW  Elec       q    Type
REMARK                         _______ _______ _______ _____ _____    ______ ____
ROOT
ATOM      1  C   UNL     1       1.716   8.707  18.939  0.00  0.00    +0.000 A 
ATOM      2  C   UNL     1       2.455   7.935  18.040  0.00  0.00    +0.000 A 
ATOM      3  C   UNL     1       2.942   6.689  18.389  0.00  0.00    +0.000 A 
ATOM      4  C   UNL     1       2.674   6.123  19.629  0.00  0.00    +0.000 A 
ATOM      5  C   UNL     1       2.024   6.934  20.578  0.00  0.00    +0.000 A 
ATOM      6  C   UNL     1       1.558   8.222  20.234  0.00  0.00    +0.000 A 
ENDROOT
BRANCH   1   7
ATOM      7  O   UNL     1       1.119   9.904  18.589  0.00  0.00    +0.000 OA
BRANCH   7   8
ATOM      8  C   UNL     1       0.099  10.288  19.529  0.00  0.00    +0.000 C 
BRANCH   8   9
ATOM      9  C   UNL     1       0.454  11.448  20.450  0.00  0.00    +0.000 C 
BRANCH   9  15
ATOM     10  C   UNL     1      -0.076   9.636  23.281  0.00  0.00    +0.000 C 
ATOM     11  C   UNL     1      -0.771  10.772  22.656  0.00  0.00    +0.000 A 
ATOM     12  O   UNL     1      -1.907  11.206  23.276  0.00  0.00    +0.000 OA
ATOM     13  C   UNL     1      -2.373  12.223  22.487  0.00  0.00    +0.000 A 
ATOM     14  N   UNL     1      -1.615  12.462  21.433  0.00  0.00    +0.000 NA
ATOM     15  C   UNL     1      -0.581  11.545  21.529  0.00  0.00    +0.000 A 
BRANCH  13  16
ATOM     16  C   UNL     1      -3.623  12.855  22.915  0.00  0.00    +0.000 A 
ATOM     17  C   UNL     1      -4.367  12.355  23.996  0.00  0.00    +0.000 A 
ATOM     18  C   UNL     1      -5.560  12.964  24.394  0.00  0.00    +0.000 A 
ATOM     19  C   UNL     1      -6.030  14.084  23.713  0.00  0.00    +0.000 A 
ATOM     20  C   UNL     1      -5.308  14.594  22.637  0.00  0.00    +0.000 A 
ATOM     21  C   UNL     1      -4.111  13.984  22.241  0.00  0.00    +0.000 A 
ENDBRANCH  13  16
ENDBRANCH   9  15
ENDBRANCH   8   9
ENDBRANCH   7   8
ENDBRANCH   1   7
BRANCH   4  22
ATOM     22  C   UNL     1       2.907   4.647  19.898  0.00  0.00    +0.000 C 
BRANCH  22  23
ATOM     23  CA  UNL     1       3.131   3.691  18.691  0.00  0.00    +0.000 C 
BRANCH  23  24
ATOM     24  N   UNL     1       4.581   3.424  18.416  0.00  0.00    +0.000 N 
ATOM     25  H   UNL     1       4.765   2.412  18.419  0.00  0.00    +0.000 HD
BRANCH  24  26
ATOM     26  C   UNL     1       5.235   4.003  17.297  0.00  0.00    +0.000 A 
ATOM     27  C   UNL     1       4.796   3.827  15.973  0.00  0.00    +0.000 A 
ATOM     28  C   UNL     1       5.411   4.449  14.885  0.00  0.00    +0.000 A 
ATOM     29  C   UNL     1       6.500   5.277  15.083  0.00  0.00    +0.000 A 
ATOM     30  C   UNL     1       6.989   5.455  16.372  0.00  0.00    +0.000 A 
ATOM     31  C   UNL     1       6.380   4.820  17.473  0.00  0.00    +0.000 A 
BRANCH  31  32
ATOM     32  C   UNL     1       7.022   5.076  18.794  0.00  0.00    +0.000 C 
ATOM     33  O   UNL     1       8.213   4.906  19.002  0.00  0.00    +0.000 OA
BRANCH  32  34
ATOM     34  O   UNL     1       6.180   5.544  19.739  0.00  0.00    +0.000 OA
ATOM     35  H   UNL     1       5.962   4.835  20.385  0.00  0.00    +0.000 HD
ENDBRANCH  32  34
ENDBRANCH  31  32
ENDBRANCH  24  26
ENDBRANCH  23  24
BRANCH  23  36
ATOM     36  C   UNL     1       2.318   2.359  18.676  0.00  0.00    +0.000 C 
ATOM     37  O   UNL     1       1.560   1.970  19.550  0.00  0.00    +0.000 OA
BRANCH  36  38
ATOM     38  OXT UNL     1       2.486   1.644  17.534  0.00  0.00    +0.000 OA
ATOM     39  HXT UNL     1       3.290   1.861  17.029  0.00  0.00    +0.000 HD
ENDBRANCH  36  38
ENDBRANCH  23  36
ENDBRANCH  22  23
ENDBRANCH   4  22
TORSDOF 13
ENDMDL
MODEL 7
REMARK VINA RESULT:      -8.3      2.745     10.498
REMARK  Name = 
REMARK  14 active torsions:
REMARK  status: ('A' for Active; 'I' for Inactive)
REMARK    1  A    between atoms: C_1  and  C_2
REMARK    2  A    between atoms: C_4  and  C_5
REMARK    3  A    between atoms: C_12  and  C_13
REMARK    4  A    between atoms: C_13  and  C_14
REMARK    5  A    between atoms: C_14  and  O_15
REMARK    6  A    between atoms: O_15  and  C_16
REMARK    7  A    between atoms: C_19  and  C_20
REMARK    8  A    between atoms: C_20  and  CA_21
REMARK    9  A    between atoms: CA_21  and  N_22
REMARK   10  A    between atoms: CA_21  and  C_32
REMARK   11  A    between atoms: N_22  and  C_23
REMARK   12  A    between atoms: C_28  and  C_29
REMARK   13  A    between atoms: C_29  and  O_31
REMARK   14  A    between atoms: C_32  and  OXT_34
REMARK                            x       y       z     vdW  Elec       q    Type
REMARK                         _______ _______ _______ _____ _____    ______ ____
ROOT
ATOM      1  C   UNL     1       1.851   7.518  20.145  0.00  0.00    +0.000 A 
ATOM      2  C   UNL     1       2.350   7.652  18.848  0.00  0.00    +0.000 A 
ATOM      3  C   UNL     1       2.621   6.548  18.061  0.00  0.00    +0.000 A 
ATOM      4  C   UNL     1       2.357   5.257  18.500  0.00  0.00    +0.000 A 
ATOM      5  C   UNL     1       1.956   5.105  19.840  0.00  0.00    +0.000 A 
ATOM      6  C   UNL     1       1.715   6.231  20.659  0.00  0.00    +0.000 A 
ENDROOT
BRANCH   1   7
ATOM      7  O   UNL     1       1.463   8.597  20.917  0.00  0.00    +0.000 OA
BRANCH   7   8
ATOM      8  C   UNL     1       0.861   9.636  20.121  0.00  0.00    +0.000 C 
BRANCH   8   9
ATOM      9  C   UNL     1      -0.192  10.479  20.826  0.00  0.00    +0.000 C 
BRANCH   9  15
ATOM     10  C   UNL     1      -2.660  12.694  20.060  0.00  0.00    +0.000 C 
ATOM     11  C   UNL     1      -1.193  12.725  19.945  0.00  0.00    +0.000 A 
ATOM     12  O   UNL     1      -0.652  13.840  19.371  0.00  0.00    +0.000 OA
ATOM     13  C   UNL     1       0.697  13.605  19.347  0.00  0.00    +0.000 A 
ATOM     14  N   UNL     1       1.038  12.440  19.867  0.00  0.00    +0.000 NA
ATOM     15  C   UNL     1      -0.161  11.866  20.260  0.00  0.00    +0.000 A 
BRANCH  13  16
ATOM     16  C   UNL     1       1.527  14.648  18.742  0.00  0.00    +0.000 A 
ATOM     17  C   UNL     1       1.147  16.001  18.773  0.00  0.00    +0.000 A 
ATOM     18  C   UNL     1       1.945  16.988  18.190  0.00  0.00    +0.000 A 
ATOM     19  C   UNL     1       3.137  16.637  17.562  0.00  0.00    +0.000 A 
ATOM     20  C   UNL     1       3.531  15.302  17.518  0.00  0.00    +0.000 A 
ATOM     21  C   UNL     1       2.731  14.313  18.106  0.00  0.00    +0.000 A 
ENDBRANCH  13  16
ENDBRANCH   9  15
ENDBRANCH   8   9
ENDBRANCH   7   8
ENDBRANCH   1   7
BRANCH   4  22
ATOM     22  C   UNL     1       2.329   4.079  17.543  0.00  0.00    +0.000 C 
BRANCH  22  23
ATOM     23  CA  UNL     1       3.471   3.025  17.618  0.00  0.00    +0.000 C 
BRANCH  23  24
ATOM     24  N   UNL     1       4.838   3.642  17.654  0.00  0.00    +0.000 N 
ATOM     25  H   UNL     1       5.469   3.076  18.235  0.00  0.00    +0.000 HD
BRANCH  24  26
ATOM     26  C   UNL     1       5.514   4.001  16.458  0.00  0.00    +0.000 A 
ATOM     27  C   UNL     1       4.944   3.858  15.181  0.00  0.00    +0.000 A 
ATOM     28  C   UNL     1       5.594   4.269  14.015  0.00  0.00    +0.000 A 
ATOM     29  C   UNL     1       6.850   4.841  14.085  0.00  0.00    +0.000 A 
ATOM     30  C   UNL     1       7.466   4.973  15.325  0.00  0.00    +0.000 A 
ATOM     31  C   UNL     1       6.820   4.549  16.503  0.00  0.00    +0.000 A 
BRANCH  31  32
ATOM     32  C   UNL     1       7.604   4.723  17.759  0.00  0.00    +0.000 C 
ATOM     33  O   UNL     1       8.596   4.064  18.024  0.00  0.00    +0.000 OA
BRANCH  32  34
ATOM     34  O   UNL     1       7.142   5.698  18.571  0.00  0.00    +0.000 OA
ATOM     35  H   UNL     1       7.170   6.568  18.112  0.00  0.00    +0.000 HD
ENDBRANCH  32  34
ENDBRANCH  31  32
ENDBRANCH  24  26
ENDBRANCH  23  24
BRANCH  23  36
ATOM     36  C   UNL     1       3.345   1.914  18.707  0.00  0.00    +0.000 C 
ATOM     37  O   UNL     1       4.219   1.569  19.485  0.00  0.00    +0.000 OA
BRANCH  36  38
ATOM     38  OXT UNL     1       2.106   1.359  18.762  0.00  0.00    +0.000 OA
ATOM     39  HXT UNL     1       1.810   1.106  19.654  0.00  0.00    +0.000 HD
ENDBRANCH  36  38
ENDBRANCH  23  36
ENDBRANCH  22  23
ENDBRANCH   4  22
TORSDOF 13
ENDMDL
MODEL 8
REMARK VINA RESULT:      -8.3      3.079     11.121
REMARK  Name = 
REMARK  14 active torsions:
REMARK  status: ('A' for Active; 'I' for Inactive)
REMARK    1  A    between atoms: C_1  and  C_2
REMARK    2  A    between atoms: C_4  and  C_5
REMARK    3  A    between atoms: C_12  and  C_13
REMARK    4  A    between atoms: C_13  and  C_14
REMARK    5  A    between atoms: C_14  and  O_15
REMARK    6  A    between atoms: O_15  and  C_16
REMARK    7  A    between atoms: C_19  and  C_20
REMARK    8  A    between atoms: C_20  and  CA_21
REMARK    9  A    between atoms: CA_21  and  N_22
REMARK   10  A    between atoms: CA_21  and  C_32
REMARK   11  A    between atoms: N_22  and  C_23
REMARK   12  A    between atoms: C_28  and  C_29
REMARK   13  A    between atoms: C_29  and  O_31
REMARK   14  A    between atoms: C_32  and  OXT_34
REMARK                            x       y       z     vdW  Elec       q    Type
REMARK                         _______ _______ _______ _____ _____    ______ ____
ROOT
ATOM      1  C   UNL     1       1.080   9.859  19.159  0.00  0.00    +0.000 A 
ATOM      2  C   UNL     1       0.602   9.500  20.421  0.00  0.00    +0.000 A 
ATOM      3  C   UNL     1       0.889   8.267  20.978  0.00  0.00    +0.000 A 
ATOM      4  C   UNL     1       1.711   7.351  20.334  0.00  0.00    +0.000 A 
ATOM      5  C   UNL     1       2.109   7.658  19.020  0.00  0.00    +0.000 A 
ATOM      6  C   UNL     1       1.784   8.902  18.435  0.00  0.00    +0.000 A 
ENDROOT
BRANCH   1   7
ATOM      7  O   UNL     1       0.907  11.121  18.621  0.00  0.00    +0.000 OA
BRANCH   7   8
ATOM      8  C   UNL     1      -0.473  11.379  18.296  0.00  0.00    +0.000 C 
BRANCH   8   9
ATOM      9  C   UNL     1      -1.205  10.249  17.587  0.00  0.00    +0.000 C 
BRANCH   9  15
ATOM     10  C   UNL     1      -3.130  10.091  14.785  0.00  0.00    +0.000 C 
ATOM     11  C   UNL     1      -3.349  10.618  16.141  0.00  0.00    +0.000 A 
ATOM     12  O   UNL     1      -4.549  11.230  16.369  0.00  0.00    +0.000 OA
ATOM     13  C   UNL     1      -4.484  11.658  17.668  0.00  0.00    +0.000 A 
ATOM     14  N   UNL     1      -3.347  11.356  18.267  0.00  0.00    +0.000 NA
ATOM     15  C   UNL     1      -2.611  10.684  17.304  0.00  0.00    +0.000 A 
BRANCH  13  16
ATOM     16  C   UNL     1      -5.651  12.389  18.168  0.00  0.00    +0.000 A 
ATOM     17  C   UNL     1      -6.528  13.058  17.298  0.00  0.00    +0.000 A 
ATOM     18  C   UNL     1      -7.637  13.754  17.787  0.00  0.00    +0.000 A 
ATOM     19  C   UNL     1      -7.885  13.794  19.156  0.00  0.00    +0.000 A 
ATOM     20  C   UNL     1      -7.026  13.139  20.036  0.00  0.00    +0.000 A 
ATOM     21  C   UNL     1      -5.916  12.439  19.544  0.00  0.00    +0.000 A 
ENDBRANCH  13  16
ENDBRANCH   9  15
ENDBRANCH   8   9
ENDBRANCH   7   8
ENDBRANCH   1   7
BRANCH   4  22
ATOM     22  C   UNL     1       2.302   6.159  21.066  0.00  0.00    +0.000 C 
BRANCH  22  23
ATOM     23  CA  UNL     1       2.371   4.789  20.331  0.00  0.00    +0.000 C 
BRANCH  23  24
ATOM     24  N   UNL     1       3.768   4.398  19.948  0.00  0.00    +0.000 N 
ATOM     25  H   UNL     1       3.955   3.426  20.226  0.00  0.00    +0.000 HD
BRANCH  24  26
ATOM     26  C   UNL     1       4.251   4.598  18.629  0.00  0.00    +0.000 A 
ATOM     27  C   UNL     1       4.967   5.743  18.238  0.00  0.00    +0.000 A 
ATOM     28  C   UNL     1       5.489   5.904  16.952  0.00  0.00    +0.000 A 
ATOM     29  C   UNL     1       5.311   4.916  16.002  0.00  0.00    +0.000 A 
ATOM     30  C   UNL     1       4.583   3.780  16.335  0.00  0.00    +0.000 A 
ATOM     31  C   UNL     1       4.042   3.618  17.626  0.00  0.00    +0.000 A 
BRANCH  31  32
ATOM     32  C   UNL     1       3.261   2.367  17.839  0.00  0.00    +0.000 C 
ATOM     33  O   UNL     1       3.647   1.450  18.546  0.00  0.00    +0.000 OA
BRANCH  32  34
ATOM     34  O   UNL     1       2.068   2.343  17.208  0.00  0.00    +0.000 OA
ATOM     35  H   UNL     1       2.097   1.725  16.443  0.00  0.00    +0.000 HD
ENDBRANCH  32  34
ENDBRANCH  31  32
ENDBRANCH  24  26
ENDBRANCH  23  24
BRANCH  23  36
ATOM     36  C   UNL     1       1.631   3.586  20.996  0.00  0.00    +0.000 C 
ATOM     37  O   UNL     1       1.945   3.036  22.038  0.00  0.00    +0.000 OA
BRANCH  36  38
ATOM     38  OXT UNL     1       0.518   3.204  20.316  0.00  0.00    +0.000 OA
ATOM     39  HXT UNL     1       0.419   2.242  20.201  0.00  0.00    +0.000 HD
ENDBRANCH  36  38
ENDBRANCH  23  36
ENDBRANCH  22  23
ENDBRANCH   4  22
TORSDOF 13
ENDMDL
MODEL 9
REMARK VINA RESULT:      -8.3      2.744     10.270
REMARK  Name = 
REMARK  14 active torsions:
REMARK  status: ('A' for Active; 'I' for Inactive)
REMARK    1  A    between atoms: C_1  and  C_2
REMARK    2  A    between atoms: C_4  and  C_5
REMARK    3  A    between atoms: C_12  and  C_13
REMARK    4  A    between atoms: C_13  and  C_14
REMARK    5  A    between atoms: C_14  and  O_15
REMARK    6  A    between atoms: O_15  and  C_16
REMARK    7  A    between atoms: C_19  and  C_20
REMARK    8  A    between atoms: C_20  and  CA_21
REMARK    9  A    between atoms: CA_21  and  N_22
REMARK   10  A    between atoms: CA_21  and  C_32
REMARK   11  A    between atoms: N_22  and  C_23
REMARK   12  A    between atoms: C_28  and  C_29
REMARK   13  A    between atoms: C_29  and  O_31
REMARK   14  A    between atoms: C_32  and  OXT_34
REMARK                            x       y       z     vdW  Elec       q    Type
REMARK                         _______ _______ _______ _____ _____    ______ ____
ROOT
ATOM      1  C   UNL     1       1.724   8.284  19.897  0.00  0.00    +0.000 A 
ATOM      2  C   UNL     1       2.238   8.053  18.620  0.00  0.00    +0.000 A 
ATOM      3  C   UNL     1       2.606   6.785  18.209  0.00  0.00    +0.000 A 
ATOM      4  C   UNL     1       2.430   5.675  19.024  0.00  0.00    +0.000 A 
ATOM      5  C   UNL     1       2.015   5.910  20.348  0.00  0.00    +0.000 A 
ATOM      6  C   UNL     1       1.674   7.211  20.782  0.00  0.00    +0.000 A 
ENDROOT
BRANCH   1   7
ATOM      7  O   UNL     1       1.242   9.515  20.302  0.00  0.00    +0.000 OA
BRANCH   7   8
ATOM      8  C   UNL     1      -0.191   9.508  20.447  0.00  0.00    +0.000 C 
BRANCH   8   9
ATOM      9  C   UNL     1      -0.936  10.600  19.692  0.00  0.00    +0.000 C 
BRANCH   9  15
ATOM     10  C   UNL     1      -0.723  12.699  22.363  0.00  0.00    +0.000 C 
ATOM     11  C   UNL     1      -0.179  12.733  20.996  0.00  0.00    +0.000 A 
ATOM     12  O   UNL     1       0.534  13.847  20.653  0.00  0.00    +0.000 OA
ATOM     13  C   UNL     1       0.886  13.651  19.344  0.00  0.00    +0.000 A 
ATOM     14  N   UNL     1       0.457  12.504  18.850  0.00  0.00    +0.000 NA
ATOM     15  C   UNL     1      -0.223  11.902  19.896  0.00  0.00    +0.000 A 
BRANCH  13  16
ATOM     16  C   UNL     1       1.644  14.730  18.709  0.00  0.00    +0.000 A 
ATOM     17  C   UNL     1       1.193  16.060  18.735  0.00  0.00    +0.000 A 
ATOM     18  C   UNL     1       1.924  17.082  18.123  0.00  0.00    +0.000 A 
ATOM     19  C   UNL     1       3.118  16.788  17.471  0.00  0.00    +0.000 A 
ATOM     20  C   UNL     1       3.582  15.475  17.431  0.00  0.00    +0.000 A 
ATOM     21  C   UNL     1       2.850  14.452  18.048  0.00  0.00    +0.000 A 
ENDBRANCH  13  16
ENDBRANCH   9  15
ENDBRANCH   8   9
ENDBRANCH   7   8
ENDBRANCH   1   7
BRANCH   4  22
ATOM     22  C   UNL     1       2.509   4.261  18.475  0.00  0.00    +0.000 C 
BRANCH  22  23
ATOM     23  CA  UNL     1       3.803   3.433  18.721  0.00  0.00    +0.000 C 
BRANCH  23  24
ATOM     24  N   UNL     1       5.056   4.247  18.583  0.00  0.00    +0.000 N 
ATOM     25  H   UNL     1       5.758   3.941  19.269  0.00  0.00    +0.000 HD
BRANCH  24  26
ATOM     26  C   UNL     1       5.689   4.412  17.323  0.00  0.00    +0.000 A 
ATOM     27  C   UNL     1       5.220   3.810  16.142  0.00  0.00    +0.000 A 
ATOM     28  C   UNL     1       5.816   4.027  14.897  0.00  0.00    +0.000 A 
ATOM     29  C   UNL     1       6.913   4.859  14.788  0.00  0.00    +0.000 A 
ATOM     30  C   UNL     1       7.431   5.451  15.934  0.00  0.00    +0.000 A 
ATOM     31  C   UNL     1       6.842   5.227  17.195  0.00  0.00    +0.000 A 
BRANCH  31  32
ATOM     32  C   UNL     1       7.514   5.900  18.343  0.00  0.00    +0.000 C 
ATOM     33  O   UNL     1       7.877   7.065  18.315  0.00  0.00    +0.000 OA
BRANCH  32  34
ATOM     34  O   UNL     1       7.661   5.120  19.435  0.00  0.00    +0.000 OA
ATOM     35  H   UNL     1       7.563   5.655  20.254  0.00  0.00    +0.000 HD
ENDBRANCH  32  34
ENDBRANCH  31  32
ENDBRANCH  24  26
ENDBRANCH  23  24
BRANCH  23  36
ATOM     36  C   UNL     1       3.858   2.564  20.016  0.00  0.00    +0.000 C 
ATOM     37  O   UNL     1       4.850   2.023  20.477  0.00  0.00    +0.000 OA
BRANCH  36  38
ATOM     38  OXT UNL     1       2.663   2.486  20.657  0.00  0.00    +0.000 OA
ATOM     39  HXT UNL     1       2.720   2.273  21.605  0.00  0.00    +0.000 HD
ENDBRANCH  36  38
ENDBRANCH  23  36
ENDBRANCH  22  23
ENDBRANCH   4  22
TORSDOF 13
ENDMDL
