MODEL 1
REMARK VINA RESULT:      -7.1      0.000      0.000
REMARK  Name = 
REMARK  5 active torsions:
REMARK  status: ('A' for Active; 'I' for Inactive)
REMARK    1  A    between atoms: C_1  and  C_2
REMARK    2  A    between atoms: C_5  and  C_6
REMARK    3  A    between atoms: C_6  and  C_7
REMARK    4  A    between atoms: C_6  and  N_8
REMARK    5  A    between atoms: N_11  and  C_12
REMARK                            x       y       z     vdW  Elec       q    Type
REMARK                         _______ _______ _______ _____ _____    ______ ____
ROOT
ATOM      1  N   UNL     1       2.760   4.047  19.122  0.00  0.00    +0.000 NA
ATOM      2  C   UNL     1       2.638   4.919  20.300  0.00  0.00    +0.000 C 
ATOM      3  C   UNL     1       3.078   6.379  20.084  0.00  0.00    +0.000 C 
ATOM      4  N   UNL     1       2.364   6.945  18.940  0.00  0.00    +0.000 N 
ATOM      5  C   UNL     1       2.374   6.183  17.697  0.00  0.00    +0.000 C 
ATOM      6  C   UNL     1       2.122   4.671  17.948  0.00  0.00    +0.000 C 
ENDROOT
BRANCH   4   7
ATOM      7  C   UNL     1       1.892   8.235  19.051  0.00  0.00    +0.000 A 
ATOM      8  N   UNL     1       2.155   9.072  18.013  0.00  0.00    +0.000 NA
ATOM      9  C   UNL     1       1.773  10.354  18.072  0.00  0.00    +0.000 A 
ATOM     10  N   UNL     1       1.111  10.955  19.056  0.00  0.00    +0.000 NA
ATOM     11  C   UNL     1       0.829  10.113  20.063  0.00  0.00    +0.000 A 
ATOM     12  S   UNL     1      -0.046  10.672  21.416  0.00  0.00    +0.000 S 
ATOM     13  C   UNL     1      -0.018   9.131  22.148  0.00  0.00    +0.000 A 
ATOM     14  C   UNL     1       0.652   8.211  21.372  0.00  0.00    +0.000 A 
ATOM     15  C   UNL     1       1.172   8.769  20.149  0.00  0.00    +0.000 A 
ENDBRANCH   4   7
BRANCH   1  16
ATOM     16  C   UNL     1       4.079   3.428  18.881  0.00  0.00    +0.000 C 
ATOM     17  C   UNL     1       4.325   2.325  19.926  0.00  0.00    +0.000 C 
BRANCH  16  22
ATOM     18  C   UNL     1       7.484   6.846  17.719  0.00  0.00    +0.000 C 
ATOM     19  C   UNL     1       6.746   5.772  18.418  0.00  0.00    +0.000 A 
ATOM     20  N   UNL     1       7.029   5.388  19.669  0.00  0.00    +0.000 NA
ATOM     21  O   UNL     1       6.046   4.430  19.934  0.00  0.00    +0.000 OA
ATOM     22  C   UNL     1       5.280   4.328  18.806  0.00  0.00    +0.000 A 
ATOM     23  N   UNL     1       5.683   5.128  17.841  0.00  0.00    +0.000 NA
ENDBRANCH  16  22
ENDBRANCH   1  16
TORSDOF 3
ENDMDL
MODEL 2
REMARK VINA RESULT:      -7.0      1.373      2.192
REMARK  Name = 
REMARK  5 active torsions:
REMARK  status: ('A' for Active; 'I' for Inactive)
REMARK    1  A    between atoms: C_1  and  C_2
REMARK    2  A    between atoms: C_5  and  C_6
REMARK    3  A    between atoms: C_6  and  C_7
REMARK    4  A    between atoms: C_6  and  N_8
REMARK    5  A    between atoms: N_11  and  C_12
REMARK                            x       y       z     vdW  Elec       q    Type
REMARK                         _______ _______ _______ _____ _____    ______ ____
ROOT
ATOM      1  N   UNL     1       2.614   3.669  18.793  0.00  0.00    +0.000 NA
ATOM      2  C   UNL     1       2.129   4.051  20.128  0.00  0.00    +0.000 C 
ATOM      3  C   UNL     1       2.564   5.447  20.609  0.00  0.00    +0.000 C 
ATOM      4  N   UNL     1       2.193   6.451  19.612  0.00  0.00    +0.000 N 
ATOM      5  C   UNL     1       2.586   6.203  18.230  0.00  0.00    +0.000 C 
ATOM      6  C   UNL     1       2.321   4.731  17.813  0.00  0.00    +0.000 C 
ENDROOT
BRANCH   4   7
ATOM      7  C   UNL     1       1.667   7.642  20.064  0.00  0.00    +0.000 A 
ATOM      8  N   UNL     1       1.136   7.638  21.316  0.00  0.00    +0.000 NA
ATOM      9  C   UNL     1       0.560   8.743  21.803  0.00  0.00    +0.000 A 
ATOM     10  N   UNL     1       0.449   9.927  21.207  0.00  0.00    +0.000 NA
ATOM     11  C   UNL     1       1.005   9.930  19.985  0.00  0.00    +0.000 A 
ATOM     12  S   UNL     1       1.001  11.361  19.056  0.00  0.00    +0.000 S 
ATOM     13  C   UNL     1       1.845  10.606  17.780  0.00  0.00    +0.000 A 
ATOM     14  C   UNL     1       2.119   9.286  18.059  0.00  0.00    +0.000 A 
ATOM     15  C   UNL     1       1.620   8.862  19.344  0.00  0.00    +0.000 A 
ENDBRANCH   4   7
BRANCH   1  16
ATOM     16  C   UNL     1       3.966   3.079  18.715  0.00  0.00    +0.000 C 
ATOM     17  C   UNL     1       4.242   2.262  19.990  0.00  0.00    +0.000 C 
BRANCH  16  22
ATOM     18  C   UNL     1       7.929   6.055  18.971  0.00  0.00    +0.000 C 
ATOM     19  C   UNL     1       6.820   5.225  18.453  0.00  0.00    +0.000 A 
ATOM     20  N   UNL     1       6.718   4.866  17.168  0.00  0.00    +0.000 NA
ATOM     21  O   UNL     1       5.591   4.039  17.160  0.00  0.00    +0.000 OA
ATOM     22  C   UNL     1       5.124   3.998  18.445  0.00  0.00    +0.000 A 
ATOM     23  N   UNL     1       5.843   4.725  19.274  0.00  0.00    +0.000 NA
ENDBRANCH  16  22
ENDBRANCH   1  16
TORSDOF 3
ENDMDL
MODEL 3
REMARK VINA RESULT:      -6.9      2.107      2.489
REMARK  Name = 
REMARK  5 active torsions:
REMARK  status: ('A' for Active; 'I' for Inactive)
REMARK    1  A    between atoms: C_1  and  C_2
REMARK    2  A    between atoms: C_5  and  C_6
REMARK    3  A    between atoms: C_6  and  C_7
REMARK    4  A    between atoms: C_6  and  N_8
REMARK    5  A    between atoms: N_11  and  C_12
REMARK                            x       y       z     vdW  Elec       q    Type
REMARK                         _______ _______ _______ _____ _____    ______ ____
ROOT
ATOM      1  N   UNL     1       4.462   5.801  18.374  0.00  0.00    +0.000 NA
ATOM      2  C   UNL     1       4.396   7.134  17.756  0.00  0.00    +0.000 C 
ATOM      3  C   UNL     1       2.975   7.688  17.542  0.00  0.00    +0.000 C 
ATOM      4  N   UNL     1       2.239   7.662  18.806  0.00  0.00    +0.000 N 
ATOM      5  C   UNL     1       2.230   6.409  19.553  0.00  0.00    +0.000 C 
ATOM      6  C   UNL     1       3.638   5.756  19.596  0.00  0.00    +0.000 C 
ENDROOT
BRANCH   4   7
ATOM      7  C   UNL     1       1.455   8.752  19.116  0.00  0.00    +0.000 A 
ATOM      8  N   UNL     1       1.067   9.539  18.078  0.00  0.00    +0.000 NA
ATOM      9  C   UNL     1       0.348  10.644  18.306  0.00  0.00    +0.000 A 
ATOM     10  N   UNL     1      -0.087  11.097  19.479  0.00  0.00    +0.000 NA
ATOM     11  C   UNL     1       0.274  10.297  20.495  0.00  0.00    +0.000 A 
ATOM     12  S   UNL     1      -0.209  10.676  22.086  0.00  0.00    +0.000 S 
ATOM     13  C   UNL     1       0.551   9.284  22.713  0.00  0.00    +0.000 A 
ATOM     14  C   UNL     1       1.165   8.548  21.724  0.00  0.00    +0.000 A 
ATOM     15  C   UNL     1       1.029   9.133  20.413  0.00  0.00    +0.000 A 
ENDBRANCH   4   7
BRANCH   1  16
ATOM     16  C   UNL     1       4.335   4.638  17.472  0.00  0.00    +0.000 C 
ATOM     17  C   UNL     1       4.256   3.349  18.309  0.00  0.00    +0.000 C 
BRANCH  16  22
ATOM     18  C   UNL     1       6.790   4.178  13.185  0.00  0.00    +0.000 C 
ATOM     19  C   UNL     1       6.480   4.318  14.623  0.00  0.00    +0.000 A 
ATOM     20  N   UNL     1       7.407   4.610  15.544  0.00  0.00    +0.000 NA
ATOM     21  O   UNL     1       6.660   4.722  16.720  0.00  0.00    +0.000 OA
ATOM     22  C   UNL     1       5.358   4.472  16.384  0.00  0.00    +0.000 A 
ATOM     23  N   UNL     1       5.202   4.205  15.105  0.00  0.00    +0.000 NA
ENDBRANCH  16  22
ENDBRANCH   1  16
TORSDOF 3
ENDMDL
MODEL 4
REMARK VINA RESULT:      -6.7      3.619      7.535
REMARK  Name = 
REMARK  5 active torsions:
REMARK  status: ('A' for Active; 'I' for Inactive)
REMARK    1  A    between atoms: C_1  and  C_2
REMARK    2  A    between atoms: C_5  and  C_6
REMARK    3  A    between atoms: C_6  and  C_7
REMARK    4  A    between atoms: C_6  and  N_8
REMARK    5  A    between atoms: N_11  and  C_12
REMARK                            x       y       z     vdW  Elec       q    Type
REMARK                         _______ _______ _______ _____ _____    ______ ____
ROOT
ATOM      1  N   UNL     1       1.260   9.486  19.754  0.00  0.00    +0.000 NA
ATOM      2  C   UNL     1       1.645   8.540  20.812  0.00  0.00    +0.000 C 
ATOM      3  C   UNL     1       1.600   7.054  20.411  0.00  0.00    +0.000 C 
ATOM      4  N   UNL     1       2.402   6.844  19.206  0.00  0.00    +0.000 N 
ATOM      5  C   UNL     1       2.152   7.723  18.070  0.00  0.00    +0.000 C 
ATOM      6  C   UNL     1       2.003   9.204  18.512  0.00  0.00    +0.000 C 
ENDROOT
BRANCH   4   7
ATOM      7  C   UNL     1       3.201   5.722  19.154  0.00  0.00    +0.000 A 
ATOM      8  N   UNL     1       4.529   5.909  19.379  0.00  0.00    +0.000 NA
ATOM      9  C   UNL     1       5.375   4.875  19.294  0.00  0.00    +0.000 A 
ATOM     10  N   UNL     1       5.077   3.607  19.026  0.00  0.00    +0.000 NA
ATOM     11  C   UNL     1       3.760   3.427  18.836  0.00  0.00    +0.000 A 
ATOM     12  S   UNL     1       3.156   1.866  18.510  0.00  0.00    +0.000 S 
ATOM     13  C   UNL     1       1.550   2.436  18.439  0.00  0.00    +0.000 A 
ATOM     14  C   UNL     1       1.481   3.793  18.657  0.00  0.00    +0.000 A 
ATOM     15  C   UNL     1       2.770   4.401  18.876  0.00  0.00    +0.000 A 
ENDBRANCH   4   7
BRANCH   1  16
ATOM     16  C   UNL     1      -0.183   9.757  19.590  0.00  0.00    +0.000 C 
ATOM     17  C   UNL     1      -0.480  10.070  18.113  0.00  0.00    +0.000 C 
BRANCH  16  22
ATOM     18  C   UNL     1      -1.343  13.000  23.162  0.00  0.00    +0.000 C 
ATOM     19  C   UNL     1      -1.350  12.233  21.898  0.00  0.00    +0.000 A 
ATOM     20  N   UNL     1      -2.078  12.590  20.833  0.00  0.00    +0.000 NA
ATOM     21  O   UNL     1      -1.712  11.644  19.870  0.00  0.00    +0.000 OA
ATOM     22  C   UNL     1      -0.809  10.807  20.464  0.00  0.00    +0.000 A 
ATOM     23  N   UNL     1      -0.565  11.124  21.718  0.00  0.00    +0.000 NA
ENDBRANCH  16  22
ENDBRANCH   1  16
TORSDOF 3
ENDMDL
MODEL 5
REMARK VINA RESULT:      -6.7      2.424      3.099
REMARK  Name = 
REMARK  5 active torsions:
REMARK  status: ('A' for Active; 'I' for Inactive)
REMARK    1  A    between atoms: C_1  and  C_2
REMARK    2  A    between atoms: C_5  and  C_6
REMARK    3  A    between atoms: C_6  and  C_7
REMARK    4  A    between atoms: C_6  and  N_8
REMARK    5  A    between atoms: N_11  and  C_12
REMARK                            x       y       z     vdW  Elec       q    Type
REMARK                         _______ _______ _______ _____ _____    ______ ____
ROOT
ATOM      1  N   UNL     1       4.343   5.704  18.299  0.00  0.00    +0.000 NA
ATOM      2  C   UNL     1       4.201   7.143  18.031  0.00  0.00    +0.000 C 
ATOM      3  C   UNL     1       2.772   7.699  18.176  0.00  0.00    +0.000 C 
ATOM      4  N   UNL     1       2.241   7.359  19.495  0.00  0.00    +0.000 N 
ATOM      5  C   UNL     1       2.330   5.966  19.918  0.00  0.00    +0.000 C 
ATOM      6  C   UNL     1       3.719   5.353  19.588  0.00  0.00    +0.000 C 
ENDROOT
BRANCH   4   7
ATOM      7  C   UNL     1       1.530   8.327  20.171  0.00  0.00    +0.000 A 
ATOM      8  N   UNL     1       1.646   8.335  21.525  0.00  0.00    +0.000 NA
ATOM      9  C   UNL     1       0.945   9.213  22.253  0.00  0.00    +0.000 A 
ATOM     10  N   UNL     1       0.117  10.153  21.807  0.00  0.00    +0.000 NA
ATOM     11  C   UNL     1       0.034  10.158  20.467  0.00  0.00    +0.000 A 
ATOM     12  S   UNL     1      -0.952  11.309  19.683  0.00  0.00    +0.000 S 
ATOM     13  C   UNL     1      -0.519  10.720  18.142  0.00  0.00    +0.000 A 
ATOM     14  C   UNL     1       0.358   9.662  18.229  0.00  0.00    +0.000 A 
ATOM     15  C   UNL     1       0.685   9.303  19.586  0.00  0.00    +0.000 A 
ENDBRANCH   4   7
BRANCH   1  16
ATOM     16  C   UNL     1       4.062   4.783  17.179  0.00  0.00    +0.000 C 
ATOM     17  C   UNL     1       3.580   3.432  17.736  0.00  0.00    +0.000 C 
BRANCH  16  22
ATOM     18  C   UNL     1       6.763   4.097  13.073  0.00  0.00    +0.000 C 
ATOM     19  C   UNL     1       6.369   4.304  14.483  0.00  0.00    +0.000 A 
ATOM     20  N   UNL     1       7.245   4.617  15.446  0.00  0.00    +0.000 NA
ATOM     21  O   UNL     1       6.430   4.792  16.569  0.00  0.00    +0.000 OA
ATOM     22  C   UNL     1       5.146   4.552  16.164  0.00  0.00    +0.000 A 
ATOM     23  N   UNL     1       5.062   4.235  14.889  0.00  0.00    +0.000 NA
ENDBRANCH  16  22
ENDBRANCH   1  16
TORSDOF 3
ENDMDL
MODEL 6
REMARK VINA RESULT:      -6.7      4.217      6.420
REMARK  Name = 
REMARK  5 active torsions:
REMARK  status: ('A' for Active; 'I' for Inactive)
REMARK    1  A    between atoms: C_1  and  C_2
REMARK    2  A    between atoms: C_5  and  C_6
REMARK    3  A    between atoms: C_6  and  C_7
REMARK    4  A    between atoms: C_6  and  N_8
REMARK    5  A    between atoms: N_11  and  C_12
REMARK                            x       y       z     vdW  Elec       q    Type
REMARK                         _______ _______ _______ _____ _____    ______ ____
ROOT
ATOM      1  N   UNL     1       6.576   5.399  14.902  0.00  0.00    +0.000 NA
ATOM      2  C   UNL     1       5.121   5.323  15.102  0.00  0.00    +0.000 C 
ATOM      3  C   UNL     1       4.642   4.173  16.008  0.00  0.00    +0.000 C 
ATOM      4  N   UNL     1       5.344   4.231  17.291  0.00  0.00    +0.000 N 
ATOM      5  C   UNL     1       6.798   4.332  17.258  0.00  0.00    +0.000 C 
ATOM      6  C   UNL     1       7.279   5.359  16.197  0.00  0.00    +0.000 C 
ENDROOT
BRANCH   4   7
ATOM      7  C   UNL     1       4.610   4.001  18.434  0.00  0.00    +0.000 A 
ATOM      8  N   UNL     1       4.822   2.817  19.067  0.00  0.00    +0.000 NA
ATOM      9  C   UNL     1       4.110   2.500  20.155  0.00  0.00    +0.000 A 
ATOM     10  N   UNL     1       3.181   3.239  20.755  0.00  0.00    +0.000 NA
ATOM     11  C   UNL     1       3.001   4.420  20.143  0.00  0.00    +0.000 A 
ATOM     12  S   UNL     1       1.875   5.538  20.769  0.00  0.00    +0.000 S 
ATOM     13  C   UNL     1       2.240   6.679  19.554  0.00  0.00    +0.000 A 
ATOM     14  C   UNL     1       3.201   6.210  18.686  0.00  0.00    +0.000 A 
ATOM     15  C   UNL     1       3.652   4.877  19.003  0.00  0.00    +0.000 A 
ENDBRANCH   4   7
BRANCH   1  16
ATOM     16  C   UNL     1       7.149   4.555  13.834  0.00  0.00    +0.000 C 
ATOM     17  C   UNL     1       8.113   5.397  12.979  0.00  0.00    +0.000 C 
BRANCH  16  22
ATOM     18  C   UNL     1       3.482   3.108  10.821  0.00  0.00    +0.000 C 
ATOM     19  C   UNL     1       4.721   3.122  11.628  0.00  0.00    +0.000 A 
ATOM     20  N   UNL     1       5.667   2.180  11.527  0.00  0.00    +0.000 NA
ATOM     21  O   UNL     1       6.662   2.639  12.395  0.00  0.00    +0.000 OA
ATOM     22  C   UNL     1       6.203   3.807  12.938  0.00  0.00    +0.000 A 
ATOM     23  N   UNL     1       5.005   4.136  12.504  0.00  0.00    +0.000 NA
ENDBRANCH  16  22
ENDBRANCH   1  16
TORSDOF 3
ENDMDL
MODEL 7
REMARK VINA RESULT:      -6.6      3.440      7.417
REMARK  Name = 
REMARK  5 active torsions:
REMARK  status: ('A' for Active; 'I' for Inactive)
REMARK    1  A    between atoms: C_1  and  C_2
REMARK    2  A    between atoms: C_5  and  C_6
REMARK    3  A    between atoms: C_6  and  C_7
REMARK    4  A    between atoms: C_6  and  N_8
REMARK    5  A    between atoms: N_11  and  C_12
REMARK                            x       y       z     vdW  Elec       q    Type
REMARK                         _______ _______ _______ _____ _____    ______ ____
ROOT
ATOM      1  N   UNL     1       1.274   9.599  19.785  0.00  0.00    +0.000 NA
ATOM      2  C   UNL     1       1.886   8.553  20.618  0.00  0.00    +0.000 C 
ATOM      3  C   UNL     1       1.781   7.123  20.058  0.00  0.00    +0.000 C 
ATOM      4  N   UNL     1       2.314   7.085  18.697  0.00  0.00    +0.000 N 
ATOM      5  C   UNL     1       1.819   8.079  17.752  0.00  0.00    +0.000 C 
ATOM      6  C   UNL     1       1.744   9.492  18.392  0.00  0.00    +0.000 C 
ENDROOT
BRANCH   4   7
ATOM      7  C   UNL     1       3.101   6.010  18.345  0.00  0.00    +0.000 A 
ATOM      8  N   UNL     1       4.387   6.283  17.998  0.00  0.00    +0.000 NA
ATOM      9  C   UNL     1       5.197   5.297  17.595  0.00  0.00    +0.000 A 
ATOM     10  N   UNL     1       4.909   4.002  17.502  0.00  0.00    +0.000 NA
ATOM     11  C   UNL     1       3.647   3.737  17.876  0.00  0.00    +0.000 A 
ATOM     12  S   UNL     1       3.078   2.129  17.863  0.00  0.00    +0.000 S 
ATOM     13  C   UNL     1       1.547   2.602  18.448  0.00  0.00    +0.000 A 
ATOM     14  C   UNL     1       1.474   3.963  18.645  0.00  0.00    +0.000 A 
ATOM     15  C   UNL     1       2.692   4.653  18.299  0.00  0.00    +0.000 A 
ENDBRANCH   4   7
BRANCH   1  16
ATOM     16  C   UNL     1      -0.175   9.829  19.957  0.00  0.00    +0.000 C 
ATOM     17  C   UNL     1      -0.739  10.502  18.694  0.00  0.00    +0.000 C 
BRANCH  16  22
ATOM     18  C   UNL     1      -2.314  12.903  23.213  0.00  0.00    +0.000 C 
ATOM     19  C   UNL     1      -1.523  11.800  22.625  0.00  0.00    +0.000 A 
ATOM     20  N   UNL     1      -1.033  10.787  23.349  0.00  0.00    +0.000 NA
ATOM     21  O   UNL     1      -0.445   9.965  22.384  0.00  0.00    +0.000 OA
ATOM     22  C   UNL     1      -0.632  10.579  21.177  0.00  0.00    +0.000 A 
ATOM     23  N   UNL     1      -1.281  11.720  21.278  0.00  0.00    +0.000 NA
ENDBRANCH  16  22
ENDBRANCH   1  16
TORSDOF 3
ENDMDL
MODEL 8
REMARK VINA RESULT:      -6.5      1.526      2.290
REMARK  Name = 
REMARK  5 active torsions:
REMARK  status: ('A' for Active; 'I' for Inactive)
REMARK    1  A    between atoms: C_1  and  C_2
REMARK    2  A    between atoms: C_5  and  C_6
REMARK    3  A    between atoms: C_6  and  C_7
REMARK    4  A    between atoms: C_6  and  N_8
REMARK    5  A    between atoms: N_11  and  C_12
REMARK                            x       y       z     vdW  Elec       q    Type
REMARK                         _______ _______ _______ _____ _____    ______ ____
ROOT
ATOM      1  N   UNL     1       2.364   3.438  18.879  0.00  0.00    +0.000 NA
ATOM      2  C   UNL     1       2.096   3.903  20.248  0.00  0.00    +0.000 C 
ATOM      3  C   UNL     1       2.623   5.312  20.577  0.00  0.00    +0.000 C 
ATOM      4  N   UNL     1       2.118   6.270  19.593  0.00  0.00    +0.000 N 
ATOM      5  C   UNL     1       2.290   5.939  18.184  0.00  0.00    +0.000 C 
ATOM      6  C   UNL     1       1.941   4.453  17.896  0.00  0.00    +0.000 C 
ENDROOT
BRANCH   4   7
ATOM      7  C   UNL     1       1.687   7.496  20.052  0.00  0.00    +0.000 A 
ATOM      8  N   UNL     1       1.240   7.543  21.335  0.00  0.00    +0.000 NA
ATOM      9  C   UNL     1       0.757   8.688  21.834  0.00  0.00    +0.000 A 
ATOM     10  N   UNL     1       0.669   9.864  21.220  0.00  0.00    +0.000 NA
ATOM     11  C   UNL     1       1.143   9.815  19.965  0.00  0.00    +0.000 A 
ATOM     12  S   UNL     1       1.154  11.226  19.007  0.00  0.00    +0.000 S 
ATOM     13  C   UNL     1       1.870  10.403  17.695  0.00  0.00    +0.000 A 
ATOM     14  C   UNL     1       2.091   9.075  17.986  0.00  0.00    +0.000 A 
ATOM     15  C   UNL     1       1.657   8.703  19.309  0.00  0.00    +0.000 A 
ENDBRANCH   4   7
BRANCH   1  16
ATOM     16  C   UNL     1       3.679   2.813  18.629  0.00  0.00    +0.000 C 
ATOM     17  C   UNL     1       4.263   2.303  19.958  0.00  0.00    +0.000 C 
BRANCH  16  22
ATOM     18  C   UNL     1       6.498   5.143  15.275  0.00  0.00    +0.000 C 
ATOM     19  C   UNL     1       5.933   4.669  16.557  0.00  0.00    +0.000 A 
ATOM     20  N   UNL     1       6.249   5.212  17.738  0.00  0.00    +0.000 NA
ATOM     21  O   UNL     1       5.432   4.517  18.634  0.00  0.00    +0.000 OA
ATOM     22  C   UNL     1       4.716   3.616  17.896  0.00  0.00    +0.000 A 
ATOM     23  N   UNL     1       5.001   3.665  16.612  0.00  0.00    +0.000 NA
ENDBRANCH  16  22
ENDBRANCH   1  16
TORSDOF 3
ENDMDL
MODEL 9
REMARK VINA RESULT:      -6.5      3.459      7.466
REMARK  Name = 
REMARK  5 active torsions:
REMARK  status: ('A' for Active; 'I' for Inactive)
REMARK    1  A    between atoms: C_1  and  C_2
REMARK    2  A    between atoms: C_5  and  C_6
REMARK    3  A    between atoms: C_6  and  C_7
REMARK    4  A    between atoms: C_6  and  N_8
REMARK    5  A    between atoms: N_11  and  C_12
REMARK                            x       y       z     vdW  Elec       q    Type
REMARK                         _______ _______ _______ _____ _____    ______ ____
ROOT
ATOM      1  N   UNL     1       1.461   9.249  19.809  0.00  0.00    +0.000 NA
ATOM      2  C   UNL     1       1.967   8.059  20.510  0.00  0.00    +0.000 C 
ATOM      3  C   UNL     1       1.792   6.729  19.753  0.00  0.00    +0.000 C 
ATOM      4  N   UNL     1       2.381   6.839  18.418  0.00  0.00    +0.000 N 
ATOM      5  C   UNL     1       1.992   7.984  17.604  0.00  0.00    +0.000 C 
ATOM      6  C   UNL     1       1.983   9.299  18.432  0.00  0.00    +0.000 C 
ENDROOT
BRANCH   4   7
ATOM      7  C   UNL     1       3.110   5.769  17.948  0.00  0.00    +0.000 A 
ATOM      8  N   UNL     1       2.462   4.576  17.868  0.00  0.00    +0.000 NA
ATOM      9  C   UNL     1       3.119   3.481  17.469  0.00  0.00    +0.000 A 
ATOM     10  N   UNL     1       4.393   3.394  17.095  0.00  0.00    +0.000 NA
ATOM     11  C   UNL     1       5.017   4.582  17.147  0.00  0.00    +0.000 A 
ATOM     12  S   UNL     1       6.651   4.703  16.677  0.00  0.00    +0.000 S 
ATOM     13  C   UNL     1       6.676   6.382  16.975  0.00  0.00    +0.000 A 
ATOM     14  C   UNL     1       5.459   6.838  17.429  0.00  0.00    +0.000 A 
ATOM     15  C   UNL     1       4.472   5.794  17.553  0.00  0.00    +0.000 A 
ENDBRANCH   4   7
BRANCH   1  16
ATOM     16  C   UNL     1       0.024   9.555  19.962  0.00  0.00    +0.000 C 
ATOM     17  C   UNL     1      -0.486  10.263  18.695  0.00  0.00    +0.000 C 
BRANCH  16  22
ATOM     18  C   UNL     1      -1.968  12.743  23.201  0.00  0.00    +0.000 C 
ATOM     19  C   UNL     1      -1.247  11.591  22.619  0.00  0.00    +0.000 A 
ATOM     20  N   UNL     1      -0.856  10.535  23.342  0.00  0.00    +0.000 NA
ATOM     21  O   UNL     1      -0.304   9.682  22.382  0.00  0.00    +0.000 OA
ATOM     22  C   UNL     1      -0.410  10.323  21.179  0.00  0.00    +0.000 A 
ATOM     23  N   UNL     1      -0.973  11.508  21.278  0.00  0.00    +0.000 NA
ENDBRANCH  16  22
ENDBRANCH   1  16
TORSDOF 3
ENDMDL
