MODEL 1
REMARK VINA RESULT:      -7.3      0.000      0.000
REMARK  Name = 
REMARK  8 active torsions:
REMARK  status: ('A' for Active; 'I' for Inactive)
REMARK    1  A    between atoms: C_2  and  C_3
REMARK    2  A    between atoms: C_4  and  C_5
REMARK    3  A    between atoms: C_8  and  O_9
REMARK    4  A    between atoms: O_9  and  C_10
REMARK    5  A    between atoms: C_10  and  C_11
REMARK    6  A    between atoms: C_11  and  C_12
REMARK    7  A    between atoms: N_16  and  C_17
REMARK    8  A    between atoms: C_17  and  C_18
REMARK                            x       y       z     vdW  Elec       q    Type
REMARK                         _______ _______ _______ _____ _____    ______ ____
ROOT
ATOM      1  C   UNL     1       8.018   8.796  17.741  0.00  0.00    +0.000 C 
ATOM      2  C   UNL     1       8.817   9.078  18.780  0.00  0.00    +0.000 C 
ENDROOT
BRANCH   2   3
ATOM      3  C   UNL     1       9.279  10.438  19.043  0.00  0.00    +0.000 A 
ATOM      4  C   UNL     1       9.523  10.802  20.366  0.00  0.00    +0.000 A 
ATOM      5  C   UNL     1       9.969  12.087  20.675  0.00  0.00    +0.000 A 
ATOM      6  C   UNL     1      10.186  13.028  19.665  0.00  0.00    +0.000 A 
ATOM      7  C   UNL     1       9.937  12.665  18.339  0.00  0.00    +0.000 A 
ATOM      8  C   UNL     1       9.482  11.375  18.026  0.00  0.00    +0.000 A 
BRANCH   6   9
ATOM      9  O   UNL     1      10.636  14.311  19.873  0.00  0.00    +0.000 OA
BRANCH   9  10
ATOM     10  C   UNL     1      11.776  14.672  19.087  0.00  0.00    +0.000 C 
BRANCH  10  11
ATOM     11  C   UNL     1      11.601  16.043  18.451  0.00  0.00    +0.000 C 
BRANCH  11  12
ATOM     12  C   UNL     1      11.500  15.884  16.944  0.00  0.00    +0.000 C 
ATOM     13  F   UNL     1      10.517  16.698  16.475  0.00  0.00    +0.000 F 
ENDBRANCH  11  12
ENDBRANCH  10  11
ENDBRANCH   9  10
ENDBRANCH   6   9
ENDBRANCH   2   3
BRANCH   1  15
ATOM     14  O   UNL     1       7.904   6.473  18.223  0.00  0.00    +0.000 OA
ATOM     15  C   UNL     1       7.447   7.433  17.618  0.00  0.00    +0.000 C 
ATOM     16  N   UNL     1       6.375   7.377  16.766  0.00  0.00    +0.000 N 
ATOM     17  H   UNL     1       6.108   8.193  16.234  0.00  0.00    +0.000 HD
BRANCH  16  18
ATOM     18  C   UNL     1       5.723   6.126  16.450  0.00  0.00    +0.000 C 
BRANCH  18  19
ATOM     19  C   UNL     1       4.628   5.810  17.438  0.00  0.00    +0.000 A 
ATOM     20  C   UNL     1       4.552   4.550  18.049  0.00  0.00    +0.000 A 
ATOM     21  C   UNL     1       3.550   4.273  18.984  0.00  0.00    +0.000 A 
ATOM     22  C   UNL     1       2.619   5.256  19.313  0.00  0.00    +0.000 A 
ATOM     23 CL   UNL     1       1.386   4.911  20.463  0.00  0.00    +0.000 Cl
ATOM     24  C   UNL     1       2.682   6.513  18.719  0.00  0.00    +0.000 A 
ATOM     25  C   UNL     1       3.684   6.791  17.786  0.00  0.00    +0.000 A 
ENDBRANCH  18  19
ENDBRANCH  16  18
ENDBRANCH   1  15
TORSDOF 8
ENDMDL
MODEL 2
REMARK VINA RESULT:      -7.3      0.927      1.351
REMARK  Name = 
REMARK  8 active torsions:
REMARK  status: ('A' for Active; 'I' for Inactive)
REMARK    1  A    between atoms: C_2  and  C_3
REMARK    2  A    between atoms: C_4  and  C_5
REMARK    3  A    between atoms: C_8  and  O_9
REMARK    4  A    between atoms: O_9  and  C_10
REMARK    5  A    between atoms: C_10  and  C_11
REMARK    6  A    between atoms: C_11  and  C_12
REMARK    7  A    between atoms: N_16  and  C_17
REMARK    8  A    between atoms: C_17  and  C_18
REMARK                            x       y       z     vdW  Elec       q    Type
REMARK                         _______ _______ _______ _____ _____    ______ ____
ROOT
ATOM      1  C   UNL     1       8.239   7.929  18.398  0.00  0.00    +0.000 C 
ATOM      2  C   UNL     1       8.206   9.188  17.941  0.00  0.00    +0.000 C 
ENDROOT
BRANCH   2   3
ATOM      3  C   UNL     1       9.061  10.229  18.505  0.00  0.00    +0.000 A 
ATOM      4  C   UNL     1       9.178  10.300  19.893  0.00  0.00    +0.000 A 
ATOM      5  C   UNL     1       9.984  11.271  20.486  0.00  0.00    +0.000 A 
ATOM      6  C   UNL     1      10.692  12.187  19.701  0.00  0.00    +0.000 A 
ATOM      7  C   UNL     1      10.570  12.120  18.311  0.00  0.00    +0.000 A 
ATOM      8  C   UNL     1       9.756  11.147  17.712  0.00  0.00    +0.000 A 
BRANCH   6   9
ATOM      9  O   UNL     1      11.518  13.168  20.196  0.00  0.00    +0.000 OA
BRANCH   9  10
ATOM     10  C   UNL     1      11.165  14.495  19.794  0.00  0.00    +0.000 C 
BRANCH  10  11
ATOM     11  C   UNL     1      12.332  15.200  19.119  0.00  0.00    +0.000 C 
BRANCH  11  12
ATOM     12  C   UNL     1      11.870  15.765  17.787  0.00  0.00    +0.000 C 
ATOM     13  F   UNL     1      11.497  17.062  17.958  0.00  0.00    +0.000 F 
ENDBRANCH  11  12
ENDBRANCH  10  11
ENDBRANCH   9  10
ENDBRANCH   6   9
ENDBRANCH   2   3
BRANCH   1  15
ATOM     14  O   UNL     1       7.821   5.707  17.670  0.00  0.00    +0.000 OA
ATOM     15  C   UNL     1       7.473   6.880  17.681  0.00  0.00    +0.000 C 
ATOM     16  N   UNL     1       6.360   7.368  17.049  0.00  0.00    +0.000 N 
ATOM     17  H   UNL     1       6.184   8.363  17.030  0.00  0.00    +0.000 HD
BRANCH  16  18
ATOM     18  C   UNL     1       5.519   6.521  16.233  0.00  0.00    +0.000 C 
BRANCH  18  19
ATOM     19  C   UNL     1       4.432   5.871  17.051  0.00  0.00    +0.000 A 
ATOM     20  C   UNL     1       3.584   6.640  17.862  0.00  0.00    +0.000 A 
ATOM     21  C   UNL     1       2.562   6.033  18.598  0.00  0.00    +0.000 A 
ATOM     22  C   UNL     1       2.382   4.653  18.526  0.00  0.00    +0.000 A 
ATOM     23 CL   UNL     1       1.123   3.909  19.434  0.00  0.00    +0.000 Cl
ATOM     24  C   UNL     1       3.211   3.875  17.723  0.00  0.00    +0.000 A 
ATOM     25  C   UNL     1       4.231   4.482  16.986  0.00  0.00    +0.000 A 
ENDBRANCH  18  19
ENDBRANCH  16  18
ENDBRANCH   1  15
TORSDOF 8
ENDMDL
MODEL 3
REMARK VINA RESULT:      -7.2      1.563      1.928
REMARK  Name = 
REMARK  8 active torsions:
REMARK  status: ('A' for Active; 'I' for Inactive)
REMARK    1  A    between atoms: C_2  and  C_3
REMARK    2  A    between atoms: C_4  and  C_5
REMARK    3  A    between atoms: C_8  and  O_9
REMARK    4  A    between atoms: O_9  and  C_10
REMARK    5  A    between atoms: C_10  and  C_11
REMARK    6  A    between atoms: C_11  and  C_12
REMARK    7  A    between atoms: N_16  and  C_17
REMARK    8  A    between atoms: C_17  and  C_18
REMARK                            x       y       z     vdW  Elec       q    Type
REMARK                         _______ _______ _______ _____ _____    ______ ____
ROOT
ATOM      1  C   UNL     1       8.280   7.991  18.214  0.00  0.00    +0.000 C 
ATOM      2  C   UNL     1       8.174   9.301  17.955  0.00  0.00    +0.000 C 
ENDROOT
BRANCH   2   3
ATOM      3  C   UNL     1       9.077  10.276  18.559  0.00  0.00    +0.000 A 
ATOM      4  C   UNL     1       9.938  10.981  17.717  0.00  0.00    +0.000 A 
ATOM      5  C   UNL     1      10.820  11.927  18.239  0.00  0.00    +0.000 A 
ATOM      6  C   UNL     1      10.853  12.189  19.612  0.00  0.00    +0.000 A 
ATOM      7  C   UNL     1       9.996  11.479  20.456  0.00  0.00    +0.000 A 
ATOM      8  C   UNL     1       9.111  10.522  19.934  0.00  0.00    +0.000 A 
BRANCH   6   9
ATOM      9  O   UNL     1      11.678  13.110  20.213  0.00  0.00    +0.000 OA
BRANCH   9  10
ATOM     10  C   UNL     1      11.068  14.381  20.454  0.00  0.00    +0.000 C 
BRANCH  10  11
ATOM     11  C   UNL     1      11.340  15.354  19.316  0.00  0.00    +0.000 C 
BRANCH  11  12
ATOM     12  C   UNL     1      10.018  15.868  18.773  0.00  0.00    +0.000 C 
ATOM     13  F   UNL     1       9.218  14.809  18.473  0.00  0.00    +0.000 F 
ENDBRANCH  11  12
ENDBRANCH  10  11
ENDBRANCH   9  10
ENDBRANCH   6   9
ENDBRANCH   2   3
BRANCH   1  15
ATOM     14  O   UNL     1       6.583   7.398  16.661  0.00  0.00    +0.000 OA
ATOM     15  C   UNL     1       7.445   7.033  17.448  0.00  0.00    +0.000 C 
ATOM     16  N   UNL     1       7.745   5.725  17.722  0.00  0.00    +0.000 N 
ATOM     17  H   UNL     1       8.409   5.498  18.449  0.00  0.00    +0.000 HD
BRANCH  16  18
ATOM     18  C   UNL     1       6.995   4.636  17.136  0.00  0.00    +0.000 C 
BRANCH  18  19
ATOM     19  C   UNL     1       5.607   4.547  17.719  0.00  0.00    +0.000 A 
ATOM     20  C   UNL     1       4.497   4.300  16.898  0.00  0.00    +0.000 A 
ATOM     21  C   UNL     1       3.216   4.192  17.450  0.00  0.00    +0.000 A 
ATOM     22  C   UNL     1       3.040   4.330  18.825  0.00  0.00    +0.000 A 
ATOM     23 CL   UNL     1       1.462   4.198  19.500  0.00  0.00    +0.000 Cl
ATOM     24  C   UNL     1       4.131   4.571  19.655  0.00  0.00    +0.000 A 
ATOM     25  C   UNL     1       5.411   4.677  19.104  0.00  0.00    +0.000 A 
ENDBRANCH  18  19
ENDBRANCH  16  18
ENDBRANCH   1  15
TORSDOF 8
ENDMDL
MODEL 4
REMARK VINA RESULT:      -7.2      0.937      1.399
REMARK  Name = 
REMARK  8 active torsions:
REMARK  status: ('A' for Active; 'I' for Inactive)
REMARK    1  A    between atoms: C_2  and  C_3
REMARK    2  A    between atoms: C_4  and  C_5
REMARK    3  A    between atoms: C_8  and  O_9
REMARK    4  A    between atoms: O_9  and  C_10
REMARK    5  A    between atoms: C_10  and  C_11
REMARK    6  A    between atoms: C_11  and  C_12
REMARK    7  A    between atoms: N_16  and  C_17
REMARK    8  A    between atoms: C_17  and  C_18
REMARK                            x       y       z     vdW  Elec       q    Type
REMARK                         _______ _______ _______ _____ _____    ______ ____
ROOT
ATOM      1  C   UNL     1       8.355   9.040  17.838  0.00  0.00    +0.000 C 
ATOM      2  C   UNL     1       8.974   9.526  18.922  0.00  0.00    +0.000 C 
ENDROOT
BRANCH   2   3
ATOM      3  C   UNL     1       9.422  10.914  18.990  0.00  0.00    +0.000 A 
ATOM      4  C   UNL     1       9.178  11.735  17.889  0.00  0.00    +0.000 A 
ATOM      5  C   UNL     1       9.581  13.070  17.899  0.00  0.00    +0.000 A 
ATOM      6  C   UNL     1      10.230  13.610  19.014  0.00  0.00    +0.000 A 
ATOM      7  C   UNL     1      10.479  12.787  20.114  0.00  0.00    +0.000 A 
ATOM      8  C   UNL     1      10.080  11.441  20.105  0.00  0.00    +0.000 A 
BRANCH   6   9
ATOM      9  O   UNL     1      10.650  14.915  19.119  0.00  0.00    +0.000 OA
BRANCH   9  10
ATOM     10  C   UNL     1      11.108  15.489  17.891  0.00  0.00    +0.000 C 
BRANCH  10  11
ATOM     11  C   UNL     1      10.139  16.544  17.375  0.00  0.00    +0.000 C 
BRANCH  11  12
ATOM     12  C   UNL     1      10.599  17.914  17.844  0.00  0.00    +0.000 C 
ATOM     13  F   UNL     1      11.522  18.396  16.969  0.00  0.00    +0.000 F 
ENDBRANCH  11  12
ENDBRANCH  10  11
ENDBRANCH   9  10
ENDBRANCH   6   9
ENDBRANCH   2   3
BRANCH   1  15
ATOM     14  O   UNL     1       8.148   6.834  18.695  0.00  0.00    +0.000 OA
ATOM     15  C   UNL     1       7.776   7.675  17.887  0.00  0.00    +0.000 C 
ATOM     16  N   UNL     1       6.804   7.472  16.944  0.00  0.00    +0.000 N 
ATOM     17  H   UNL     1       6.611   8.184  16.254  0.00  0.00    +0.000 HD
BRANCH  16  18
ATOM     18  C   UNL     1       6.167   6.184  16.777  0.00  0.00    +0.000 C 
BRANCH  18  19
ATOM     19  C   UNL     1       5.003   6.018  17.721  0.00  0.00    +0.000 A 
ATOM     20  C   UNL     1       5.044   5.068  18.752  0.00  0.00    +0.000 A 
ATOM     21  C   UNL     1       3.971   4.937  19.640  0.00  0.00    +0.000 A 
ATOM     22  C   UNL     1       2.853   5.757  19.501  0.00  0.00    +0.000 A 
ATOM     23 CL   UNL     1       1.535   5.593  20.596  0.00  0.00    +0.000 Cl
ATOM     24  C   UNL     1       2.798   6.708  18.486  0.00  0.00    +0.000 A 
ATOM     25  C   UNL     1       3.870   6.840  17.600  0.00  0.00    +0.000 A 
ENDBRANCH  18  19
ENDBRANCH  16  18
ENDBRANCH   1  15
TORSDOF 8
ENDMDL
MODEL 5
REMARK VINA RESULT:      -7.2      1.912      2.415
REMARK  Name = 
REMARK  8 active torsions:
REMARK  status: ('A' for Active; 'I' for Inactive)
REMARK    1  A    between atoms: C_2  and  C_3
REMARK    2  A    between atoms: C_4  and  C_5
REMARK    3  A    between atoms: C_8  and  O_9
REMARK    4  A    between atoms: O_9  and  C_10
REMARK    5  A    between atoms: C_10  and  C_11
REMARK    6  A    between atoms: C_11  and  C_12
REMARK    7  A    between atoms: N_16  and  C_17
REMARK    8  A    between atoms: C_17  and  C_18
REMARK                            x       y       z     vdW  Elec       q    Type
REMARK                         _______ _______ _______ _____ _____    ______ ____
ROOT
ATOM      1  C   UNL     1       7.987   8.701  17.768  0.00  0.00    +0.000 C 
ATOM      2  C   UNL     1       8.920   9.037  18.670  0.00  0.00    +0.000 C 
ENDROOT
BRANCH   2   3
ATOM      3  C   UNL     1       9.136  10.426  19.066  0.00  0.00    +0.000 A 
ATOM      4  C   UNL     1       9.218  11.389  18.060  0.00  0.00    +0.000 A 
ATOM      5  C   UNL     1       9.420  12.731  18.381  0.00  0.00    +0.000 A 
ATOM      6  C   UNL     1       9.538  13.135  19.714  0.00  0.00    +0.000 A 
ATOM      7  C   UNL     1       9.461  12.171  20.721  0.00  0.00    +0.000 A 
ATOM      8  C   UNL     1       9.263  10.818  20.401  0.00  0.00    +0.000 A 
BRANCH   6   9
ATOM      9  O   UNL     1       9.725  14.434  20.124  0.00  0.00    +0.000 OA
BRANCH   9  10
ATOM     10  C   UNL     1       8.960  15.400  19.397  0.00  0.00    +0.000 C 
BRANCH  10  11
ATOM     11  C   UNL     1       7.526  15.468  19.902  0.00  0.00    +0.000 C 
BRANCH  11  12
ATOM     12  C   UNL     1       6.578  15.191  18.748  0.00  0.00    +0.000 C 
ATOM     13  F   UNL     1       7.269  15.254  17.579  0.00  0.00    +0.000 F 
ENDBRANCH  11  12
ENDBRANCH  10  11
ENDBRANCH   9  10
ENDBRANCH   6   9
ENDBRANCH   2   3
BRANCH   1  15
ATOM     14  O   UNL     1       7.551   6.808  16.402  0.00  0.00    +0.000 OA
ATOM     15  C   UNL     1       7.699   7.266  17.526  0.00  0.00    +0.000 C 
ATOM     16  N   UNL     1       7.617   6.535  18.682  0.00  0.00    +0.000 N 
ATOM     17  H   UNL     1       7.663   6.998  19.579  0.00  0.00    +0.000 HD
BRANCH  16  18
ATOM     18  C   UNL     1       7.270   5.132  18.668  0.00  0.00    +0.000 C 
BRANCH  18  19
ATOM     19  C   UNL     1       5.799   4.931  18.400  0.00  0.00    +0.000 A 
ATOM     20  C   UNL     1       5.364   4.233  17.263  0.00  0.00    +0.000 A 
ATOM     21  C   UNL     1       4.000   4.028  17.035  0.00  0.00    +0.000 A 
ATOM     22  C   UNL     1       3.064   4.520  17.943  0.00  0.00    +0.000 A 
ATOM     23 CL   UNL     1       1.385   4.266  17.658  0.00  0.00    +0.000 Cl
ATOM     24  C   UNL     1       3.479   5.210  19.078  0.00  0.00    +0.000 A 
ATOM     25  C   UNL     1       4.842   5.413  19.307  0.00  0.00    +0.000 A 
ENDBRANCH  18  19
ENDBRANCH  16  18
ENDBRANCH   1  15
TORSDOF 8
ENDMDL
MODEL 6
REMARK VINA RESULT:      -7.2      1.481      1.951
REMARK  Name = 
REMARK  8 active torsions:
REMARK  status: ('A' for Active; 'I' for Inactive)
REMARK    1  A    between atoms: C_2  and  C_3
REMARK    2  A    between atoms: C_4  and  C_5
REMARK    3  A    between atoms: C_8  and  O_9
REMARK    4  A    between atoms: O_9  and  C_10
REMARK    5  A    between atoms: C_10  and  C_11
REMARK    6  A    between atoms: C_11  and  C_12
REMARK    7  A    between atoms: N_16  and  C_17
REMARK    8  A    between atoms: C_17  and  C_18
REMARK                            x       y       z     vdW  Elec       q    Type
REMARK                         _______ _______ _______ _____ _____    ______ ____
ROOT
ATOM      1  C   UNL     1       7.943   8.650  17.743  0.00  0.00    +0.000 C 
ATOM      2  C   UNL     1       8.916   8.997  18.598  0.00  0.00    +0.000 C 
ENDROOT
BRANCH   2   3
ATOM      3  C   UNL     1       9.114  10.384  19.008  0.00  0.00    +0.000 A 
ATOM      4  C   UNL     1       9.016  11.376  18.033  0.00  0.00    +0.000 A 
ATOM      5  C   UNL     1       9.193  12.718  18.369  0.00  0.00    +0.000 A 
ATOM      6  C   UNL     1       9.466  13.092  19.689  0.00  0.00    +0.000 A 
ATOM      7  C   UNL     1       9.571  12.098  20.664  0.00  0.00    +0.000 A 
ATOM      8  C   UNL     1       9.398  10.746  20.328  0.00  0.00    +0.000 A 
BRANCH   6   9
ATOM      9  O   UNL     1       9.643  14.388  20.114  0.00  0.00    +0.000 OA
BRANCH   9  10
ATOM     10  C   UNL     1       8.746  15.332  19.521  0.00  0.00    +0.000 C 
BRANCH  10  11
ATOM     11  C   UNL     1       9.405  16.693  19.349  0.00  0.00    +0.000 C 
BRANCH  11  12
ATOM     12  C   UNL     1      10.461  16.601  18.261  0.00  0.00    +0.000 C 
ATOM     13  F   UNL     1       9.985  15.835  17.243  0.00  0.00    +0.000 F 
ENDBRANCH  11  12
ENDBRANCH  10  11
ENDBRANCH   9  10
ENDBRANCH   6   9
ENDBRANCH   2   3
BRANCH   1  15
ATOM     14  O   UNL     1       7.602   6.750  16.360  0.00  0.00    +0.000 OA
ATOM     15  C   UNL     1       7.683   7.212  17.490  0.00  0.00    +0.000 C 
ATOM     16  N   UNL     1       7.544   6.483  18.641  0.00  0.00    +0.000 N 
ATOM     17  H   UNL     1       7.536   6.948  19.538  0.00  0.00    +0.000 HD
BRANCH  16  18
ATOM     18  C   UNL     1       7.211   5.075  18.612  0.00  0.00    +0.000 C 
BRANCH  18  19
ATOM     19  C   UNL     1       5.737   4.863  18.369  0.00  0.00    +0.000 A 
ATOM     20  C   UNL     1       5.289   4.164  17.239  0.00  0.00    +0.000 A 
ATOM     21  C   UNL     1       3.922   3.949  17.034  0.00  0.00    +0.000 A 
ATOM     22  C   UNL     1       2.998   4.430  17.958  0.00  0.00    +0.000 A 
ATOM     23 CL   UNL     1       1.317   4.163  17.702  0.00  0.00    +0.000 Cl
ATOM     24  C   UNL     1       3.427   5.121  19.088  0.00  0.00    +0.000 A 
ATOM     25  C   UNL     1       4.792   5.335  19.294  0.00  0.00    +0.000 A 
ENDBRANCH  18  19
ENDBRANCH  16  18
ENDBRANCH   1  15
TORSDOF 8
ENDMDL
MODEL 7
REMARK VINA RESULT:      -7.1      0.961      1.683
REMARK  Name = 
REMARK  8 active torsions:
REMARK  status: ('A' for Active; 'I' for Inactive)
REMARK    1  A    between atoms: C_2  and  C_3
REMARK    2  A    between atoms: C_4  and  C_5
REMARK    3  A    between atoms: C_8  and  O_9
REMARK    4  A    between atoms: O_9  and  C_10
REMARK    5  A    between atoms: C_10  and  C_11
REMARK    6  A    between atoms: C_11  and  C_12
REMARK    7  A    between atoms: N_16  and  C_17
REMARK    8  A    between atoms: C_17  and  C_18
REMARK                            x       y       z     vdW  Elec       q    Type
REMARK                         _______ _______ _______ _____ _____    ______ ____
ROOT
ATOM      1  C   UNL     1       8.113   7.717  17.820  0.00  0.00    +0.000 C 
ATOM      2  C   UNL     1       7.611   8.959  17.863  0.00  0.00    +0.000 C 
ENDROOT
BRANCH   2   3
ATOM      3  C   UNL     1       8.436  10.105  18.236  0.00  0.00    +0.000 A 
ATOM      4  C   UNL     1       8.296  11.280  17.498  0.00  0.00    +0.000 A 
ATOM      5  C   UNL     1       9.056  12.407  17.812  0.00  0.00    +0.000 A 
ATOM      6  C   UNL     1       9.965  12.380  18.874  0.00  0.00    +0.000 A 
ATOM      7  C   UNL     1      10.110  11.201  19.609  0.00  0.00    +0.000 A 
ATOM      8  C   UNL     1       9.351  10.064  19.292  0.00  0.00    +0.000 A 
BRANCH   6   9
ATOM      9  O   UNL     1      10.746  13.443  19.264  0.00  0.00    +0.000 OA
BRANCH   9  10
ATOM     10  C   UNL     1      10.136  14.724  19.075  0.00  0.00    +0.000 C 
BRANCH  10  11
ATOM     11  C   UNL     1      11.137  15.744  18.553  0.00  0.00    +0.000 C 
BRANCH  11  12
ATOM     12  C   UNL     1      10.712  16.195  17.166  0.00  0.00    +0.000 C 
ATOM     13  F   UNL     1      11.373  17.341  16.849  0.00  0.00    +0.000 F 
ENDBRANCH  11  12
ENDBRANCH  10  11
ENDBRANCH   9  10
ENDBRANCH   6   9
ENDBRANCH   2   3
BRANCH   1  15
ATOM     14  O   UNL     1       7.660   5.457  17.248  0.00  0.00    +0.000 OA
ATOM     15  C   UNL     1       7.277   6.619  17.277  0.00  0.00    +0.000 C 
ATOM     16  N   UNL     1       6.059   7.048  16.822  0.00  0.00    +0.000 N 
ATOM     17  H   UNL     1       5.846   8.035  16.797  0.00  0.00    +0.000 HD
BRANCH  16  18
ATOM     18  C   UNL     1       5.125   6.145  16.185  0.00  0.00    +0.000 C 
BRANCH  18  19
ATOM     19  C   UNL     1       4.109   5.621  17.169  0.00  0.00    +0.000 A 
ATOM     20  C   UNL     1       3.452   6.488  18.054  0.00  0.00    +0.000 A 
ATOM     21  C   UNL     1       2.491   5.998  18.945  0.00  0.00    +0.000 A 
ATOM     22  C   UNL     1       2.182   4.640  18.953  0.00  0.00    +0.000 A 
ATOM     23 CL   UNL     1       1.000   4.041  20.052  0.00  0.00    +0.000 Cl
ATOM     24  C   UNL     1       2.821   3.766  18.078  0.00  0.00    +0.000 A 
ATOM     25  C   UNL     1       3.780   4.255  17.187  0.00  0.00    +0.000 A 
ENDBRANCH  18  19
ENDBRANCH  16  18
ENDBRANCH   1  15
TORSDOF 8
ENDMDL
MODEL 8
REMARK VINA RESULT:      -7.1      1.468      1.875
REMARK  Name = 
REMARK  8 active torsions:
REMARK  status: ('A' for Active; 'I' for Inactive)
REMARK    1  A    between atoms: C_2  and  C_3
REMARK    2  A    between atoms: C_4  and  C_5
REMARK    3  A    between atoms: C_8  and  O_9
REMARK    4  A    between atoms: O_9  and  C_10
REMARK    5  A    between atoms: C_10  and  C_11
REMARK    6  A    between atoms: C_11  and  C_12
REMARK    7  A    between atoms: N_16  and  C_17
REMARK    8  A    between atoms: C_17  and  C_18
REMARK                            x       y       z     vdW  Elec       q    Type
REMARK                         _______ _______ _______ _____ _____    ______ ____
ROOT
ATOM      1  C   UNL     1       8.069   7.790  18.208  0.00  0.00    +0.000 C 
ATOM      2  C   UNL     1       8.146   9.059  17.784  0.00  0.00    +0.000 C 
ENDROOT
BRANCH   2   3
ATOM      3  C   UNL     1       8.929  10.060  18.503  0.00  0.00    +0.000 A 
ATOM      4  C   UNL     1       9.669  10.975  17.755  0.00  0.00    +0.000 A 
ATOM      5  C   UNL     1      10.431  11.955  18.390  0.00  0.00    +0.000 A 
ATOM      6  C   UNL     1      10.463  12.041  19.785  0.00  0.00    +0.000 A 
ATOM      7  C   UNL     1       9.727  11.121  20.535  0.00  0.00    +0.000 A 
ATOM      8  C   UNL     1       8.963  10.130  19.899  0.00  0.00    +0.000 A 
BRANCH   6   9
ATOM      9  O   UNL     1      11.174  12.979  20.495  0.00  0.00    +0.000 OA
BRANCH   9  10
ATOM     10  C   UNL     1      11.029  14.319  20.015  0.00  0.00    +0.000 C 
BRANCH  10  11
ATOM     11  C   UNL     1       9.674  14.901  20.394  0.00  0.00    +0.000 C 
BRANCH  11  12
ATOM     12  C   UNL     1       9.156  15.747  19.243  0.00  0.00    +0.000 C 
ATOM     13  F   UNL     1       9.475  15.142  18.067  0.00  0.00    +0.000 F 
ENDBRANCH  11  12
ENDBRANCH  10  11
ENDBRANCH   9  10
ENDBRANCH   6   9
ENDBRANCH   2   3
BRANCH   1  15
ATOM     14  O   UNL     1       7.747   6.563  16.200  0.00  0.00    +0.000 OA
ATOM     15  C   UNL     1       7.398   6.781  17.352  0.00  0.00    +0.000 C 
ATOM     16  N   UNL     1       6.367   6.141  17.987  0.00  0.00    +0.000 N 
ATOM     17  H   UNL     1       6.080   6.435  18.910  0.00  0.00    +0.000 HD
BRANCH  16  18
ATOM     18  C   UNL     1       5.537   5.175  17.301  0.00  0.00    +0.000 C 
BRANCH  18  19
ATOM     19  C   UNL     1       4.399   4.709  18.174  0.00  0.00    +0.000 A 
ATOM     20  C   UNL     1       4.600   3.725  19.153  0.00  0.00    +0.000 A 
ATOM     21  C   UNL     1       3.545   3.316  19.976  0.00  0.00    +0.000 A 
ATOM     22  C   UNL     1       2.286   3.891  19.824  0.00  0.00    +0.000 A 
ATOM     23 CL   UNL     1       0.990   3.385  20.839  0.00  0.00    +0.000 Cl
ATOM     24  C   UNL     1       2.070   4.872  18.861  0.00  0.00    +0.000 A 
ATOM     25  C   UNL     1       3.123   5.282  18.040  0.00  0.00    +0.000 A 
ENDBRANCH  18  19
ENDBRANCH  16  18
ENDBRANCH   1  15
TORSDOF 8
ENDMDL
MODEL 9
REMARK VINA RESULT:      -7.1      1.312      1.938
REMARK  Name = 
REMARK  8 active torsions:
REMARK  status: ('A' for Active; 'I' for Inactive)
REMARK    1  A    between atoms: C_2  and  C_3
REMARK    2  A    between atoms: C_4  and  C_5
REMARK    3  A    between atoms: C_8  and  O_9
REMARK    4  A    between atoms: O_9  and  C_10
REMARK    5  A    between atoms: C_10  and  C_11
REMARK    6  A    between atoms: C_11  and  C_12
REMARK    7  A    between atoms: N_16  and  C_17
REMARK    8  A    between atoms: C_17  and  C_18
REMARK                            x       y       z     vdW  Elec       q    Type
REMARK                         _______ _______ _______ _____ _____    ______ ____
ROOT
ATOM      1  C   UNL     1       8.279   7.950  18.394  0.00  0.00    +0.000 C 
ATOM      2  C   UNL     1       8.079   9.193  17.936  0.00  0.00    +0.000 C 
ENDROOT
BRANCH   2   3
ATOM      3  C   UNL     1       8.797  10.337  18.490  0.00  0.00    +0.000 A 
ATOM      4  C   UNL     1       8.841  11.510  17.737  0.00  0.00    +0.000 A 
ATOM      5  C   UNL     1       9.510  12.635  18.218  0.00  0.00    +0.000 A 
ATOM      6  C   UNL     1      10.140  12.609  19.466  0.00  0.00    +0.000 A 
ATOM      7  C   UNL     1      10.101  11.434  20.218  0.00  0.00    +0.000 A 
ATOM      8  C   UNL     1       9.434  10.298  19.734  0.00  0.00    +0.000 A 
BRANCH   6   9
ATOM      9  O   UNL     1      10.811  13.672  20.026  0.00  0.00    +0.000 OA
BRANCH   9  10
ATOM     10  C   UNL     1      10.576  14.926  19.379  0.00  0.00    +0.000 C 
BRANCH  10  11
ATOM     11  C   UNL     1      11.834  15.445  18.698  0.00  0.00    +0.000 C 
BRANCH  11  12
ATOM     12  C   UNL     1      11.716  16.947  18.510  0.00  0.00    +0.000 C 
ATOM     13  F   UNL     1      12.142  17.274  17.260  0.00  0.00    +0.000 F 
ENDBRANCH  11  12
ENDBRANCH  10  11
ENDBRANCH   9  10
ENDBRANCH   6   9
ENDBRANCH   2   3
BRANCH   1  15
ATOM     14  O   UNL     1       7.571   6.756  16.467  0.00  0.00    +0.000 OA
ATOM     15  C   UNL     1       7.649   6.808  17.687  0.00  0.00    +0.000 C 
ATOM     16  N   UNL     1       7.175   5.846  18.539  0.00  0.00    +0.000 N 
ATOM     17  H   UNL     1       7.196   5.999  19.537  0.00  0.00    +0.000 HD
BRANCH  16  18
ATOM     18  C   UNL     1       6.459   4.688  18.052  0.00  0.00    +0.000 C 
BRANCH  18  19
ATOM     19  C   UNL     1       5.132   4.527  18.749  0.00  0.00    +0.000 A 
ATOM     20  C   UNL     1       4.403   5.648  19.174  0.00  0.00    +0.000 A 
ATOM     21  C   UNL     1       3.160   5.492  19.796  0.00  0.00    +0.000 A 
ATOM     22  C   UNL     1       2.641   4.215  19.996  0.00  0.00    +0.000 A 
ATOM     23 CL   UNL     1       1.111   4.027  20.764  0.00  0.00    +0.000 Cl
ATOM     24  C   UNL     1       3.349   3.092  19.577  0.00  0.00    +0.000 A 
ATOM     25  C   UNL     1       4.589   3.248  18.953  0.00  0.00    +0.000 A 
ENDBRANCH  18  19
ENDBRANCH  16  18
ENDBRANCH   1  15
TORSDOF 8
ENDMDL
