MODEL 1
REMARK VINA RESULT:      -8.1      0.000      0.000
REMARK  Name = 
REMARK  13 active torsions:
REMARK  status: ('A' for Active; 'I' for Inactive)
REMARK    1  A    between atoms: C_1  and  C_2
REMARK    2  A    between atoms: C_2  and  C_3
REMARK    3  A    between atoms: C_3  and  C_4
REMARK    4  A    between atoms: C_3  and  C_6
REMARK    5  A    between atoms: C_4  and  C_5
REMARK    6  A    between atoms: N_8  and  C_9
REMARK    7  A    between atoms: C_11  and  N_12
REMARK    8  A    between atoms: N_15  and  C_16
REMARK    9  A    between atoms: C_16  and  C_17
REMARK   10  A    between atoms: C_25  and  O_26
REMARK   11  A    between atoms: O_26  and  C_27
REMARK   12  A    between atoms: C_27  and  C_28
REMARK   13  A    between atoms: C_28  and  O_30
REMARK                            x       y       z     vdW  Elec       q    Type
REMARK                         _______ _______ _______ _____ _____    ______ ____
ROOT
ATOM      1  C   UNL     1       5.083   4.825  15.827  0.00  0.00    +0.000 A 
ATOM      2  C   UNL     1       5.784   6.042  15.865  0.00  0.00    +0.000 A 
ATOM      3  C   UNL     1       5.945   6.758  17.058  0.00  0.00    +0.000 A 
ATOM      4  C   UNL     1       5.404   6.227  18.233  0.00  0.00    +0.000 A 
ATOM      5  C   UNL     1       4.711   5.013  18.206  0.00  0.00    +0.000 A 
ATOM      6  C   UNL     1       4.571   4.285  17.015  0.00  0.00    +0.000 A 
ENDROOT
BRANCH   3   7
ATOM      7  N   UNL     1       6.629   7.996  17.148  0.00  0.00    +0.000 N 
ATOM      8  C   UNL     1       7.736   8.259  17.924  0.00  0.00    +0.000 C 
ATOM      9  O   UNL     1       8.320   7.457  18.643  0.00  0.00    +0.000 OA
ATOM     10  N   UNL     1       8.152   9.575  17.835  0.00  0.00    +0.000 N 
ATOM     11  H   UNL     1       6.320   8.733  16.536  0.00  0.00    +0.000 HD
ATOM     12  H   UNL     1       7.927  10.096  17.004  0.00  0.00    +0.000 HD
BRANCH  10  13
ATOM     13  C   UNL     1       9.376   9.924  18.526  0.00  0.00    +0.000 C 
BRANCH  13  14
ATOM     14  C   UNL     1       9.893  11.297  18.191  0.00  0.00    +0.000 A 
ATOM     15  C   UNL     1      11.264  11.519  17.999  0.00  0.00    +0.000 A 
ATOM     16  C   UNL     1      11.732  12.777  17.608  0.00  0.00    +0.000 A 
ATOM     17  C   UNL     1      10.836  13.826  17.415  0.00  0.00    +0.000 A 
ATOM     18  C   UNL     1       9.472  13.622  17.617  0.00  0.00    +0.000 A 
ATOM     19  C   UNL     1       9.003  12.365  18.005  0.00  0.00    +0.000 A 
ENDBRANCH  13  14
ENDBRANCH  10  13
ENDBRANCH   3   7
BRANCH   1  22
ATOM     20  C   UNL     1       6.078   3.925  13.811  0.00  0.00    +0.000 C 
ATOM     21  O   UNL     1       7.217   4.232  14.155  0.00  0.00    +0.000 OA
ATOM     22  N   UNL     1       4.933   4.203  14.560  0.00  0.00    +0.000 N 
ATOM     23  H   UNL     1       4.281   3.426  14.544  0.00  0.00    +0.000 HD
BRANCH  20  24
ATOM     24  C   UNL     1       5.789   3.195  12.486  0.00  0.00    +0.000 C 
BRANCH  24  26
ATOM     25  C   UNL     1       3.726   3.007  10.945  0.00  0.00    +0.000 C 
ATOM     26  C   UNL     1       4.642   3.920  11.749  0.00  0.00    +0.000 C 
ENDBRANCH  24  26
BRANCH  24  27
ATOM     27  C   UNL     1       7.049   2.968  11.632  0.00  0.00    +0.000 C 
ATOM     28  C   UNL     1       7.160   1.593  10.984  0.00  0.00    +0.000 C 
ENDBRANCH  24  27
ENDBRANCH  20  24
ENDBRANCH   1  22
BRANCH   6  29
ATOM     29  O   UNL     1       3.973   3.066  17.209  0.00  0.00    +0.000 OA
BRANCH  29  30
ATOM     30  C   UNL     1       3.505   2.745  18.510  0.00  0.00    +0.000 C 
BRANCH  30  31
ATOM     31  C   UNL     1       4.309   1.720  19.312  0.00  0.00    +0.000 C 
ATOM     32  O   UNL     1       4.866   1.963  20.378  0.00  0.00    +0.000 OA
BRANCH  31  33
ATOM     33  O   UNL     1       4.413   0.517  18.694  0.00  0.00    +0.000 OA
ATOM     34  H   UNL     1       4.388   0.613  17.719  0.00  0.00    +0.000 HD
ENDBRANCH  31  33
ENDBRANCH  30  31
ENDBRANCH  29  30
ENDBRANCH   6  29
TORSDOF 11
ENDMDL
MODEL 2
REMARK VINA RESULT:      -8.0      1.972      2.322
REMARK  Name = 
REMARK  13 active torsions:
REMARK  status: ('A' for Active; 'I' for Inactive)
REMARK    1  A    between atoms: C_1  and  C_2
REMARK    2  A    between atoms: C_2  and  C_3
REMARK    3  A    between atoms: C_3  and  C_4
REMARK    4  A    between atoms: C_3  and  C_6
REMARK    5  A    between atoms: C_4  and  C_5
REMARK    6  A    between atoms: N_8  and  C_9
REMARK    7  A    between atoms: C_11  and  N_12
REMARK    8  A    between atoms: N_15  and  C_16
REMARK    9  A    between atoms: C_16  and  C_17
REMARK   10  A    between atoms: C_25  and  O_26
REMARK   11  A    between atoms: O_26  and  C_27
REMARK   12  A    between atoms: C_27  and  C_28
REMARK   13  A    between atoms: C_28  and  O_30
REMARK                            x       y       z     vdW  Elec       q    Type
REMARK                         _______ _______ _______ _____ _____    ______ ____
ROOT
ATOM      1  C   UNL     1       6.261   4.286  16.896  0.00  0.00    +0.000 A 
ATOM      2  C   UNL     1       7.184   5.290  17.234  0.00  0.00    +0.000 A 
ATOM      3  C   UNL     1       7.126   5.957  18.465  0.00  0.00    +0.000 A 
ATOM      4  C   UNL     1       6.131   5.589  19.375  0.00  0.00    +0.000 A 
ATOM      5  C   UNL     1       5.212   4.586  19.051  0.00  0.00    +0.000 A 
ATOM      6  C   UNL     1       5.286   3.904  17.828  0.00  0.00    +0.000 A 
ENDROOT
BRANCH   3   7
ATOM      7  N   UNL     1       8.022   6.986  18.847  0.00  0.00    +0.000 N 
ATOM      8  C   UNL     1       8.148   8.219  18.246  0.00  0.00    +0.000 C 
ATOM      9  O   UNL     1       7.488   8.631  17.300  0.00  0.00    +0.000 OA
ATOM     10  N   UNL     1       9.142   8.994  18.817  0.00  0.00    +0.000 N 
ATOM     11  H   UNL     1       8.569   6.829  19.678  0.00  0.00    +0.000 HD
ATOM     12  H   UNL     1       9.397   8.820  19.775  0.00  0.00    +0.000 HD
BRANCH  10  13
ATOM     13  C   UNL     1       9.276  10.351  18.329  0.00  0.00    +0.000 C 
BRANCH  13  14
ATOM     14  C   UNL     1       9.542  11.361  19.412  0.00  0.00    +0.000 A 
ATOM     15  C   UNL     1       9.989  12.652  19.093  0.00  0.00    +0.000 A 
ATOM     16  C   UNL     1      10.158  13.612  20.094  0.00  0.00    +0.000 A 
ATOM     17  C   UNL     1       9.891  13.290  21.423  0.00  0.00    +0.000 A 
ATOM     18  C   UNL     1       9.460  12.007  21.754  0.00  0.00    +0.000 A 
ATOM     19  C   UNL     1       9.289  11.046  20.755  0.00  0.00    +0.000 A 
ENDBRANCH  13  14
ENDBRANCH  10  13
ENDBRANCH   3   7
BRANCH   1  22
ATOM     20  C   UNL     1       6.058   4.487  14.492  0.00  0.00    +0.000 C 
ATOM     21  O   UNL     1       5.632   5.638  14.557  0.00  0.00    +0.000 OA
ATOM     22  N   UNL     1       6.376   3.708  15.606  0.00  0.00    +0.000 N 
ATOM     23  H   UNL     1       7.224   3.173  15.455  0.00  0.00    +0.000 HD
BRANCH  20  24
ATOM     24  C   UNL     1       6.282   3.768  13.149  0.00  0.00    +0.000 C 
BRANCH  24  26
ATOM     25  C   UNL     1       4.993   2.546  11.276  0.00  0.00    +0.000 C 
ATOM     26  C   UNL     1       4.914   3.369  12.555  0.00  0.00    +0.000 C 
ENDBRANCH  24  26
BRANCH  24  27
ATOM     27  C   UNL     1       7.189   4.555  12.185  0.00  0.00    +0.000 C 
ATOM     28  C   UNL     1       8.212   5.468  12.848  0.00  0.00    +0.000 C 
ENDBRANCH  24  27
ENDBRANCH  20  24
ENDBRANCH   1  22
BRANCH   6  29
ATOM     29  O   UNL     1       4.384   2.874  17.744  0.00  0.00    +0.000 OA
BRANCH  29  30
ATOM     30  C   UNL     1       3.058   3.172  17.336  0.00  0.00    +0.000 C 
BRANCH  30  31
ATOM     31  C   UNL     1       1.938   2.913  18.347  0.00  0.00    +0.000 C 
ATOM     32  O   UNL     1       1.308   3.797  18.917  0.00  0.00    +0.000 OA
BRANCH  31  33
ATOM     33  O   UNL     1       1.750   1.596  18.613  0.00  0.00    +0.000 OA
ATOM     34  H   UNL     1       2.000   1.380  19.535  0.00  0.00    +0.000 HD
ENDBRANCH  31  33
ENDBRANCH  30  31
ENDBRANCH  29  30
ENDBRANCH   6  29
TORSDOF 11
ENDMDL
MODEL 3
REMARK VINA RESULT:      -8.0      5.287      7.660
REMARK  Name = 
REMARK  13 active torsions:
REMARK  status: ('A' for Active; 'I' for Inactive)
REMARK    1  A    between atoms: C_1  and  C_2
REMARK    2  A    between atoms: C_2  and  C_3
REMARK    3  A    between atoms: C_3  and  C_4
REMARK    4  A    between atoms: C_3  and  C_6
REMARK    5  A    between atoms: C_4  and  C_5
REMARK    6  A    between atoms: N_8  and  C_9
REMARK    7  A    between atoms: C_11  and  N_12
REMARK    8  A    between atoms: N_15  and  C_16
REMARK    9  A    between atoms: C_16  and  C_17
REMARK   10  A    between atoms: C_25  and  O_26
REMARK   11  A    between atoms: O_26  and  C_27
REMARK   12  A    between atoms: C_27  and  C_28
REMARK   13  A    between atoms: C_28  and  O_30
REMARK                            x       y       z     vdW  Elec       q    Type
REMARK                         _______ _______ _______ _____ _____    ______ ____
ROOT
ATOM      1  C   UNL     1       4.021   5.588  19.439  0.00  0.00    +0.000 A 
ATOM      2  C   UNL     1       3.341   6.812  19.556  0.00  0.00    +0.000 A 
ATOM      3  C   UNL     1       2.087   6.899  20.174  0.00  0.00    +0.000 A 
ATOM      4  C   UNL     1       1.520   5.733  20.698  0.00  0.00    +0.000 A 
ATOM      5  C   UNL     1       2.193   4.512  20.593  0.00  0.00    +0.000 A 
ATOM      6  C   UNL     1       3.459   4.431  19.995  0.00  0.00    +0.000 A 
ENDROOT
BRANCH   3   7
ATOM      7  N   UNL     1       1.354   8.104  20.303  0.00  0.00    +0.000 N 
ATOM      8  C   UNL     1       1.139   9.036  19.311  0.00  0.00    +0.000 C 
ATOM      9  O   UNL     1       1.529   8.958  18.152  0.00  0.00    +0.000 OA
ATOM     10  N   UNL     1       0.422  10.133  19.752  0.00  0.00    +0.000 N 
ATOM     11  H   UNL     1       0.887   8.263  21.181  0.00  0.00    +0.000 HD
ATOM     12  H   UNL     1      -0.190  10.021  20.544  0.00  0.00    +0.000 HD
BRANCH  10  13
ATOM     13  C   UNL     1       0.047  11.116  18.757  0.00  0.00    +0.000 C 
BRANCH  13  14
ATOM     14  C   UNL     1      -1.379  10.997  18.292  0.00  0.00    +0.000 A 
ATOM     15  C   UNL     1      -1.745  10.034  17.340  0.00  0.00    +0.000 A 
ATOM     16  C   UNL     1      -3.083   9.874  16.972  0.00  0.00    +0.000 A 
ATOM     17  C   UNL     1      -4.066  10.678  17.543  0.00  0.00    +0.000 A 
ATOM     18  C   UNL     1      -3.714  11.648  18.479  0.00  0.00    +0.000 A 
ATOM     19  C   UNL     1      -2.377  11.810  18.850  0.00  0.00    +0.000 A 
ENDBRANCH  13  14
ENDBRANCH  10  13
ENDBRANCH   3   7
BRANCH   1  22
ATOM     20  C   UNL     1       5.274   5.922  17.394  0.00  0.00    +0.000 C 
ATOM     21  O   UNL     1       4.263   6.151  16.733  0.00  0.00    +0.000 OA
ATOM     22  N   UNL     1       5.263   5.599  18.753  0.00  0.00    +0.000 N 
ATOM     23  H   UNL     1       6.018   6.059  19.250  0.00  0.00    +0.000 HD
BRANCH  20  24
ATOM     24  C   UNL     1       6.685   5.961  16.778  0.00  0.00    +0.000 C 
BRANCH  24  26
ATOM     25  C   UNL     1       7.846   8.089  17.665  0.00  0.00    +0.000 C 
ATOM     26  C   UNL     1       7.664   6.583  17.798  0.00  0.00    +0.000 C 
ENDBRANCH  24  26
BRANCH  24  27
ATOM     27  C   UNL     1       7.135   4.603  16.212  0.00  0.00    +0.000 C 
ATOM     28  C   UNL     1       6.558   4.239  14.850  0.00  0.00    +0.000 C 
ENDBRANCH  24  27
ENDBRANCH  20  24
ENDBRANCH   1  22
BRANCH   6  29
ATOM     29  O   UNL     1       4.011   3.180  20.098  0.00  0.00    +0.000 OA
BRANCH  29  30
ATOM     30  C   UNL     1       3.390   2.110  19.403  0.00  0.00    +0.000 C 
BRANCH  30  31
ATOM     31  C   UNL     1       3.230   2.256  17.888  0.00  0.00    +0.000 C 
ATOM     32  O   UNL     1       4.101   2.694  17.143  0.00  0.00    +0.000 OA
BRANCH  31  33
ATOM     33  O   UNL     1       1.994   1.918  17.444  0.00  0.00    +0.000 OA
ATOM     34  H   UNL     1       1.325   1.997  18.156  0.00  0.00    +0.000 HD
ENDBRANCH  31  33
ENDBRANCH  30  31
ENDBRANCH  29  30
ENDBRANCH   6  29
TORSDOF 11
ENDMDL
MODEL 4
REMARK VINA RESULT:      -8.0      5.757      7.488
REMARK  Name = 
REMARK  13 active torsions:
REMARK  status: ('A' for Active; 'I' for Inactive)
REMARK    1  A    between atoms: C_1  and  C_2
REMARK    2  A    between atoms: C_2  and  C_3
REMARK    3  A    between atoms: C_3  and  C_4
REMARK    4  A    between atoms: C_3  and  C_6
REMARK    5  A    between atoms: C_4  and  C_5
REMARK    6  A    between atoms: N_8  and  C_9
REMARK    7  A    between atoms: C_11  and  N_12
REMARK    8  A    between atoms: N_15  and  C_16
REMARK    9  A    between atoms: C_16  and  C_17
REMARK   10  A    between atoms: C_25  and  O_26
REMARK   11  A    between atoms: O_26  and  C_27
REMARK   12  A    between atoms: C_27  and  C_28
REMARK   13  A    between atoms: C_28  and  O_30
REMARK                            x       y       z     vdW  Elec       q    Type
REMARK                         _______ _______ _______ _____ _____    ______ ____
ROOT
ATOM      1  C   UNL     1       2.907   5.597  18.531  0.00  0.00    +0.000 A 
ATOM      2  C   UNL     1       2.764   6.737  19.340  0.00  0.00    +0.000 A 
ATOM      3  C   UNL     1       1.907   6.747  20.449  0.00  0.00    +0.000 A 
ATOM      4  C   UNL     1       1.198   5.582  20.754  0.00  0.00    +0.000 A 
ATOM      5  C   UNL     1       1.339   4.440  19.958  0.00  0.00    +0.000 A 
ATOM      6  C   UNL     1       2.215   4.424  18.864  0.00  0.00    +0.000 A 
ENDROOT
BRANCH   3   7
ATOM      7  N   UNL     1       1.715   7.874  21.286  0.00  0.00    +0.000 N 
ATOM      8  C   UNL     1       0.506   8.356  21.737  0.00  0.00    +0.000 C 
ATOM      9  O   UNL     1      -0.595   7.872  21.504  0.00  0.00    +0.000 OA
ATOM     10  N   UNL     1       0.638   9.500  22.504  0.00  0.00    +0.000 N 
ATOM     11  H   UNL     1       2.543   8.324  21.642  0.00  0.00    +0.000 HD
ATOM     12  H   UNL     1       1.508   9.659  22.985  0.00  0.00    +0.000 HD
BRANCH  10  13
ATOM     13  C   UNL     1      -0.566  10.020  23.118  0.00  0.00    +0.000 C 
BRANCH  13  14
ATOM     14  C   UNL     1      -1.067  11.293  22.491  0.00  0.00    +0.000 A 
ATOM     15  C   UNL     1      -2.128  12.006  23.067  0.00  0.00    +0.000 A 
ATOM     16  C   UNL     1      -2.537  13.228  22.529  0.00  0.00    +0.000 A 
ATOM     17  C   UNL     1      -1.896  13.746  21.405  0.00  0.00    +0.000 A 
ATOM     18  C   UNL     1      -0.850  13.040  20.814  0.00  0.00    +0.000 A 
ATOM     19  C   UNL     1      -0.439  11.818  21.352  0.00  0.00    +0.000 A 
ENDBRANCH  13  14
ENDBRANCH  10  13
ENDBRANCH   3   7
BRANCH   1  22
ATOM     20  C   UNL     1       5.054   5.181  17.490  0.00  0.00    +0.000 C 
ATOM     21  O   UNL     1       5.523   4.672  18.504  0.00  0.00    +0.000 OA
ATOM     22  N   UNL     1       3.762   5.706  17.404  0.00  0.00    +0.000 N 
ATOM     23  H   UNL     1       3.325   5.475  16.518  0.00  0.00    +0.000 HD
BRANCH  20  24
ATOM     24  C   UNL     1       5.859   5.306  16.183  0.00  0.00    +0.000 C 
BRANCH  24  26
ATOM     25  C   UNL     1       7.271   7.126  17.350  0.00  0.00    +0.000 C 
ATOM     26  C   UNL     1       7.265   5.857  16.507  0.00  0.00    +0.000 C 
ENDBRANCH  24  26
BRANCH  24  27
ATOM     27  C   UNL     1       5.861   4.013  15.348  0.00  0.00    +0.000 C 
ATOM     28  C   UNL     1       6.378   4.157  13.922  0.00  0.00    +0.000 C 
ENDBRANCH  24  27
ENDBRANCH  20  24
ENDBRANCH   1  22
BRANCH   6  29
ATOM     29  O   UNL     1       2.313   3.184  18.285  0.00  0.00    +0.000 OA
BRANCH  29  30
ATOM     30  C   UNL     1       2.528   2.062  19.126  0.00  0.00    +0.000 C 
BRANCH  30  31
ATOM     31  C   UNL     1       3.974   1.607  19.333  0.00  0.00    +0.000 C 
ATOM     32  O   UNL     1       4.734   2.088  20.167  0.00  0.00    +0.000 OA
BRANCH  31  33
ATOM     33  O   UNL     1       4.369   0.657  18.449  0.00  0.00    +0.000 OA
ATOM     34  H   UNL     1       4.627   1.054  17.591  0.00  0.00    +0.000 HD
ENDBRANCH  31  33
ENDBRANCH  30  31
ENDBRANCH  29  30
ENDBRANCH   6  29
TORSDOF 11
ENDMDL
MODEL 5
REMARK VINA RESULT:      -7.9      0.873      1.366
REMARK  Name = 
REMARK  13 active torsions:
REMARK  status: ('A' for Active; 'I' for Inactive)
REMARK    1  A    between atoms: C_1  and  C_2
REMARK    2  A    between atoms: C_2  and  C_3
REMARK    3  A    between atoms: C_3  and  C_4
REMARK    4  A    between atoms: C_3  and  C_6
REMARK    5  A    between atoms: C_4  and  C_5
REMARK    6  A    between atoms: N_8  and  C_9
REMARK    7  A    between atoms: C_11  and  N_12
REMARK    8  A    between atoms: N_15  and  C_16
REMARK    9  A    between atoms: C_16  and  C_17
REMARK   10  A    between atoms: C_25  and  O_26
REMARK   11  A    between atoms: O_26  and  C_27
REMARK   12  A    between atoms: C_27  and  C_28
REMARK   13  A    between atoms: C_28  and  O_30
REMARK                            x       y       z     vdW  Elec       q    Type
REMARK                         _______ _______ _______ _____ _____    ______ ____
ROOT
ATOM      1  C   UNL     1       5.185   4.632  15.922  0.00  0.00    +0.000 A 
ATOM      2  C   UNL     1       5.846   5.871  15.936  0.00  0.00    +0.000 A 
ATOM      3  C   UNL     1       6.050   6.581  17.127  0.00  0.00    +0.000 A 
ATOM      4  C   UNL     1       5.593   6.020  18.324  0.00  0.00    +0.000 A 
ATOM      5  C   UNL     1       4.940   4.783  18.320  0.00  0.00    +0.000 A 
ATOM      6  C   UNL     1       4.758   4.063  17.130  0.00  0.00    +0.000 A 
ENDROOT
BRANCH   3   7
ATOM      7  N   UNL     1       6.696   7.839  17.194  0.00  0.00    +0.000 N 
ATOM      8  C   UNL     1       7.788   8.153  17.974  0.00  0.00    +0.000 C 
ATOM      9  O   UNL     1       8.389   7.385  18.716  0.00  0.00    +0.000 OA
ATOM     10  N   UNL     1       8.167   9.479  17.858  0.00  0.00    +0.000 N 
ATOM     11  H   UNL     1       6.372   8.553  16.562  0.00  0.00    +0.000 HD
ATOM     12  H   UNL     1       7.934   9.973  17.012  0.00  0.00    +0.000 HD
BRANCH  10  13
ATOM     13  C   UNL     1       9.373   9.879  18.551  0.00  0.00    +0.000 C 
BRANCH  13  14
ATOM     14  C   UNL     1       9.841  11.266  18.203  0.00  0.00    +0.000 A 
ATOM     15  C   UNL     1      11.204  11.537  18.015  0.00  0.00    +0.000 A 
ATOM     16  C   UNL     1      11.627  12.807  17.614  0.00  0.00    +0.000 A 
ATOM     17  C   UNL     1      10.694  13.820  17.406  0.00  0.00    +0.000 A 
ATOM     18  C   UNL     1       9.338  13.568  17.603  0.00  0.00    +0.000 A 
ATOM     19  C   UNL     1       8.913  12.299  18.003  0.00  0.00    +0.000 A 
ENDBRANCH  13  14
ENDBRANCH  10  13
ENDBRANCH   3   7
BRANCH   1  22
ATOM     20  C   UNL     1       6.070   3.919  13.783  0.00  0.00    +0.000 C 
ATOM     21  O   UNL     1       7.186   4.378  14.016  0.00  0.00    +0.000 OA
ATOM     22  N   UNL     1       4.986   4.018  14.658  0.00  0.00    +0.000 N 
ATOM     23  H   UNL     1       4.450   3.157  14.685  0.00  0.00    +0.000 HD
BRANCH  20  24
ATOM     24  C   UNL     1       5.742   3.179  12.473  0.00  0.00    +0.000 C 
BRANCH  24  26
ATOM     25  C   UNL     1       3.665   3.063  10.945  0.00  0.00    +0.000 C 
ATOM     26  C   UNL     1       4.630   3.946  11.725  0.00  0.00    +0.000 C 
ENDBRANCH  24  26
BRANCH  24  27
ATOM     27  C   UNL     1       6.988   2.875  11.622  0.00  0.00    +0.000 C 
ATOM     28  C   UNL     1       7.029   1.486  10.997  0.00  0.00    +0.000 C 
ENDBRANCH  24  27
ENDBRANCH  20  24
ENDBRANCH   1  22
BRANCH   6  29
ATOM     29  O   UNL     1       4.213   2.823  17.343  0.00  0.00    +0.000 OA
BRANCH  29  30
ATOM     30  C   UNL     1       3.278   2.669  18.399  0.00  0.00    +0.000 C 
BRANCH  30  31
ATOM     31  C   UNL     1       1.937   3.395  18.260  0.00  0.00    +0.000 C 
ATOM     32  O   UNL     1       1.372   3.598  17.190  0.00  0.00    +0.000 OA
BRANCH  31  33
ATOM     33  O   UNL     1       1.456   3.862  19.439  0.00  0.00    +0.000 OA
ATOM     34  H   UNL     1       0.717   3.308  19.767  0.00  0.00    +0.000 HD
ENDBRANCH  31  33
ENDBRANCH  30  31
ENDBRANCH  29  30
ENDBRANCH   6  29
TORSDOF 11
ENDMDL
MODEL 6
REMARK VINA RESULT:      -7.8      5.394      7.524
REMARK  Name = 
REMARK  13 active torsions:
REMARK  status: ('A' for Active; 'I' for Inactive)
REMARK    1  A    between atoms: C_1  and  C_2
REMARK    2  A    between atoms: C_2  and  C_3
REMARK    3  A    between atoms: C_3  and  C_4
REMARK    4  A    between atoms: C_3  and  C_6
REMARK    5  A    between atoms: C_4  and  C_5
REMARK    6  A    between atoms: N_8  and  C_9
REMARK    7  A    between atoms: C_11  and  N_12
REMARK    8  A    between atoms: N_15  and  C_16
REMARK    9  A    between atoms: C_16  and  C_17
REMARK   10  A    between atoms: C_25  and  O_26
REMARK   11  A    between atoms: O_26  and  C_27
REMARK   12  A    between atoms: C_27  and  C_28
REMARK   13  A    between atoms: C_28  and  O_30
REMARK                            x       y       z     vdW  Elec       q    Type
REMARK                         _______ _______ _______ _____ _____    ______ ____
ROOT
ATOM      1  C   UNL     1       3.621   5.607  19.334  0.00  0.00    +0.000 A 
ATOM      2  C   UNL     1       3.105   6.913  19.377  0.00  0.00    +0.000 A 
ATOM      3  C   UNL     1       1.967   7.228  20.132  0.00  0.00    +0.000 A 
ATOM      4  C   UNL     1       1.353   6.211  20.868  0.00  0.00    +0.000 A 
ATOM      5  C   UNL     1       1.864   4.910  20.837  0.00  0.00    +0.000 A 
ATOM      6  C   UNL     1       3.016   4.601  20.100  0.00  0.00    +0.000 A 
ENDROOT
BRANCH   3   7
ATOM      7  N   UNL     1       1.399   8.524  20.197  0.00  0.00    +0.000 N 
ATOM      8  C   UNL     1       1.043   9.311  19.123  0.00  0.00    +0.000 C 
ATOM      9  O   UNL     1       1.139   9.004  17.941  0.00  0.00    +0.000 OA
ATOM     10  N   UNL     1       0.553  10.547  19.504  0.00  0.00    +0.000 N 
ATOM     11  H   UNL     1       1.169   8.877  21.112  0.00  0.00    +0.000 HD
ATOM     12  H   UNL     1       0.137  10.640  20.416  0.00  0.00    +0.000 HD
BRANCH  10  13
ATOM     13  C   UNL     1       0.046  11.404  18.452  0.00  0.00    +0.000 C 
BRANCH  13  14
ATOM     14  C   UNL     1      -1.419  11.214  18.168  0.00  0.00    +0.000 A 
ATOM     15  C   UNL     1      -1.850  10.270  17.225  0.00  0.00    +0.000 A 
ATOM     16  C   UNL     1      -3.213  10.040  17.022  0.00  0.00    +0.000 A 
ATOM     17  C   UNL     1      -4.159  10.757  17.752  0.00  0.00    +0.000 A 
ATOM     18  C   UNL     1      -3.744  11.708  18.681  0.00  0.00    +0.000 A 
ATOM     19  C   UNL     1      -2.382  11.939  18.887  0.00  0.00    +0.000 A 
ENDBRANCH  13  14
ENDBRANCH  10  13
ENDBRANCH   3   7
BRANCH   1  22
ATOM     20  C   UNL     1       4.547   4.797  17.248  0.00  0.00    +0.000 C 
ATOM     21  O   UNL     1       3.455   4.412  16.835  0.00  0.00    +0.000 OA
ATOM     22  N   UNL     1       4.746   5.382  18.500  0.00  0.00    +0.000 N 
ATOM     23  H   UNL     1       5.397   6.159  18.448  0.00  0.00    +0.000 HD
BRANCH  20  24
ATOM     24  C   UNL     1       5.835   4.664  16.415  0.00  0.00    +0.000 C 
BRANCH  24  26
ATOM     25  C   UNL     1       5.946   4.009  13.920  0.00  0.00    +0.000 C 
ATOM     26  C   UNL     1       5.532   5.051  14.951  0.00  0.00    +0.000 C 
ENDBRANCH  24  26
BRANCH  24  27
ATOM     27  C   UNL     1       7.035   5.403  17.033  0.00  0.00    +0.000 C 
ATOM     28  C   UNL     1       7.955   4.550  17.897  0.00  0.00    +0.000 C 
ENDBRANCH  24  27
ENDBRANCH  20  24
ENDBRANCH   1  22
BRANCH   6  29
ATOM     29  O   UNL     1       3.435   3.309  20.292  0.00  0.00    +0.000 OA
BRANCH  29  30
ATOM     30  C   UNL     1       2.610   2.256  19.817  0.00  0.00    +0.000 C 
BRANCH  30  31
ATOM     31  C   UNL     1       2.980   1.629  18.470  0.00  0.00    +0.000 C 
ATOM     32  O   UNL     1       4.019   1.012  18.261  0.00  0.00    +0.000 OA
BRANCH  31  33
ATOM     33  O   UNL     1       2.073   1.881  17.494  0.00  0.00    +0.000 OA
ATOM     34  H   UNL     1       1.236   1.395  17.651  0.00  0.00    +0.000 HD
ENDBRANCH  31  33
ENDBRANCH  30  31
ENDBRANCH  29  30
ENDBRANCH   6  29
TORSDOF 11
ENDMDL
MODEL 7
REMARK VINA RESULT:      -7.8      5.940      8.630
REMARK  Name = 
REMARK  13 active torsions:
REMARK  status: ('A' for Active; 'I' for Inactive)
REMARK    1  A    between atoms: C_1  and  C_2
REMARK    2  A    between atoms: C_2  and  C_3
REMARK    3  A    between atoms: C_3  and  C_4
REMARK    4  A    between atoms: C_3  and  C_6
REMARK    5  A    between atoms: C_4  and  C_5
REMARK    6  A    between atoms: N_8  and  C_9
REMARK    7  A    between atoms: C_11  and  N_12
REMARK    8  A    between atoms: N_15  and  C_16
REMARK    9  A    between atoms: C_16  and  C_17
REMARK   10  A    between atoms: C_25  and  O_26
REMARK   11  A    between atoms: O_26  and  C_27
REMARK   12  A    between atoms: C_27  and  C_28
REMARK   13  A    between atoms: C_28  and  O_30
REMARK                            x       y       z     vdW  Elec       q    Type
REMARK                         _______ _______ _______ _____ _____    ______ ____
ROOT
ATOM      1  C   UNL     1       3.006   6.032  18.456  0.00  0.00    +0.000 A 
ATOM      2  C   UNL     1       2.106   7.107  18.361  0.00  0.00    +0.000 A 
ATOM      3  C   UNL     1       2.475   8.322  17.769  0.00  0.00    +0.000 A 
ATOM      4  C   UNL     1       3.767   8.446  17.249  0.00  0.00    +0.000 A 
ATOM      5  C   UNL     1       4.667   7.378  17.333  0.00  0.00    +0.000 A 
ATOM      6  C   UNL     1       4.288   6.155  17.904  0.00  0.00    +0.000 A 
ENDROOT
BRANCH   3   7
ATOM      7  N   UNL     1       1.613   9.441  17.662  0.00  0.00    +0.000 N 
ATOM      8  C   UNL     1       0.977  10.080  18.704  0.00  0.00    +0.000 C 
ATOM      9  O   UNL     1       1.076   9.797  19.892  0.00  0.00    +0.000 OA
ATOM     10  N   UNL     1       0.162  11.115  18.281  0.00  0.00    +0.000 N 
ATOM     11  H   UNL     1       1.508   9.851  16.748  0.00  0.00    +0.000 HD
ATOM     12  H   UNL     1       0.372  11.565  17.405  0.00  0.00    +0.000 HD
BRANCH  10  13
ATOM     13  C   UNL     1      -0.462  11.921  19.309  0.00  0.00    +0.000 C 
BRANCH  13  14
ATOM     14  C   UNL     1      -1.964  11.957  19.224  0.00  0.00    +0.000 A 
ATOM     15  C   UNL     1      -2.723  12.587  20.221  0.00  0.00    +0.000 A 
ATOM     16  C   UNL     1      -4.111  12.689  20.099  0.00  0.00    +0.000 A 
ATOM     17  C   UNL     1      -4.755  12.154  18.985  0.00  0.00    +0.000 A 
ATOM     18  C   UNL     1      -4.014  11.512  17.995  0.00  0.00    +0.000 A 
ATOM     19  C   UNL     1      -2.626  11.411  18.114  0.00  0.00    +0.000 A 
ENDBRANCH  13  14
ENDBRANCH  10  13
ENDBRANCH   3   7
BRANCH   1  22
ATOM     20  C   UNL     1       1.712   3.985  18.426  0.00  0.00    +0.000 C 
ATOM     21  O   UNL     1       1.297   4.184  17.287  0.00  0.00    +0.000 OA
ATOM     22  N   UNL     1       2.550   4.863  19.118  0.00  0.00    +0.000 N 
ATOM     23  H   UNL     1       3.265   4.364  19.636  0.00  0.00    +0.000 HD
BRANCH  20  24
ATOM     24  C   UNL     1       1.338   2.725  19.229  0.00  0.00    +0.000 C 
BRANCH  24  26
ATOM     25  C   UNL     1       3.389   1.770  17.987  0.00  0.00    +0.000 C 
ATOM     26  C   UNL     1       2.546   1.764  19.255  0.00  0.00    +0.000 C 
ENDBRANCH  24  26
BRANCH  24  27
ATOM     27  C   UNL     1       0.750   3.044  20.616  0.00  0.00    +0.000 C 
ATOM     28  C   UNL     1       1.661   2.740  21.798  0.00  0.00    +0.000 C 
ENDBRANCH  24  27
ENDBRANCH  20  24
ENDBRANCH   1  22
BRANCH   6  29
ATOM     29  O   UNL     1       5.259   5.193  17.783  0.00  0.00    +0.000 OA
BRANCH  29  30
ATOM     30  C   UNL     1       5.590   4.730  16.483  0.00  0.00    +0.000 C 
BRANCH  30  31
ATOM     31  C   UNL     1       7.029   4.940  16.008  0.00  0.00    +0.000 C 
ATOM     32  O   UNL     1       7.332   5.444  14.931  0.00  0.00    +0.000 OA
BRANCH  31  33
ATOM     33  O   UNL     1       7.955   4.447  16.868  0.00  0.00    +0.000 OA
ATOM     34  H   UNL     1       8.301   3.583  16.562  0.00  0.00    +0.000 HD
ENDBRANCH  31  33
ENDBRANCH  30  31
ENDBRANCH  29  30
ENDBRANCH   6  29
TORSDOF 11
ENDMDL
MODEL 8
REMARK VINA RESULT:      -7.7      5.580      7.476
REMARK  Name = 
REMARK  13 active torsions:
REMARK  status: ('A' for Active; 'I' for Inactive)
REMARK    1  A    between atoms: C_1  and  C_2
REMARK    2  A    between atoms: C_2  and  C_3
REMARK    3  A    between atoms: C_3  and  C_4
REMARK    4  A    between atoms: C_3  and  C_6
REMARK    5  A    between atoms: C_4  and  C_5
REMARK    6  A    between atoms: N_8  and  C_9
REMARK    7  A    between atoms: C_11  and  N_12
REMARK    8  A    between atoms: N_15  and  C_16
REMARK    9  A    between atoms: C_16  and  C_17
REMARK   10  A    between atoms: C_25  and  O_26
REMARK   11  A    between atoms: O_26  and  C_27
REMARK   12  A    between atoms: C_27  and  C_28
REMARK   13  A    between atoms: C_28  and  O_30
REMARK                            x       y       z     vdW  Elec       q    Type
REMARK                         _______ _______ _______ _____ _____    ______ ____
ROOT
ATOM      1  C   UNL     1       2.833   5.151  18.469  0.00  0.00    +0.000 A 
ATOM      2  C   UNL     1       2.624   6.300  19.250  0.00  0.00    +0.000 A 
ATOM      3  C   UNL     1       1.681   6.322  20.286  0.00  0.00    +0.000 A 
ATOM      4  C   UNL     1       0.952   5.159  20.549  0.00  0.00    +0.000 A 
ATOM      5  C   UNL     1       1.159   4.008  19.782  0.00  0.00    +0.000 A 
ATOM      6  C   UNL     1       2.120   3.980  18.761  0.00  0.00    +0.000 A 
ENDROOT
BRANCH   3   7
ATOM      7  N   UNL     1       1.421   7.459  21.091  0.00  0.00    +0.000 N 
ATOM      8  C   UNL     1       1.270   8.753  20.646  0.00  0.00    +0.000 C 
ATOM      9  O   UNL     1       1.313   9.124  19.479  0.00  0.00    +0.000 OA
ATOM     10  N   UNL     1       1.068   9.654  21.676  0.00  0.00    +0.000 N 
ATOM     11  H   UNL     1       1.263   7.296  22.073  0.00  0.00    +0.000 HD
ATOM     12  H   UNL     1       0.670   9.319  22.538  0.00  0.00    +0.000 HD
BRANCH  10  13
ATOM     13  C   UNL     1       0.786  11.025  21.303  0.00  0.00    +0.000 C 
BRANCH  13  14
ATOM     14  C   UNL     1      -0.608  11.474  21.650  0.00  0.00    +0.000 A 
ATOM     15  C   UNL     1      -1.101  11.337  22.955  0.00  0.00    +0.000 A 
ATOM     16  C   UNL     1      -2.365  11.828  23.292  0.00  0.00    +0.000 A 
ATOM     17  C   UNL     1      -3.152  12.452  22.326  0.00  0.00    +0.000 A 
ATOM     18  C   UNL     1      -2.679  12.581  21.022  0.00  0.00    +0.000 A 
ATOM     19  C   UNL     1      -1.415  12.092  20.684  0.00  0.00    +0.000 A 
ENDBRANCH  13  14
ENDBRANCH  10  13
ENDBRANCH   3   7
BRANCH   1  22
ATOM     20  C   UNL     1       5.130   5.356  17.731  0.00  0.00    +0.000 C 
ATOM     21  O   UNL     1       5.564   5.425  18.879  0.00  0.00    +0.000 OA
ATOM     22  N   UNL     1       3.775   5.248  17.413  0.00  0.00    +0.000 N 
ATOM     23  H   UNL     1       3.623   4.598  16.649  0.00  0.00    +0.000 HD
BRANCH  20  24
ATOM     24  C   UNL     1       6.054   5.391  16.500  0.00  0.00    +0.000 C 
BRANCH  24  26
ATOM     25  C   UNL     1       7.455   7.416  17.275  0.00  0.00    +0.000 C 
ATOM     26  C   UNL     1       7.437   5.936  16.920  0.00  0.00    +0.000 C 
ENDBRANCH  24  26
BRANCH  24  27
ATOM     27  C   UNL     1       6.102   4.053  15.740  0.00  0.00    +0.000 C 
ATOM     28  C   UNL     1       5.853   4.143  14.240  0.00  0.00    +0.000 C 
ENDBRANCH  24  27
ENDBRANCH  20  24
ENDBRANCH   1  22
BRANCH   6  29
ATOM     29  O   UNL     1       2.265   2.734  18.207  0.00  0.00    +0.000 OA
BRANCH  29  30
ATOM     30  C   UNL     1       3.426   1.984  18.531  0.00  0.00    +0.000 C 
BRANCH  30  31
ATOM     31  C   UNL     1       4.109   2.290  19.866  0.00  0.00    +0.000 C 
ATOM     32  O   UNL     1       3.566   2.173  20.960  0.00  0.00    +0.000 OA
BRANCH  31  33
ATOM     33  O   UNL     1       5.367   2.779  19.725  0.00  0.00    +0.000 OA
ATOM     34  H   UNL     1       5.768   2.986  20.595  0.00  0.00    +0.000 HD
ENDBRANCH  31  33
ENDBRANCH  30  31
ENDBRANCH  29  30
ENDBRANCH   6  29
TORSDOF 11
ENDMDL
MODEL 9
REMARK VINA RESULT:      -7.7      5.488      7.688
REMARK  Name = 
REMARK  13 active torsions:
REMARK  status: ('A' for Active; 'I' for Inactive)
REMARK    1  A    between atoms: C_1  and  C_2
REMARK    2  A    between atoms: C_2  and  C_3
REMARK    3  A    between atoms: C_3  and  C_4
REMARK    4  A    between atoms: C_3  and  C_6
REMARK    5  A    between atoms: C_4  and  C_5
REMARK    6  A    between atoms: N_8  and  C_9
REMARK    7  A    between atoms: C_11  and  N_12
REMARK    8  A    between atoms: N_15  and  C_16
REMARK    9  A    between atoms: C_16  and  C_17
REMARK   10  A    between atoms: C_25  and  O_26
REMARK   11  A    between atoms: O_26  and  C_27
REMARK   12  A    between atoms: C_27  and  C_28
REMARK   13  A    between atoms: C_28  and  O_30
REMARK                            x       y       z     vdW  Elec       q    Type
REMARK                         _______ _______ _______ _____ _____    ______ ____
ROOT
ATOM      1  C   UNL     1       3.662   5.841  19.271  0.00  0.00    +0.000 A 
ATOM      2  C   UNL     1       3.058   7.107  19.349  0.00  0.00    +0.000 A 
ATOM      3  C   UNL     1       1.911   7.326  20.123  0.00  0.00    +0.000 A 
ATOM      4  C   UNL     1       1.377   6.253  20.842  0.00  0.00    +0.000 A 
ATOM      5  C   UNL     1       1.975   4.991  20.776  0.00  0.00    +0.000 A 
ATOM      6  C   UNL     1       3.138   4.779  20.020  0.00  0.00    +0.000 A 
ENDROOT
BRANCH   3   7
ATOM      7  N   UNL     1       1.255   8.578  20.223  0.00  0.00    +0.000 N 
ATOM      8  C   UNL     1       0.902   9.397  19.174  0.00  0.00    +0.000 C 
ATOM      9  O   UNL     1       1.077   9.162  17.984  0.00  0.00    +0.000 OA
ATOM     10  N   UNL     1       0.313  10.578  19.590  0.00  0.00    +0.000 N 
ATOM     11  H   UNL     1       0.956   8.865  21.141  0.00  0.00    +0.000 HD
ATOM     12  H   UNL     1      -0.153  10.594  20.482  0.00  0.00    +0.000 HD
BRANCH  10  13
ATOM     13  C   UNL     1      -0.196  11.457  18.558  0.00  0.00    +0.000 C 
BRANCH  13  14
ATOM     14  C   UNL     1      -1.644  11.223  18.221  0.00  0.00    +0.000 A 
ATOM     15  C   UNL     1      -2.661  11.872  18.936  0.00  0.00    +0.000 A 
ATOM     16  C   UNL     1      -3.999  11.715  18.568  0.00  0.00    +0.000 A 
ATOM     17  C   UNL     1      -4.336  10.900  17.489  0.00  0.00    +0.000 A 
ATOM     18  C   UNL     1      -3.336  10.238  16.780  0.00  0.00    +0.000 A 
ATOM     19  C   UNL     1      -1.997  10.395  17.145  0.00  0.00    +0.000 A 
ENDBRANCH  13  14
ENDBRANCH  10  13
ENDBRANCH   3   7
BRANCH   1  22
ATOM     20  C   UNL     1       4.623   5.112  17.171  0.00  0.00    +0.000 C 
ATOM     21  O   UNL     1       3.563   4.635  16.774  0.00  0.00    +0.000 OA
ATOM     22  N   UNL     1       4.791   5.713  18.421  0.00  0.00    +0.000 N 
ATOM     23  H   UNL     1       5.371   6.543  18.359  0.00  0.00    +0.000 HD
BRANCH  20  24
ATOM     24  C   UNL     1       5.906   5.089  16.319  0.00  0.00    +0.000 C 
BRANCH  24  26
ATOM     25  C   UNL     1       7.571   6.829  17.248  0.00  0.00    +0.000 C 
ATOM     26  C   UNL     1       7.121   5.374  17.227  0.00  0.00    +0.000 C 
ENDBRANCH  24  26
BRANCH  24  27
ATOM     27  C   UNL     1       6.038   3.819  15.459  0.00  0.00    +0.000 C 
ATOM     28  C   UNL     1       6.371   4.055  13.991  0.00  0.00    +0.000 C 
ENDBRANCH  24  27
ENDBRANCH  20  24
ENDBRANCH   1  22
BRANCH   6  29
ATOM     29  O   UNL     1       3.646   3.515  20.178  0.00  0.00    +0.000 OA
BRANCH  29  30
ATOM     30  C   UNL     1       2.817   2.410  19.854  0.00  0.00    +0.000 C 
BRANCH  30  31
ATOM     31  C   UNL     1       2.946   1.826  18.445  0.00  0.00    +0.000 C 
ATOM     32  O   UNL     1       3.819   1.035  18.104  0.00  0.00    +0.000 OA
BRANCH  31  33
ATOM     33  O   UNL     1       2.035   2.325  17.572  0.00  0.00    +0.000 OA
ATOM     34  H   UNL     1       2.194   1.997  16.663  0.00  0.00    +0.000 HD
ENDBRANCH  31  33
ENDBRANCH  30  31
ENDBRANCH  29  30
ENDBRANCH   6  29
TORSDOF 11
ENDMDL
