MODEL 1
REMARK VINA RESULT:      -7.8      0.000      0.000
REMARK  Name = 
REMARK  5 active torsions:
REMARK  status: ('A' for Active; 'I' for Inactive)
REMARK    1  A    between atoms: C_2  and  O_3
REMARK    2  A    between atoms: C_2  and  C_4
REMARK    3  A    between atoms: C_5  and  C_6
REMARK    4  A    between atoms: C_12  and  C_13
REMARK    5  A    between atoms: N_15  and  C_16
REMARK                            x       y       z     vdW  Elec       q    Type
REMARK                         _______ _______ _______ _____ _____    ______ ____
ROOT
ATOM      1  C   UNL     1       4.477   4.257  17.305  0.00  0.00    +0.000 A 
ATOM      2  C   UNL     1       4.108   3.233  18.191  0.00  0.00    +0.000 A 
ATOM      3  C   UNL     1       3.282   3.501  19.285  0.00  0.00    +0.000 A 
ATOM      4  C   UNL     1       2.814   4.795  19.496  0.00  0.00    +0.000 A 
ATOM      5  O   UNL     1       2.019   4.990  20.594  0.00  0.00    +0.000 OA
ATOM      6  C   UNL     1       1.594   6.269  20.843  0.00  0.00    +0.000 A 
ATOM      7  C   UNL     1       1.829   7.359  20.098  0.00  0.00    +0.000 A 
ATOM      8  C   UNL     1       2.628   7.181  18.867  0.00  0.00    +0.000 A 
ATOM      9  O   UNL     1       2.844   8.107  18.093  0.00  0.00    +0.000 OA
ATOM     10  C   UNL     1       3.152   5.819  18.616  0.00  0.00    +0.000 A 
ATOM     11  C   UNL     1       3.975   5.552  17.515  0.00  0.00    +0.000 A 
ENDROOT
BRANCH   7  12
ATOM     12  C   UNL     1       1.261   8.641  20.600  0.00  0.00    +0.000 C 
ATOM     13  O   UNL     1       1.114   8.789  21.814  0.00  0.00    +0.000 OA
ATOM     14  N   UNL     1       0.899   9.564  19.640  0.00  0.00    +0.000 N 
ATOM     15  H   UNL     1       0.953   9.272  18.664  0.00  0.00    +0.000 HD
BRANCH  14  16
ATOM     16  C   UNL     1       0.361  10.846  19.902  0.00  0.00    +0.000 A 
ATOM     17  C   UNL     1       1.136  11.922  20.346  0.00  0.00    +0.000 A 
ATOM     18  C   UNL     1       0.556  13.160  20.633  0.00  0.00    +0.000 A 
ATOM     19  C   UNL     1      -0.813  13.338  20.473  0.00  0.00    +0.000 A 
ATOM     20  C   UNL     1      -1.596  12.283  20.005  0.00  0.00    +0.000 A 
ATOM     21  C   UNL     1      -1.010  11.046  19.706  0.00  0.00    +0.000 A 
ENDBRANCH  14  16
ENDBRANCH   7  12
BRANCH   1  23
ATOM     22  C   UNL     1       5.686   4.798  15.213  0.00  0.00    +0.000 C 
ATOM     23  C   UNL     1       5.350   3.917  16.169  0.00  0.00    +0.000 C 
BRANCH  22  25
ATOM     24  O   UNL     1       7.450   5.372  13.766  0.00  0.00    +0.000 OA
ATOM     25  C   UNL     1       6.594   4.559  14.075  0.00  0.00    +0.000 C 
BRANCH  25  26
ATOM     26  O   UNL     1       6.388   3.416  13.397  0.00  0.00    +0.000 OA
ATOM     27  H   UNL     1       6.912   2.657  13.701  0.00  0.00    +0.000 HD
ENDBRANCH  25  26
ENDBRANCH  22  25
ENDBRANCH   1  23
TORSDOF 5
ENDMDL
MODEL 2
REMARK VINA RESULT:      -7.6      2.649      8.905
REMARK  Name = 
REMARK  5 active torsions:
REMARK  status: ('A' for Active; 'I' for Inactive)
REMARK    1  A    between atoms: C_2  and  O_3
REMARK    2  A    between atoms: C_2  and  C_4
REMARK    3  A    between atoms: C_5  and  C_6
REMARK    4  A    between atoms: C_12  and  C_13
REMARK    5  A    between atoms: N_15  and  C_16
REMARK                            x       y       z     vdW  Elec       q    Type
REMARK                         _______ _______ _______ _____ _____    ______ ____
ROOT
ATOM      1  C   UNL     1       1.685   7.452  20.398  0.00  0.00    +0.000 A 
ATOM      2  C   UNL     1       1.395   6.273  21.104  0.00  0.00    +0.000 A 
ATOM      3  C   UNL     1       2.013   5.069  20.762  0.00  0.00    +0.000 A 
ATOM      4  C   UNL     1       2.930   5.035  19.716  0.00  0.00    +0.000 A 
ATOM      5  O   UNL     1       3.489   3.820  19.425  0.00  0.00    +0.000 OA
ATOM      6  C   UNL     1       4.354   3.762  18.364  0.00  0.00    +0.000 A 
ATOM      7  C   UNL     1       4.761   4.784  17.596  0.00  0.00    +0.000 A 
ATOM      8  C   UNL     1       4.234   6.127  17.917  0.00  0.00    +0.000 A 
ATOM      9  O   UNL     1       4.594   7.129  17.308  0.00  0.00    +0.000 OA
ATOM     10  C   UNL     1       3.247   6.198  19.018  0.00  0.00    +0.000 A 
ATOM     11  C   UNL     1       2.634   7.409  19.363  0.00  0.00    +0.000 A 
ENDROOT
BRANCH   7  12
ATOM     12  C   UNL     1       5.702   4.449  16.490  0.00  0.00    +0.000 C 
ATOM     13  O   UNL     1       6.817   4.010  16.774  0.00  0.00    +0.000 OA
ATOM     14  N   UNL     1       5.252   4.702  15.211  0.00  0.00    +0.000 N 
ATOM     15  H   UNL     1       4.359   5.185  15.115  0.00  0.00    +0.000 HD
BRANCH  14  16
ATOM     16  C   UNL     1       5.976   4.441  14.024  0.00  0.00    +0.000 A 
ATOM     17  C   UNL     1       7.172   5.091  13.703  0.00  0.00    +0.000 A 
ATOM     18  C   UNL     1       7.834   4.833  12.500  0.00  0.00    +0.000 A 
ATOM     19  C   UNL     1       7.305   3.914  11.601  0.00  0.00    +0.000 A 
ATOM     20  C   UNL     1       6.128   3.238  11.918  0.00  0.00    +0.000 A 
ATOM     21  C   UNL     1       5.473   3.488  13.131  0.00  0.00    +0.000 A 
ENDBRANCH  14  16
ENDBRANCH   7  12
BRANCH   1  23
ATOM     22  C   UNL     1       0.665   8.963  22.074  0.00  0.00    +0.000 C 
ATOM     23  C   UNL     1       1.004   8.694  20.803  0.00  0.00    +0.000 C 
BRANCH  22  25
ATOM     24  O   UNL     1      -0.717  10.183  23.535  0.00  0.00    +0.000 OA
ATOM     25  C   UNL     1       0.034  10.200  22.573  0.00  0.00    +0.000 C 
BRANCH  25  26
ATOM     26  O   UNL     1       0.318  11.318  21.882  0.00  0.00    +0.000 OA
ATOM     27  H   UNL     1       0.292  11.224  20.916  0.00  0.00    +0.000 HD
ENDBRANCH  25  26
ENDBRANCH  22  25
ENDBRANCH   1  23
TORSDOF 5
ENDMDL
MODEL 3
REMARK VINA RESULT:      -7.6      1.275      1.480
REMARK  Name = 
REMARK  5 active torsions:
REMARK  status: ('A' for Active; 'I' for Inactive)
REMARK    1  A    between atoms: C_2  and  O_3
REMARK    2  A    between atoms: C_2  and  C_4
REMARK    3  A    between atoms: C_5  and  C_6
REMARK    4  A    between atoms: C_12  and  C_13
REMARK    5  A    between atoms: N_15  and  C_16
REMARK                            x       y       z     vdW  Elec       q    Type
REMARK                         _______ _______ _______ _____ _____    ______ ____
ROOT
ATOM      1  C   UNL     1       4.103   5.102  17.485  0.00  0.00    +0.000 A 
ATOM      2  C   UNL     1       3.865   4.299  18.612  0.00  0.00    +0.000 A 
ATOM      3  C   UNL     1       3.104   4.778  19.680  0.00  0.00    +0.000 A 
ATOM      4  C   UNL     1       2.569   6.061  19.626  0.00  0.00    +0.000 A 
ATOM      5  O   UNL     1       1.844   6.472  20.712  0.00  0.00    +0.000 OA
ATOM      6  C   UNL     1       1.355   7.752  20.695  0.00  0.00    +0.000 A 
ATOM      7  C   UNL     1       1.464   8.647  19.701  0.00  0.00    +0.000 A 
ATOM      8  C   UNL     1       2.183   8.222  18.481  0.00  0.00    +0.000 A 
ATOM      9  O   UNL     1       2.282   8.949  17.499  0.00  0.00    +0.000 OA
ATOM     10  C   UNL     1       2.775   6.865  18.507  0.00  0.00    +0.000 A 
ATOM     11  C   UNL     1       3.533   6.385  17.432  0.00  0.00    +0.000 A 
ENDROOT
BRANCH   7  12
ATOM     12  C   UNL     1       0.851   9.983  19.941  0.00  0.00    +0.000 C 
ATOM     13  O   UNL     1      -0.164  10.053  20.635  0.00  0.00    +0.000 OA
ATOM     14  N   UNL     1       1.461  11.053  19.318  0.00  0.00    +0.000 N 
ATOM     15  H   UNL     1       2.219  10.847  18.667  0.00  0.00    +0.000 HD
BRANCH  14  16
ATOM     16  C   UNL     1       1.052  12.403  19.428  0.00  0.00    +0.000 A 
ATOM     17  C   UNL     1       1.514  13.258  20.434  0.00  0.00    +0.000 A 
ATOM     18  C   UNL     1       1.052  14.574  20.530  0.00  0.00    +0.000 A 
ATOM     19  C   UNL     1       0.121  15.051  19.614  0.00  0.00    +0.000 A 
ATOM     20  C   UNL     1      -0.328  14.219  18.590  0.00  0.00    +0.000 A 
ATOM     21  C   UNL     1       0.146  12.904  18.487  0.00  0.00    +0.000 A 
ENDBRANCH  14  16
ENDBRANCH   7  12
BRANCH   1  23
ATOM     22  C   UNL     1       5.848   5.253  15.735  0.00  0.00    +0.000 C 
ATOM     23  C   UNL     1       4.912   4.545  16.388  0.00  0.00    +0.000 C 
BRANCH  22  25
ATOM     24  O   UNL     1       7.690   5.420  14.281  0.00  0.00    +0.000 OA
ATOM     25  C   UNL     1       6.738   4.761  14.666  0.00  0.00    +0.000 C 
BRANCH  25  26
ATOM     26  O   UNL     1       6.408   3.570  14.137  0.00  0.00    +0.000 OA
ATOM     27  H   UNL     1       6.063   2.918  14.770  0.00  0.00    +0.000 HD
ENDBRANCH  25  26
ENDBRANCH  22  25
ENDBRANCH   1  23
TORSDOF 5
ENDMDL
MODEL 4
REMARK VINA RESULT:      -7.6      3.482      5.433
REMARK  Name = 
REMARK  5 active torsions:
REMARK  status: ('A' for Active; 'I' for Inactive)
REMARK    1  A    between atoms: C_2  and  O_3
REMARK    2  A    between atoms: C_2  and  C_4
REMARK    3  A    between atoms: C_5  and  C_6
REMARK    4  A    between atoms: C_12  and  C_13
REMARK    5  A    between atoms: N_15  and  C_16
REMARK                            x       y       z     vdW  Elec       q    Type
REMARK                         _______ _______ _______ _____ _____    ______ ____
ROOT
ATOM      1  C   UNL     1       2.322   6.531  19.681  0.00  0.00    +0.000 A 
ATOM      2  C   UNL     1       2.771   7.030  18.448  0.00  0.00    +0.000 A 
ATOM      3  C   UNL     1       2.423   8.316  18.031  0.00  0.00    +0.000 A 
ATOM      4  C   UNL     1       1.630   9.116  18.847  0.00  0.00    +0.000 A 
ATOM      5  O   UNL     1       1.317  10.362  18.372  0.00  0.00    +0.000 OA
ATOM      6  C   UNL     1       0.494  11.141  19.142  0.00  0.00    +0.000 A 
ATOM      7  C   UNL     1      -0.009  10.840  20.350  0.00  0.00    +0.000 A 
ATOM      8  C   UNL     1       0.359   9.531  20.930  0.00  0.00    +0.000 A 
ATOM      9  O   UNL     1      -0.004   9.193  22.052  0.00  0.00    +0.000 OA
ATOM     10  C   UNL     1       1.194   8.648  20.084  0.00  0.00    +0.000 A 
ATOM     11  C   UNL     1       1.545   7.361  20.508  0.00  0.00    +0.000 A 
ENDROOT
BRANCH   7  12
ATOM     12  C   UNL     1      -0.894  11.862  20.974  0.00  0.00    +0.000 C 
ATOM     13  O   UNL     1      -1.494  12.650  20.243  0.00  0.00    +0.000 OA
ATOM     14  N   UNL     1      -0.939  11.868  22.352  0.00  0.00    +0.000 N 
ATOM     15  H   UNL     1      -0.297  11.246  22.845  0.00  0.00    +0.000 HD
BRANCH  14  16
ATOM     16  C   UNL     1      -1.727  12.740  23.140  0.00  0.00    +0.000 A 
ATOM     17  C   UNL     1      -1.261  13.974  23.606  0.00  0.00    +0.000 A 
ATOM     18  C   UNL     1      -2.059  14.786  24.417  0.00  0.00    +0.000 A 
ATOM     19  C   UNL     1      -3.338  14.372  24.769  0.00  0.00    +0.000 A 
ATOM     20  C   UNL     1      -3.826  13.157  24.291  0.00  0.00    +0.000 A 
ATOM     21  C   UNL     1      -3.030  12.349  23.467  0.00  0.00    +0.000 A 
ENDBRANCH  14  16
ENDBRANCH   7  12
BRANCH   1  23
ATOM     22  C   UNL     1       2.058   4.446  20.990  0.00  0.00    +0.000 C 
ATOM     23  C   UNL     1       2.719   5.168  20.070  0.00  0.00    +0.000 C 
BRANCH  22  25
ATOM     24  O   UNL     1       1.655   2.478  22.214  0.00  0.00    +0.000 OA
ATOM     25  C   UNL     1       2.353   3.060  21.399  0.00  0.00    +0.000 C 
BRANCH  25  26
ATOM     26  O   UNL     1       3.445   2.509  20.842  0.00  0.00    +0.000 OA
ATOM     27  H   UNL     1       3.509   1.543  20.924  0.00  0.00    +0.000 HD
ENDBRANCH  25  26
ENDBRANCH  22  25
ENDBRANCH   1  23
TORSDOF 5
ENDMDL
MODEL 5
REMARK VINA RESULT:      -7.6      2.939      4.716
REMARK  Name = 
REMARK  5 active torsions:
REMARK  status: ('A' for Active; 'I' for Inactive)
REMARK    1  A    between atoms: C_2  and  O_3
REMARK    2  A    between atoms: C_2  and  C_4
REMARK    3  A    between atoms: C_5  and  C_6
REMARK    4  A    between atoms: C_12  and  C_13
REMARK    5  A    between atoms: N_15  and  C_16
REMARK                            x       y       z     vdW  Elec       q    Type
REMARK                         _______ _______ _______ _____ _____    ______ ____
ROOT
ATOM      1  C   UNL     1       2.717   6.392  19.412  0.00  0.00    +0.000 A 
ATOM      2  C   UNL     1       3.121   6.945  18.186  0.00  0.00    +0.000 A 
ATOM      3  C   UNL     1       2.667   8.205  17.790  0.00  0.00    +0.000 A 
ATOM      4  C   UNL     1       1.813   8.924  18.621  0.00  0.00    +0.000 A 
ATOM      5  O   UNL     1       1.397  10.147  18.166  0.00  0.00    +0.000 OA
ATOM      6  C   UNL     1       0.515  10.843  18.950  0.00  0.00    +0.000 A 
ATOM      7  C   UNL     1       0.042  10.482  20.153  0.00  0.00    +0.000 A 
ATOM      8  C   UNL     1       0.518   9.199  20.712  0.00  0.00    +0.000 A 
ATOM      9  O   UNL     1       0.187   8.815  21.828  0.00  0.00    +0.000 OA
ATOM     10  C   UNL     1       1.420   8.402  19.850  0.00  0.00    +0.000 A 
ATOM     11  C   UNL     1       1.878   7.141  20.253  0.00  0.00    +0.000 A 
ENDROOT
BRANCH   7  12
ATOM     12  C   UNL     1      -0.923  11.418  20.794  0.00  0.00    +0.000 C 
ATOM     13  O   UNL     1      -1.740  12.004  20.084  0.00  0.00    +0.000 OA
ATOM     14  N   UNL     1      -0.792  11.586  22.157  0.00  0.00    +0.000 N 
ATOM     15  H   UNL     1       0.006  11.141  22.611  0.00  0.00    +0.000 HD
BRANCH  14  16
ATOM     16  C   UNL     1      -1.615  12.411  22.961  0.00  0.00    +0.000 A 
ATOM     17  C   UNL     1      -2.890  12.028  23.389  0.00  0.00    +0.000 A 
ATOM     18  C   UNL     1      -3.686  12.890  24.147  0.00  0.00    +0.000 A 
ATOM     19  C   UNL     1      -3.211  14.151  24.490  0.00  0.00    +0.000 A 
ATOM     20  C   UNL     1      -1.931  14.537  24.094  0.00  0.00    +0.000 A 
ATOM     21  C   UNL     1      -1.129  13.665  23.345  0.00  0.00    +0.000 A 
ENDBRANCH  14  16
ENDBRANCH   7  12
BRANCH   1  23
ATOM     22  C   UNL     1       3.442   4.085  18.881  0.00  0.00    +0.000 C 
ATOM     23  C   UNL     1       3.227   5.060  19.779  0.00  0.00    +0.000 C 
BRANCH  22  25
ATOM     24  O   UNL     1       3.360   1.733  18.915  0.00  0.00    +0.000 OA
ATOM     25  C   UNL     1       3.999   2.746  19.152  0.00  0.00    +0.000 C 
BRANCH  25  26
ATOM     26  O   UNL     1       5.227   2.727  19.700  0.00  0.00    +0.000 OA
ATOM     27  H   UNL     1       5.601   3.599  19.905  0.00  0.00    +0.000 HD
ENDBRANCH  25  26
ENDBRANCH  22  25
ENDBRANCH   1  23
TORSDOF 5
ENDMDL
MODEL 6
REMARK VINA RESULT:      -7.6      1.079      1.605
REMARK  Name = 
REMARK  5 active torsions:
REMARK  status: ('A' for Active; 'I' for Inactive)
REMARK    1  A    between atoms: C_2  and  O_3
REMARK    2  A    between atoms: C_2  and  C_4
REMARK    3  A    between atoms: C_5  and  C_6
REMARK    4  A    between atoms: C_12  and  C_13
REMARK    5  A    between atoms: N_15  and  C_16
REMARK                            x       y       z     vdW  Elec       q    Type
REMARK                         _______ _______ _______ _____ _____    ______ ____
ROOT
ATOM      1  C   UNL     1       5.377   4.769  16.147  0.00  0.00    +0.000 A 
ATOM      2  C   UNL     1       5.242   3.685  17.028  0.00  0.00    +0.000 A 
ATOM      3  C   UNL     1       4.445   3.791  18.169  0.00  0.00    +0.000 A 
ATOM      4  C   UNL     1       3.771   4.979  18.434  0.00  0.00    +0.000 A 
ATOM      5  O   UNL     1       3.017   5.019  19.576  0.00  0.00    +0.000 OA
ATOM      6  C   UNL     1       2.390   6.200  19.876  0.00  0.00    +0.000 A 
ATOM      7  C   UNL     1       2.389   7.324  19.143  0.00  0.00    +0.000 A 
ATOM      8  C   UNL     1       3.136   7.304  17.868  0.00  0.00    +0.000 A 
ATOM      9  O   UNL     1       3.144   8.263  17.104  0.00  0.00    +0.000 OA
ATOM     10  C   UNL     1       3.875   6.058  17.559  0.00  0.00    +0.000 A 
ATOM     11  C   UNL     1       4.668   5.953  16.411  0.00  0.00    +0.000 A 
ENDROOT
BRANCH   7  12
ATOM     12  C   UNL     1       1.635   8.480  19.703  0.00  0.00    +0.000 C 
ATOM     13  O   UNL     1       1.464   8.541  20.921  0.00  0.00    +0.000 OA
ATOM     14  N   UNL     1       1.144   9.387  18.787  0.00  0.00    +0.000 N 
ATOM     15  H   UNL     1       1.244   9.156  17.798  0.00  0.00    +0.000 HD
BRANCH  14  16
ATOM     16  C   UNL     1       0.420  10.560  19.107  0.00  0.00    +0.000 A 
ATOM     17  C   UNL     1      -0.968  10.575  19.276  0.00  0.00    +0.000 A 
ATOM     18  C   UNL     1      -1.649  11.765  19.550  0.00  0.00    +0.000 A 
ATOM     19  C   UNL     1      -0.943  12.957  19.662  0.00  0.00    +0.000 A 
ATOM     20  C   UNL     1       0.444  12.954  19.522  0.00  0.00    +0.000 A 
ATOM     21  C   UNL     1       1.126  11.758  19.260  0.00  0.00    +0.000 A 
ENDBRANCH  14  16
ENDBRANCH   7  12
BRANCH   1  23
ATOM     22  C   UNL     1       5.838   3.929  13.863  0.00  0.00    +0.000 C 
ATOM     23  C   UNL     1       6.230   4.601  14.958  0.00  0.00    +0.000 C 
BRANCH  22  25
ATOM     24  O   UNL     1       7.318   4.651  12.182  0.00  0.00    +0.000 OA
ATOM     25  C   UNL     1       6.604   3.760  12.614  0.00  0.00    +0.000 C 
BRANCH  25  26
ATOM     26  O   UNL     1       6.434   2.585  11.982  0.00  0.00    +0.000 OA
ATOM     27  H   UNL     1       6.672   2.584  11.041  0.00  0.00    +0.000 HD
ENDBRANCH  25  26
ENDBRANCH  22  25
ENDBRANCH   1  23
TORSDOF 5
ENDMDL
MODEL 7
REMARK VINA RESULT:      -7.6      0.690      1.128
REMARK  Name = 
REMARK  5 active torsions:
REMARK  status: ('A' for Active; 'I' for Inactive)
REMARK    1  A    between atoms: C_2  and  O_3
REMARK    2  A    between atoms: C_2  and  C_4
REMARK    3  A    between atoms: C_5  and  C_6
REMARK    4  A    between atoms: C_12  and  C_13
REMARK    5  A    between atoms: N_15  and  C_16
REMARK                            x       y       z     vdW  Elec       q    Type
REMARK                         _______ _______ _______ _____ _____    ______ ____
ROOT
ATOM      1  C   UNL     1       4.315   4.656  17.317  0.00  0.00    +0.000 A 
ATOM      2  C   UNL     1       4.025   3.712  18.315  0.00  0.00    +0.000 A 
ATOM      3  C   UNL     1       3.235   4.057  19.413  0.00  0.00    +0.000 A 
ATOM      4  C   UNL     1       2.724   5.347  19.519  0.00  0.00    +0.000 A 
ATOM      5  O   UNL     1       1.968   5.620  20.627  0.00  0.00    +0.000 OA
ATOM      6  C   UNL     1       1.501   6.901  20.770  0.00  0.00    +0.000 A 
ATOM      7  C   UNL     1       1.659   7.920  19.912  0.00  0.00    +0.000 A 
ATOM      8  C   UNL     1       2.413   7.650  18.669  0.00  0.00    +0.000 A 
ATOM      9  O   UNL     1       2.558   8.503  17.800  0.00  0.00    +0.000 OA
ATOM     10  C   UNL     1       2.981   6.291  18.528  0.00  0.00    +0.000 A 
ATOM     11  C   UNL     1       3.768   5.946  17.422  0.00  0.00    +0.000 A 
ENDROOT
BRANCH   7  12
ATOM     12  C   UNL     1       1.060   9.224  20.313  0.00  0.00    +0.000 C 
ATOM     13  O   UNL     1       0.847   9.435  21.507  0.00  0.00    +0.000 OA
ATOM     14  N   UNL     1       0.749  10.091  19.286  0.00  0.00    +0.000 N 
ATOM     15  H   UNL     1       0.858   9.747  18.332  0.00  0.00    +0.000 HD
BRANCH  14  16
ATOM     16  C   UNL     1       0.193  11.382  19.448  0.00  0.00    +0.000 A 
ATOM     17  C   UNL     1      -1.134  11.596  19.838  0.00  0.00    +0.000 A 
ATOM     18  C   UNL     1      -1.655  12.888  19.945  0.00  0.00    +0.000 A 
ATOM     19  C   UNL     1      -0.849  13.986  19.666  0.00  0.00    +0.000 A 
ATOM     20  C   UNL     1       0.482  13.790  19.302  0.00  0.00    +0.000 A 
ATOM     21  C   UNL     1       1.007  12.494  19.207  0.00  0.00    +0.000 A 
ENDBRANCH  14  16
ENDBRANCH   7  12
BRANCH   1  23
ATOM     22  C   UNL     1       5.919   5.090  15.482  0.00  0.00    +0.000 C 
ATOM     23  C   UNL     1       5.152   4.238  16.180  0.00  0.00    +0.000 C 
BRANCH  22  25
ATOM     24  O   UNL     1       7.825   5.412  14.141  0.00  0.00    +0.000 OA
ATOM     25  C   UNL     1       6.826   4.749  14.370  0.00  0.00    +0.000 C 
BRANCH  25  26
ATOM     26  O   UNL     1       6.459   3.693  13.623  0.00  0.00    +0.000 OA
ATOM     27  H   UNL     1       6.870   3.646  12.744  0.00  0.00    +0.000 HD
ENDBRANCH  25  26
ENDBRANCH  22  25
ENDBRANCH   1  23
TORSDOF 5
ENDMDL
MODEL 8
REMARK VINA RESULT:      -7.5      1.031      1.112
REMARK  Name = 
REMARK  5 active torsions:
REMARK  status: ('A' for Active; 'I' for Inactive)
REMARK    1  A    between atoms: C_2  and  O_3
REMARK    2  A    between atoms: C_2  and  C_4
REMARK    3  A    between atoms: C_5  and  C_6
REMARK    4  A    between atoms: C_12  and  C_13
REMARK    5  A    between atoms: N_15  and  C_16
REMARK                            x       y       z     vdW  Elec       q    Type
REMARK                         _______ _______ _______ _____ _____    ______ ____
ROOT
ATOM      1  C   UNL     1       4.012   4.348  17.183  0.00  0.00    +0.000 A 
ATOM      2  C   UNL     1       3.568   3.253  17.941  0.00  0.00    +0.000 A 
ATOM      3  C   UNL     1       2.788   3.448  19.082  0.00  0.00    +0.000 A 
ATOM      4  C   UNL     1       2.440   4.738  19.471  0.00  0.00    +0.000 A 
ATOM      5  O   UNL     1       1.685   4.857  20.606  0.00  0.00    +0.000 OA
ATOM      6  C   UNL     1       1.379   6.124  21.029  0.00  0.00    +0.000 A 
ATOM      7  C   UNL     1       1.697   7.278  20.422  0.00  0.00    +0.000 A 
ATOM      8  C   UNL     1       2.455   7.193  19.156  0.00  0.00    +0.000 A 
ATOM      9  O   UNL     1       2.740   8.190  18.501  0.00  0.00    +0.000 OA
ATOM     10  C   UNL     1       2.852   5.835  18.719  0.00  0.00    +0.000 A 
ATOM     11  C   UNL     1       3.629   5.644  17.570  0.00  0.00    +0.000 A 
ENDROOT
BRANCH   7  12
ATOM     12  C   UNL     1       1.253   8.528  21.100  0.00  0.00    +0.000 C 
ATOM     13  O   UNL     1       1.798   8.854  22.155  0.00  0.00    +0.000 OA
ATOM     14  N   UNL     1       0.217   9.212  20.498  0.00  0.00    +0.000 N 
ATOM     15  H   UNL     1      -0.233   8.770  19.696  0.00  0.00    +0.000 HD
BRANCH  14  16
ATOM     16  C   UNL     1      -0.341  10.425  20.965  0.00  0.00    +0.000 A 
ATOM     17  C   UNL     1      -0.505  11.551  20.150  0.00  0.00    +0.000 A 
ATOM     18  C   UNL     1      -1.022  12.743  20.663  0.00  0.00    +0.000 A 
ATOM     19  C   UNL     1      -1.386  12.822  22.002  0.00  0.00    +0.000 A 
ATOM     20  C   UNL     1      -1.255  11.700  22.820  0.00  0.00    +0.000 A 
ATOM     21  C   UNL     1      -0.748  10.501  22.301  0.00  0.00    +0.000 A 
ENDBRANCH  14  16
ENDBRANCH   7  12
BRANCH   1  23
ATOM     22  C   UNL     1       5.843   4.880  15.603  0.00  0.00    +0.000 C 
ATOM     23  C   UNL     1       4.831   4.085  15.987  0.00  0.00    +0.000 C 
BRANCH  22  25
ATOM     24  O   UNL     1       7.690   5.406  14.244  0.00  0.00    +0.000 OA
ATOM     25  C   UNL     1       6.745   4.663  14.456  0.00  0.00    +0.000 C 
BRANCH  25  26
ATOM     26  O   UNL     1       6.436   3.624  13.661  0.00  0.00    +0.000 OA
ATOM     27  H   UNL     1       5.528   3.624  13.316  0.00  0.00    +0.000 HD
ENDBRANCH  25  26
ENDBRANCH  22  25
ENDBRANCH   1  23
TORSDOF 5
ENDMDL
MODEL 9
REMARK VINA RESULT:      -7.5      3.513      5.441
REMARK  Name = 
REMARK  5 active torsions:
REMARK  status: ('A' for Active; 'I' for Inactive)
REMARK    1  A    between atoms: C_2  and  O_3
REMARK    2  A    between atoms: C_2  and  C_4
REMARK    3  A    between atoms: C_5  and  C_6
REMARK    4  A    between atoms: C_12  and  C_13
REMARK    5  A    between atoms: N_15  and  C_16
REMARK                            x       y       z     vdW  Elec       q    Type
REMARK                         _______ _______ _______ _____ _____    ______ ____
ROOT
ATOM      1  C   UNL     1       2.329   6.313  19.671  0.00  0.00    +0.000 A 
ATOM      2  C   UNL     1       2.863   6.826  18.478  0.00  0.00    +0.000 A 
ATOM      3  C   UNL     1       2.591   8.137  18.083  0.00  0.00    +0.000 A 
ATOM      4  C   UNL     1       1.788   8.947  18.880  0.00  0.00    +0.000 A 
ATOM      5  O   UNL     1       1.552  10.217  18.426  0.00  0.00    +0.000 OA
ATOM      6  C   UNL     1       0.721  11.008  19.175  0.00  0.00    +0.000 A 
ATOM      7  C   UNL     1       0.143  10.695  20.345  0.00  0.00    +0.000 A 
ATOM      8  C   UNL     1       0.425   9.356  20.905  0.00  0.00    +0.000 A 
ATOM      9  O   UNL     1      -0.011   9.003  21.995  0.00  0.00    +0.000 OA
ATOM     10  C   UNL     1       1.268   8.463  20.077  0.00  0.00    +0.000 A 
ATOM     11  C   UNL     1       1.544   7.151  20.480  0.00  0.00    +0.000 A 
ENDROOT
BRANCH   7  12
ATOM     12  C   UNL     1      -0.733  11.736  20.951  0.00  0.00    +0.000 C 
ATOM     13  O   UNL     1      -1.199  12.614  20.225  0.00  0.00    +0.000 OA
ATOM     14  N   UNL     1      -0.922  11.652  22.316  0.00  0.00    +0.000 N 
ATOM     15  H   UNL     1      -0.378  10.953  22.822  0.00  0.00    +0.000 HD
BRANCH  14  16
ATOM     16  C   UNL     1      -1.728  12.526  23.084  0.00  0.00    +0.000 A 
ATOM     17  C   UNL     1      -3.040  12.218  23.459  0.00  0.00    +0.000 A 
ATOM     18  C   UNL     1      -3.815  13.128  24.183  0.00  0.00    +0.000 A 
ATOM     19  C   UNL     1      -3.282  14.360  24.543  0.00  0.00    +0.000 A 
ATOM     20  C   UNL     1      -1.967  14.670  24.200  0.00  0.00    +0.000 A 
ATOM     21  C   UNL     1      -1.187  13.752  23.486  0.00  0.00    +0.000 A 
ENDBRANCH  14  16
ENDBRANCH   7  12
BRANCH   1  23
ATOM     22  C   UNL     1       2.241   4.357  21.187  0.00  0.00    +0.000 C 
ATOM     23  C   UNL     1       2.649   4.923  20.040  0.00  0.00    +0.000 C 
BRANCH  22  25
ATOM     24  O   UNL     1       3.537   2.405  21.409  0.00  0.00    +0.000 OA
ATOM     25  C   UNL     1       2.469   2.962  21.609  0.00  0.00    +0.000 C 
BRANCH  25  26
ATOM     26  O   UNL     1       1.422   2.352  22.192  0.00  0.00    +0.000 OA
ATOM     27  H   UNL     1       0.882   2.918  22.767  0.00  0.00    +0.000 HD
ENDBRANCH  25  26
ENDBRANCH  22  25
ENDBRANCH   1  23
TORSDOF 5
ENDMDL
