MODEL 1
REMARK VINA RESULT:      -7.5      0.000      0.000
REMARK  Name = 
REMARK  13 active torsions:
REMARK  status: ('A' for Active; 'I' for Inactive)
REMARK    1  A    between atoms: C_1  and  O_2
REMARK    2  A    between atoms: O_2  and  C_3
REMARK    3  A    between atoms: C_6  and  N_7
REMARK    4  A    between atoms: N_7  and  C_8
REMARK    5  A    between atoms: C_10  and  O_11
REMARK    6  A    between atoms: O_11  and  C_12
REMARK    7  A    between atoms: C_13  and  O_14
REMARK    8  A    between atoms: O_14  and  C_15
REMARK    9  A    between atoms: C_16  and  O_17
REMARK   10  A    between atoms: O_17  and  C_18
REMARK   11  A    between atoms: C_20  and  C_21
REMARK   12  A    between atoms: C_27  and  C_28
REMARK   13  A    between atoms: C_29  and  C_30
REMARK                            x       y       z     vdW  Elec       q    Type
REMARK                         _______ _______ _______ _____ _____    ______ ____
ROOT
ATOM      1  C   UNL     1       0.277  10.981  19.624  0.00  0.00    +0.000 A 
ATOM      2  C   UNL     1      -0.976  11.627  19.649  0.00  0.00    +0.000 A 
ATOM      3  C   UNL     1      -2.023  11.313  18.734  0.00  0.00    +0.000 A 
ATOM      4  C   UNL     1      -3.300  11.975  18.631  0.00  0.00    +0.000 A 
ATOM      5  C   UNL     1      -4.188  11.565  17.614  0.00  0.00    +0.000 A 
ATOM      6  C   UNL     1      -3.824  10.489  16.824  0.00  0.00    +0.000 A 
ATOM      7  N   UNL     1      -2.652   9.833  16.926  0.00  0.00    +0.000 NA
ATOM      8  C   UNL     1      -1.771  10.253  17.835  0.00  0.00    +0.000 A 
ATOM      9  C   UNL     1      -0.550   9.597  17.839  0.00  0.00    +0.000 A 
ATOM     10  C   UNL     1       0.495   9.948  18.707  0.00  0.00    +0.000 A 
ENDROOT
BRANCH   1  12
ATOM     11  C   UNL     1       1.125  12.873  20.803  0.00  0.00    +0.000 C 
ATOM     12  O   UNL     1       1.156  11.472  20.556  0.00  0.00    +0.000 OA
ENDBRANCH   1  12
BRANCH   4  13
ATOM     13  N   UNL     1      -3.603  13.099  19.474  0.00  0.00    +0.000 N 
ATOM     14  H   UNL     1      -2.765  13.624  19.717  0.00  0.00    +0.000 HD
BRANCH  13  15
ATOM     15  C   UNL     1      -4.433  13.107  20.630  0.00  0.00    +0.000 A 
ATOM     16  C   UNL     1      -5.544  12.276  20.738  0.00  0.00    +0.000 A 
ATOM     17  C   UNL     1      -6.302  12.223  21.912  0.00  0.00    +0.000 A 
ATOM     18  C   UNL     1      -5.922  12.997  23.029  0.00  0.00    +0.000 A 
ATOM     19  C   UNL     1      -4.798  13.847  22.932  0.00  0.00    +0.000 A 
ATOM     20  C   UNL     1      -4.063  13.880  21.734  0.00  0.00    +0.000 A 
BRANCH  17  21
ATOM     21  O   UNL     1      -7.421  11.428  22.029  0.00  0.00    +0.000 OA
ATOM     22  C   UNL     1      -7.829  10.752  20.842  0.00  0.00    +0.000 C 
ENDBRANCH  17  21
BRANCH  18  23
ATOM     23  O   UNL     1      -6.735  12.882  24.134  0.00  0.00    +0.000 OA
ATOM     24  C   UNL     1      -7.789  13.831  24.259  0.00  0.00    +0.000 C 
ENDBRANCH  18  23
BRANCH  19  25
ATOM     25  O   UNL     1      -4.479  14.618  24.021  0.00  0.00    +0.000 OA
ATOM     26  C   UNL     1      -3.119  14.692  24.423  0.00  0.00    +0.000 C 
ENDBRANCH  19  25
ENDBRANCH  13  15
ENDBRANCH   4  13
BRANCH   5  27
ATOM     27  C   UNL     1      -5.436  12.196  17.297  0.00  0.00    +0.000 C 
ATOM     28  N   UNL     1      -6.481  12.642  17.080  0.00  0.00    +0.000 NA
ENDBRANCH   5  27
BRANCH  10  29
ATOM     29  C   UNL     1       1.751   9.205  18.533  0.00  0.00    +0.000 C 
ATOM     30  C   UNL     1       1.810   7.875  18.365  0.00  0.00    +0.000 C 
BRANCH  30  31
ATOM     31  C   UNL     1       3.072   7.122  18.252  0.00  0.00    +0.000 A 
ATOM     32  C   UNL     1       3.400   6.060  19.102  0.00  0.00    +0.000 A 
ATOM     33  C   UNL     1       4.591   5.379  18.893  0.00  0.00    +0.000 A 
ATOM     34  N   UNL     1       5.462   5.675  17.907  0.00  0.00    +0.000 NA
ATOM     35  C   UNL     1       5.123   6.693  17.089  0.00  0.00    +0.000 A 
ATOM     36  C   UNL     1       3.953   7.430  17.216  0.00  0.00    +0.000 A 
ENDBRANCH  30  31
ENDBRANCH  10  29
TORSDOF 9
ENDMDL
MODEL 2
REMARK VINA RESULT:      -7.5      2.827      4.798
REMARK  Name = 
REMARK  13 active torsions:
REMARK  status: ('A' for Active; 'I' for Inactive)
REMARK    1  A    between atoms: C_1  and  O_2
REMARK    2  A    between atoms: O_2  and  C_3
REMARK    3  A    between atoms: C_6  and  N_7
REMARK    4  A    between atoms: N_7  and  C_8
REMARK    5  A    between atoms: C_10  and  O_11
REMARK    6  A    between atoms: O_11  and  C_12
REMARK    7  A    between atoms: C_13  and  O_14
REMARK    8  A    between atoms: O_14  and  C_15
REMARK    9  A    between atoms: C_16  and  O_17
REMARK   10  A    between atoms: O_17  and  C_18
REMARK   11  A    between atoms: C_20  and  C_21
REMARK   12  A    between atoms: C_27  and  C_28
REMARK   13  A    between atoms: C_29  and  C_30
REMARK                            x       y       z     vdW  Elec       q    Type
REMARK                         _______ _______ _______ _____ _____    ______ ____
ROOT
ATOM      1  C   UNL     1       0.962   9.085  19.249  0.00  0.00    +0.000 A 
ATOM      2  C   UNL     1       0.152  10.195  19.572  0.00  0.00    +0.000 A 
ATOM      3  C   UNL     1      -0.298  10.460  20.898  0.00  0.00    +0.000 A 
ATOM      4  C   UNL     1      -1.191  11.517  21.305  0.00  0.00    +0.000 A 
ATOM      5  C   UNL     1      -1.578  11.582  22.661  0.00  0.00    +0.000 A 
ATOM      6  C   UNL     1      -1.012  10.682  23.546  0.00  0.00    +0.000 A 
ATOM      7  N   UNL     1      -0.149   9.710  23.194  0.00  0.00    +0.000 NA
ATOM      8  C   UNL     1       0.173   9.589  21.905  0.00  0.00    +0.000 A 
ATOM      9  C   UNL     1       0.998   8.521  21.587  0.00  0.00    +0.000 A 
ATOM     10  C   UNL     1       1.393   8.235  20.271  0.00  0.00    +0.000 A 
ENDROOT
BRANCH   1  12
ATOM     11  C   UNL     1       2.529   9.401  17.479  0.00  0.00    +0.000 C 
ATOM     12  O   UNL     1       1.236   8.990  17.909  0.00  0.00    +0.000 OA
ENDBRANCH   1  12
BRANCH   4  13
ATOM     13  N   UNL     1      -1.756  12.405  20.327  0.00  0.00    +0.000 N 
ATOM     14  H   UNL     1      -1.703  13.377  20.625  0.00  0.00    +0.000 HD
BRANCH  13  15
ATOM     15  C   UNL     1      -2.999  12.257  19.649  0.00  0.00    +0.000 A 
ATOM     16  C   UNL     1      -4.192  12.713  20.202  0.00  0.00    +0.000 A 
ATOM     17  C   UNL     1      -5.395  12.646  19.492  0.00  0.00    +0.000 A 
ATOM     18  C   UNL     1      -5.406  12.143  18.174  0.00  0.00    +0.000 A 
ATOM     19  C   UNL     1      -4.203  11.675  17.601  0.00  0.00    +0.000 A 
ATOM     20  C   UNL     1      -3.012  11.750  18.347  0.00  0.00    +0.000 A 
BRANCH  17  21
ATOM     21  O   UNL     1      -6.591  13.065  20.032  0.00  0.00    +0.000 OA
ATOM     22  C   UNL     1      -7.043  12.343  21.175  0.00  0.00    +0.000 C 
ENDBRANCH  17  21
BRANCH  18  23
ATOM     23  O   UNL     1      -6.639  12.112  17.561  0.00  0.00    +0.000 OA
ATOM     24  C   UNL     1      -7.040  13.286  16.863  0.00  0.00    +0.000 C 
ENDBRANCH  18  23
BRANCH  19  25
ATOM     25  O   UNL     1      -4.253  11.153  16.334  0.00  0.00    +0.000 OA
ATOM     26  C   UNL     1      -3.032  10.928  15.645  0.00  0.00    +0.000 C 
ENDBRANCH  19  25
ENDBRANCH  13  15
ENDBRANCH   4  13
BRANCH   5  27
ATOM     27  C   UNL     1      -2.549  12.486  23.204  0.00  0.00    +0.000 C 
ATOM     28  N   UNL     1      -3.283  13.226  23.708  0.00  0.00    +0.000 NA
ENDBRANCH   5  27
BRANCH  10  29
ATOM     29  C   UNL     1       2.206   7.023  20.094  0.00  0.00    +0.000 C 
ATOM     30  C   UNL     1       1.854   5.817  20.565  0.00  0.00    +0.000 C 
BRANCH  30  31
ATOM     31  C   UNL     1       2.697   4.614  20.442  0.00  0.00    +0.000 A 
ATOM     32  C   UNL     1       2.434   3.428  21.136  0.00  0.00    +0.000 A 
ATOM     33  C   UNL     1       3.257   2.332  20.924  0.00  0.00    +0.000 A 
ATOM     34  N   UNL     1       4.305   2.333  20.076  0.00  0.00    +0.000 NA
ATOM     35  C   UNL     1       4.536   3.481  19.404  0.00  0.00    +0.000 A 
ATOM     36  C   UNL     1       3.766   4.628  19.547  0.00  0.00    +0.000 A 
ENDBRANCH  30  31
ENDBRANCH  10  29
TORSDOF 9
ENDMDL
MODEL 3
REMARK VINA RESULT:      -7.5      2.761      4.614
REMARK  Name = 
REMARK  13 active torsions:
REMARK  status: ('A' for Active; 'I' for Inactive)
REMARK    1  A    between atoms: C_1  and  O_2
REMARK    2  A    between atoms: O_2  and  C_3
REMARK    3  A    between atoms: C_6  and  N_7
REMARK    4  A    between atoms: N_7  and  C_8
REMARK    5  A    between atoms: C_10  and  O_11
REMARK    6  A    between atoms: O_11  and  C_12
REMARK    7  A    between atoms: C_13  and  O_14
REMARK    8  A    between atoms: O_14  and  C_15
REMARK    9  A    between atoms: C_16  and  O_17
REMARK   10  A    between atoms: O_17  and  C_18
REMARK   11  A    between atoms: C_20  and  C_21
REMARK   12  A    between atoms: C_27  and  C_28
REMARK   13  A    between atoms: C_29  and  C_30
REMARK                            x       y       z     vdW  Elec       q    Type
REMARK                         _______ _______ _______ _____ _____    ______ ____
ROOT
ATOM      1  C   UNL     1       1.129   9.305  19.211  0.00  0.00    +0.000 A 
ATOM      2  C   UNL     1       0.293  10.367  19.614  0.00  0.00    +0.000 A 
ATOM      3  C   UNL     1      -0.230  10.477  20.935  0.00  0.00    +0.000 A 
ATOM      4  C   UNL     1      -1.154  11.478  21.411  0.00  0.00    +0.000 A 
ATOM      5  C   UNL     1      -1.614  11.385  22.742  0.00  0.00    +0.000 A 
ATOM      6  C   UNL     1      -1.088  10.392  23.548  0.00  0.00    +0.000 A 
ATOM      7  N   UNL     1      -0.198   9.470  23.135  0.00  0.00    +0.000 NA
ATOM      8  C   UNL     1       0.194   9.498  21.860  0.00  0.00    +0.000 A 
ATOM      9  C   UNL     1       1.045   8.476  21.468  0.00  0.00    +0.000 A 
ATOM     10  C   UNL     1       1.513   8.344  20.151  0.00  0.00    +0.000 A 
ENDROOT
BRANCH   1  12
ATOM     11  C   UNL     1       2.461  10.321  17.513  0.00  0.00    +0.000 C 
ATOM     12  O   UNL     1       1.475   9.364  17.885  0.00  0.00    +0.000 OA
ENDBRANCH   1  12
BRANCH   4  13
ATOM     13  N   UNL     1      -1.674  12.470  20.511  0.00  0.00    +0.000 N 
ATOM     14  H   UNL     1      -1.645  13.402  20.921  0.00  0.00    +0.000 HD
BRANCH  13  15
ATOM     15  C   UNL     1      -2.878  12.398  19.756  0.00  0.00    +0.000 A 
ATOM     16  C   UNL     1      -2.954  11.680  18.566  0.00  0.00    +0.000 A 
ATOM     17  C   UNL     1      -4.162  11.539  17.877  0.00  0.00    +0.000 A 
ATOM     18  C   UNL     1      -5.343  12.100  18.408  0.00  0.00    +0.000 A 
ATOM     19  C   UNL     1      -5.281  12.832  19.613  0.00  0.00    +0.000 A 
ATOM     20  C   UNL     1      -4.047  12.961  20.276  0.00  0.00    +0.000 A 
BRANCH  17  21
ATOM     21  O   UNL     1      -4.251  10.857  16.683  0.00  0.00    +0.000 OA
ATOM     22  C   UNL     1      -3.150  11.017  15.793  0.00  0.00    +0.000 C 
ENDBRANCH  17  21
BRANCH  18  23
ATOM     23  O   UNL     1      -6.479  11.912  17.652  0.00  0.00    +0.000 OA
ATOM     24  C   UNL     1      -6.942  13.027  16.899  0.00  0.00    +0.000 C 
ENDBRANCH  18  23
BRANCH  19  25
ATOM     25  O   UNL     1      -6.438  13.401  20.081  0.00  0.00    +0.000 OA
ATOM     26  C   UNL     1      -6.731  13.298  21.467  0.00  0.00    +0.000 C 
ENDBRANCH  19  25
ENDBRANCH  13  15
ENDBRANCH   4  13
BRANCH   5  27
ATOM     27  C   UNL     1      -2.621  12.219  23.332  0.00  0.00    +0.000 C 
ATOM     28  N   UNL     1      -3.491  12.839  23.776  0.00  0.00    +0.000 NA
ENDBRANCH   5  27
BRANCH  10  29
ATOM     29  C   UNL     1       2.346   7.163  19.882  0.00  0.00    +0.000 C 
ATOM     30  C   UNL     1       2.048   5.929  20.318  0.00  0.00    +0.000 C 
BRANCH  30  31
ATOM     31  C   UNL     1       2.914   4.756  20.100  0.00  0.00    +0.000 A 
ATOM     32  C   UNL     1       4.082   4.807  19.331  0.00  0.00    +0.000 A 
ATOM     33  C   UNL     1       4.859   3.664  19.219  0.00  0.00    +0.000 A 
ATOM     34  N   UNL     1       4.561   2.492  19.815  0.00  0.00    +0.000 NA
ATOM     35  C   UNL     1       3.439   2.465  20.564  0.00  0.00    +0.000 A 
ATOM     36  C   UNL     1       2.601   3.558  20.740  0.00  0.00    +0.000 A 
ENDBRANCH  30  31
ENDBRANCH  10  29
TORSDOF 9
ENDMDL
MODEL 4
REMARK VINA RESULT:      -7.4      2.979      4.818
REMARK  Name = 
REMARK  13 active torsions:
REMARK  status: ('A' for Active; 'I' for Inactive)
REMARK    1  A    between atoms: C_1  and  O_2
REMARK    2  A    between atoms: O_2  and  C_3
REMARK    3  A    between atoms: C_6  and  N_7
REMARK    4  A    between atoms: N_7  and  C_8
REMARK    5  A    between atoms: C_10  and  O_11
REMARK    6  A    between atoms: O_11  and  C_12
REMARK    7  A    between atoms: C_13  and  O_14
REMARK    8  A    between atoms: O_14  and  C_15
REMARK    9  A    between atoms: C_16  and  O_17
REMARK   10  A    between atoms: O_17  and  C_18
REMARK   11  A    between atoms: C_20  and  C_21
REMARK   12  A    between atoms: C_27  and  C_28
REMARK   13  A    between atoms: C_29  and  C_30
REMARK                            x       y       z     vdW  Elec       q    Type
REMARK                         _______ _______ _______ _____ _____    ______ ____
ROOT
ATOM      1  C   UNL     1       1.399   8.583  19.112  0.00  0.00    +0.000 A 
ATOM      2  C   UNL     1       0.699   9.756  19.464  0.00  0.00    +0.000 A 
ATOM      3  C   UNL     1       0.242  10.011  20.790  0.00  0.00    +0.000 A 
ATOM      4  C   UNL     1      -0.550  11.137  21.222  0.00  0.00    +0.000 A 
ATOM      5  C   UNL     1      -0.966  11.185  22.570  0.00  0.00    +0.000 A 
ATOM      6  C   UNL     1      -0.518  10.196  23.427  0.00  0.00    +0.000 A 
ATOM      7  N   UNL     1       0.251   9.156  23.053  0.00  0.00    +0.000 NA
ATOM      8  C   UNL     1       0.594   9.055  21.768  0.00  0.00    +0.000 A 
ATOM      9  C   UNL     1       1.314   7.922  21.422  0.00  0.00    +0.000 A 
ATOM     10  C   UNL     1       1.714   7.652  20.105  0.00  0.00    +0.000 A 
ENDROOT
BRANCH   1  12
ATOM     11  C   UNL     1       3.076   8.535  17.415  0.00  0.00    +0.000 C 
ATOM     12  O   UNL     1       1.699   8.515  17.775  0.00  0.00    +0.000 OA
ENDBRANCH   1  12
BRANCH   4  13
ATOM     13  N   UNL     1      -0.995  12.117  20.271  0.00  0.00    +0.000 N 
ATOM     14  H   UNL     1      -0.829  13.066  20.602  0.00  0.00    +0.000 HD
BRANCH  13  15
ATOM     15  C   UNL     1      -2.239  12.142  19.581  0.00  0.00    +0.000 A 
ATOM     16  C   UNL     1      -2.429  11.452  18.388  0.00  0.00    +0.000 A 
ATOM     17  C   UNL     1      -3.679  11.407  17.764  0.00  0.00    +0.000 A 
ATOM     18  C   UNL     1      -4.788  12.040  18.365  0.00  0.00    +0.000 A 
ATOM     19  C   UNL     1      -4.610  12.747  19.574  0.00  0.00    +0.000 A 
ATOM     20  C   UNL     1      -3.336  12.777  20.171  0.00  0.00    +0.000 A 
BRANCH  17  21
ATOM     21  O   UNL     1      -3.880  10.753  16.568  0.00  0.00    +0.000 OA
ATOM     22  C   UNL     1      -2.816  10.845  15.624  0.00  0.00    +0.000 C 
ENDBRANCH  17  21
BRANCH  18  23
ATOM     23  O   UNL     1      -5.973  11.945  17.670  0.00  0.00    +0.000 OA
ATOM     24  C   UNL     1      -6.951  11.050  18.187  0.00  0.00    +0.000 C 
ENDBRANCH  18  23
BRANCH  19  25
ATOM     25  O   UNL     1      -5.697  13.387  20.111  0.00  0.00    +0.000 OA
ATOM     26  C   UNL     1      -5.552  14.739  20.522  0.00  0.00    +0.000 C 
ENDBRANCH  19  25
ENDBRANCH  13  15
ENDBRANCH   4  13
BRANCH   5  27
ATOM     27  C   UNL     1      -1.854  12.161  23.130  0.00  0.00    +0.000 C 
ATOM     28  N   UNL     1      -2.631  12.917  23.534  0.00  0.00    +0.000 NA
ENDBRANCH   5  27
BRANCH  10  29
ATOM     29  C   UNL     1       2.404   6.371  19.894  0.00  0.00    +0.000 C 
ATOM     30  C   UNL     1       1.953   5.411  19.072  0.00  0.00    +0.000 C 
BRANCH  30  31
ATOM     31  C   UNL     1       2.611   4.102  18.907  0.00  0.00    +0.000 A 
ATOM     32  C   UNL     1       3.618   3.646  19.765  0.00  0.00    +0.000 A 
ATOM     33  C   UNL     1       4.149   2.381  19.560  0.00  0.00    +0.000 A 
ATOM     34  N   UNL     1       3.749   1.549  18.578  0.00  0.00    +0.000 NA
ATOM     35  C   UNL     1       2.767   1.999  17.769  0.00  0.00    +0.000 A 
ATOM     36  C   UNL     1       2.172   3.247  17.898  0.00  0.00    +0.000 A 
ENDBRANCH  30  31
ENDBRANCH  10  29
TORSDOF 9
ENDMDL
MODEL 5
REMARK VINA RESULT:      -7.3      2.095      4.123
REMARK  Name = 
REMARK  13 active torsions:
REMARK  status: ('A' for Active; 'I' for Inactive)
REMARK    1  A    between atoms: C_1  and  O_2
REMARK    2  A    between atoms: O_2  and  C_3
REMARK    3  A    between atoms: C_6  and  N_7
REMARK    4  A    between atoms: N_7  and  C_8
REMARK    5  A    between atoms: C_10  and  O_11
REMARK    6  A    between atoms: O_11  and  C_12
REMARK    7  A    between atoms: C_13  and  O_14
REMARK    8  A    between atoms: O_14  and  C_15
REMARK    9  A    between atoms: C_16  and  O_17
REMARK   10  A    between atoms: O_17  and  C_18
REMARK   11  A    between atoms: C_20  and  C_21
REMARK   12  A    between atoms: C_27  and  C_28
REMARK   13  A    between atoms: C_29  and  C_30
REMARK                            x       y       z     vdW  Elec       q    Type
REMARK                         _______ _______ _______ _____ _____    ______ ____
ROOT
ATOM      1  C   UNL     1      -0.603  10.467  18.212  0.00  0.00    +0.000 A 
ATOM      2  C   UNL     1      -1.063  11.701  18.718  0.00  0.00    +0.000 A 
ATOM      3  C   UNL     1      -0.185  12.688  19.254  0.00  0.00    +0.000 A 
ATOM      4  C   UNL     1      -0.570  13.937  19.866  0.00  0.00    +0.000 A 
ATOM      5  C   UNL     1       0.444  14.761  20.400  0.00  0.00    +0.000 A 
ATOM      6  C   UNL     1       1.760  14.371  20.232  0.00  0.00    +0.000 A 
ATOM      7  N   UNL     1       2.144  13.228  19.632  0.00  0.00    +0.000 NA
ATOM      8  C   UNL     1       1.197  12.402  19.183  0.00  0.00    +0.000 A 
ATOM      9  C   UNL     1       1.644  11.203  18.652  0.00  0.00    +0.000 A 
ATOM     10  C   UNL     1       0.771  10.213  18.176  0.00  0.00    +0.000 A 
ENDROOT
BRANCH   1  12
ATOM     11  C   UNL     1      -2.287   9.996  16.589  0.00  0.00    +0.000 C 
ATOM     12  O   UNL     1      -1.618   9.644  17.795  0.00  0.00    +0.000 OA
ENDBRANCH   1  12
BRANCH   4  13
ATOM     13  N   UNL     1      -1.959  14.268  20.024  0.00  0.00    +0.000 N 
ATOM     14  H   UNL     1      -2.113  15.274  19.989  0.00  0.00    +0.000 HD
BRANCH  13  15
ATOM     15  C   UNL     1      -2.858  13.755  21.001  0.00  0.00    +0.000 A 
ATOM     16  C   UNL     1      -2.709  14.043  22.355  0.00  0.00    +0.000 A 
ATOM     17  C   UNL     1      -3.647  13.612  23.298  0.00  0.00    +0.000 A 
ATOM     18  C   UNL     1      -4.790  12.900  22.877  0.00  0.00    +0.000 A 
ATOM     19  C   UNL     1      -4.953  12.598  21.507  0.00  0.00    +0.000 A 
ATOM     20  C   UNL     1      -3.986  13.042  20.587  0.00  0.00    +0.000 A 
BRANCH  17  21
ATOM     21  O   UNL     1      -3.503  13.862  24.645  0.00  0.00    +0.000 OA
ATOM     22  C   UNL     1      -3.361  15.233  25.010  0.00  0.00    +0.000 C 
ENDBRANCH  17  21
BRANCH  18  23
ATOM     23  O   UNL     1      -5.650  12.513  23.880  0.00  0.00    +0.000 OA
ATOM     24  C   UNL     1      -6.825  13.297  24.058  0.00  0.00    +0.000 C 
ENDBRANCH  18  23
BRANCH  19  25
ATOM     25  O   UNL     1      -6.052  11.869  21.134  0.00  0.00    +0.000 OA
ATOM     26  C   UNL     1      -7.091  12.525  20.421  0.00  0.00    +0.000 C 
ENDBRANCH  19  25
ENDBRANCH  13  15
ENDBRANCH   4  13
BRANCH   5  27
ATOM     27  C   UNL     1       0.225  15.965  21.147  0.00  0.00    +0.000 C 
ATOM     28  N   UNL     1      -0.028  16.940  21.717  0.00  0.00    +0.000 NA
ENDBRANCH   5  27
BRANCH  10  29
ATOM     29  C   UNL     1       1.402   8.969  17.714  0.00  0.00    +0.000 C 
ATOM     30  C   UNL     1       2.214   8.220  18.477  0.00  0.00    +0.000 C 
BRANCH  30  31
ATOM     31  C   UNL     1       2.896   7.005  17.995  0.00  0.00    +0.000 A 
ATOM     32  C   UNL     1       4.156   7.034  17.388  0.00  0.00    +0.000 A 
ATOM     33  C   UNL     1       4.742   5.835  17.006  0.00  0.00    +0.000 A 
ATOM     34  N   UNL     1       4.170   4.629  17.189  0.00  0.00    +0.000 NA
ATOM     35  C   UNL     1       2.961   4.619  17.789  0.00  0.00    +0.000 A 
ATOM     36  C   UNL     1       2.298   5.764  18.209  0.00  0.00    +0.000 A 
ENDBRANCH  30  31
ENDBRANCH  10  29
TORSDOF 9
ENDMDL
MODEL 6
REMARK VINA RESULT:      -7.3      2.044      3.459
REMARK  Name = 
REMARK  13 active torsions:
REMARK  status: ('A' for Active; 'I' for Inactive)
REMARK    1  A    between atoms: C_1  and  O_2
REMARK    2  A    between atoms: O_2  and  C_3
REMARK    3  A    between atoms: C_6  and  N_7
REMARK    4  A    between atoms: N_7  and  C_8
REMARK    5  A    between atoms: C_10  and  O_11
REMARK    6  A    between atoms: O_11  and  C_12
REMARK    7  A    between atoms: C_13  and  O_14
REMARK    8  A    between atoms: O_14  and  C_15
REMARK    9  A    between atoms: C_16  and  O_17
REMARK   10  A    between atoms: O_17  and  C_18
REMARK   11  A    between atoms: C_20  and  C_21
REMARK   12  A    between atoms: C_27  and  C_28
REMARK   13  A    between atoms: C_29  and  C_30
REMARK                            x       y       z     vdW  Elec       q    Type
REMARK                         _______ _______ _______ _____ _____    ______ ____
ROOT
ATOM      1  C   UNL     1      -0.724  10.449  18.208  0.00  0.00    +0.000 A 
ATOM      2  C   UNL     1      -1.171  11.690  18.707  0.00  0.00    +0.000 A 
ATOM      3  C   UNL     1      -0.305  12.614  19.361  0.00  0.00    +0.000 A 
ATOM      4  C   UNL     1      -0.689  13.863  19.974  0.00  0.00    +0.000 A 
ATOM      5  C   UNL     1       0.304  14.617  20.635  0.00  0.00    +0.000 A 
ATOM      6  C   UNL     1       1.610  14.164  20.586  0.00  0.00    +0.000 A 
ATOM      7  N   UNL     1       1.996  13.021  19.989  0.00  0.00    +0.000 NA
ATOM      8  C   UNL     1       1.060  12.259  19.420  0.00  0.00    +0.000 A 
ATOM      9  C   UNL     1       1.500  11.054  18.895  0.00  0.00    +0.000 A 
ATOM     10  C   UNL     1       0.633  10.125  18.300  0.00  0.00    +0.000 A 
ENDROOT
BRANCH   1  12
ATOM     11  C   UNL     1      -2.394  10.219  16.520  0.00  0.00    +0.000 C 
ATOM     12  O   UNL     1      -1.730   9.693  17.663  0.00  0.00    +0.000 OA
ENDBRANCH   1  12
BRANCH   4  13
ATOM     13  N   UNL     1      -2.069  14.261  20.004  0.00  0.00    +0.000 N 
ATOM     14  H   UNL     1      -2.172  15.270  19.907  0.00  0.00    +0.000 HD
BRANCH  13  15
ATOM     15  C   UNL     1      -3.065  13.840  20.929  0.00  0.00    +0.000 A 
ATOM     16  C   UNL     1      -4.143  13.053  20.536  0.00  0.00    +0.000 A 
ATOM     17  C   UNL     1      -5.067  12.568  21.467  0.00  0.00    +0.000 A 
ATOM     18  C   UNL     1      -4.894  12.845  22.839  0.00  0.00    +0.000 A 
ATOM     19  C   UNL     1      -3.806  13.645  23.252  0.00  0.00    +0.000 A 
ATOM     20  C   UNL     1      -2.900  14.122  22.288  0.00  0.00    +0.000 A 
BRANCH  17  21
ATOM     21  O   UNL     1      -6.156  11.811  21.094  0.00  0.00    +0.000 OA
ATOM     22  C   UNL     1      -7.070  12.437  20.197  0.00  0.00    +0.000 C 
ENDBRANCH  17  21
BRANCH  18  23
ATOM     23  O   UNL     1      -5.860  12.330  23.675  0.00  0.00    +0.000 OA
ATOM     24  C   UNL     1      -6.964  13.175  23.979  0.00  0.00    +0.000 C 
ENDBRANCH  18  23
BRANCH  19  25
ATOM     25  O   UNL     1      -3.689  13.932  24.588  0.00  0.00    +0.000 OA
ATOM     26  C   UNL     1      -2.775  14.945  24.985  0.00  0.00    +0.000 C 
ENDBRANCH  19  25
ENDBRANCH  13  15
ENDBRANCH   4  13
BRANCH   5  27
ATOM     27  C   UNL     1       0.070  15.809  21.397  0.00  0.00    +0.000 C 
ATOM     28  N   UNL     1      -0.095  16.729  22.080  0.00  0.00    +0.000 NA
ENDBRANCH   5  27
BRANCH  10  29
ATOM     29  C   UNL     1       1.246   8.863  17.862  0.00  0.00    +0.000 C 
ATOM     30  C   UNL     1       2.242   8.252  18.523  0.00  0.00    +0.000 C 
BRANCH  30  31
ATOM     31  C   UNL     1       2.899   7.020  18.051  0.00  0.00    +0.000 A 
ATOM     32  C   UNL     1       2.325   5.752  18.193  0.00  0.00    +0.000 A 
ATOM     33  C   UNL     1       2.996   4.652  17.678  0.00  0.00    +0.000 A 
ATOM     34  N   UNL     1       4.179   4.728  17.036  0.00  0.00    +0.000 NA
ATOM     35  C   UNL     1       4.711   5.960  16.895  0.00  0.00    +0.000 A 
ATOM     36  C   UNL     1       4.113   7.119  17.373  0.00  0.00    +0.000 A 
ENDBRANCH  30  31
ENDBRANCH  10  29
TORSDOF 9
ENDMDL
MODEL 7
REMARK VINA RESULT:      -7.2      5.054     12.129
REMARK  Name = 
REMARK  13 active torsions:
REMARK  status: ('A' for Active; 'I' for Inactive)
REMARK    1  A    between atoms: C_1  and  O_2
REMARK    2  A    between atoms: O_2  and  C_3
REMARK    3  A    between atoms: C_6  and  N_7
REMARK    4  A    between atoms: N_7  and  C_8
REMARK    5  A    between atoms: C_10  and  O_11
REMARK    6  A    between atoms: O_11  and  C_12
REMARK    7  A    between atoms: C_13  and  O_14
REMARK    8  A    between atoms: O_14  and  C_15
REMARK    9  A    between atoms: C_16  and  O_17
REMARK   10  A    between atoms: O_17  and  C_18
REMARK   11  A    between atoms: C_20  and  C_21
REMARK   12  A    between atoms: C_27  and  C_28
REMARK   13  A    between atoms: C_29  and  C_30
REMARK                            x       y       z     vdW  Elec       q    Type
REMARK                         _______ _______ _______ _____ _____    ______ ____
ROOT
ATOM      1  C   UNL     1       1.851   8.016  18.500  0.00  0.00    +0.000 A 
ATOM      2  C   UNL     1       2.220   6.783  17.924  0.00  0.00    +0.000 A 
ATOM      3  C   UNL     1       2.459   5.612  18.699  0.00  0.00    +0.000 A 
ATOM      4  C   UNL     1       2.919   4.336  18.207  0.00  0.00    +0.000 A 
ATOM      5  C   UNL     1       3.163   3.306  19.140  0.00  0.00    +0.000 A 
ATOM      6  C   UNL     1       2.864   3.545  20.470  0.00  0.00    +0.000 A 
ATOM      7  N   UNL     1       2.400   4.715  20.946  0.00  0.00    +0.000 NA
ATOM      8  C   UNL     1       2.231   5.723  20.089  0.00  0.00    +0.000 A 
ATOM      9  C   UNL     1       1.833   6.929  20.645  0.00  0.00    +0.000 A 
ATOM     10  C   UNL     1       1.652   8.092  19.882  0.00  0.00    +0.000 A 
ENDROOT
BRANCH   1  12
ATOM     11  C   UNL     1       2.414  10.240  17.845  0.00  0.00    +0.000 C 
ATOM     12  O   UNL     1       1.722   9.025  17.579  0.00  0.00    +0.000 OA
ENDBRANCH   1  12
BRANCH   4  13
ATOM     13  N   UNL     1       3.227   4.166  16.813  0.00  0.00    +0.000 N 
ATOM     14  H   UNL     1       2.974   3.237  16.482  0.00  0.00    +0.000 HD
BRANCH  13  15
ATOM     15  C   UNL     1       4.439   4.514  16.153  0.00  0.00    +0.000 A 
ATOM     16  C   UNL     1       5.349   5.404  16.716  0.00  0.00    +0.000 A 
ATOM     17  C   UNL     1       6.578   5.671  16.105  0.00  0.00    +0.000 A 
ATOM     18  C   UNL     1       6.929   5.005  14.912  0.00  0.00    +0.000 A 
ATOM     19  C   UNL     1       6.014   4.102  14.328  0.00  0.00    +0.000 A 
ATOM     20  C   UNL     1       4.784   3.862  14.966  0.00  0.00    +0.000 A 
BRANCH  17  21
ATOM     21  O   UNL     1       7.480   6.570  16.632  0.00  0.00    +0.000 OA
ATOM     22  C   UNL     1       7.550   6.617  18.055  0.00  0.00    +0.000 C 
ENDBRANCH  17  21
BRANCH  18  23
ATOM     23  O   UNL     1       8.156   5.342  14.384  0.00  0.00    +0.000 OA
ATOM     24  C   UNL     1       8.189   5.689  13.003  0.00  0.00    +0.000 C 
ENDBRANCH  18  23
BRANCH  19  25
ATOM     25  O   UNL     1       6.366   3.503  13.146  0.00  0.00    +0.000 OA
ATOM     26  C   UNL     1       5.363   3.309  12.159  0.00  0.00    +0.000 C 
ENDBRANCH  19  25
ENDBRANCH  13  15
ENDBRANCH   4  13
BRANCH   5  27
ATOM     27  C   UNL     1       3.736   2.028  18.834  0.00  0.00    +0.000 C 
ATOM     28  N   UNL     1       4.129   0.961  18.616  0.00  0.00    +0.000 NA
ENDBRANCH   5  27
BRANCH  10  29
ATOM     29  C   UNL     1       1.302   9.305  20.634  0.00  0.00    +0.000 C 
ATOM     30  C   UNL     1       0.089   9.877  20.600  0.00  0.00    +0.000 C 
BRANCH  30  31
ATOM     31  C   UNL     1      -0.245  11.128  21.305  0.00  0.00    +0.000 A 
ATOM     32  C   UNL     1       0.085  12.392  20.805  0.00  0.00    +0.000 A 
ATOM     33  C   UNL     1      -0.308  13.516  21.515  0.00  0.00    +0.000 A 
ATOM     34  N   UNL     1      -1.003  13.470  22.670  0.00  0.00    +0.000 NA
ATOM     35  C   UNL     1      -1.325  12.243  23.131  0.00  0.00    +0.000 A 
ATOM     36  C   UNL     1      -0.979  11.061  22.489  0.00  0.00    +0.000 A 
ENDBRANCH  30  31
ENDBRANCH  10  29
TORSDOF 9
ENDMDL
MODEL 8
REMARK VINA RESULT:      -7.1      0.649      2.229
REMARK  Name = 
REMARK  13 active torsions:
REMARK  status: ('A' for Active; 'I' for Inactive)
REMARK    1  A    between atoms: C_1  and  O_2
REMARK    2  A    between atoms: O_2  and  C_3
REMARK    3  A    between atoms: C_6  and  N_7
REMARK    4  A    between atoms: N_7  and  C_8
REMARK    5  A    between atoms: C_10  and  O_11
REMARK    6  A    between atoms: O_11  and  C_12
REMARK    7  A    between atoms: C_13  and  O_14
REMARK    8  A    between atoms: O_14  and  C_15
REMARK    9  A    between atoms: C_16  and  O_17
REMARK   10  A    between atoms: O_17  and  C_18
REMARK   11  A    between atoms: C_20  and  C_21
REMARK   12  A    between atoms: C_27  and  C_28
REMARK   13  A    between atoms: C_29  and  C_30
REMARK                            x       y       z     vdW  Elec       q    Type
REMARK                         _______ _______ _______ _____ _____    ______ ____
ROOT
ATOM      1  C   UNL     1       0.665  10.787  19.199  0.00  0.00    +0.000 A 
ATOM      2  C   UNL     1      -0.572  11.461  19.277  0.00  0.00    +0.000 A 
ATOM      3  C   UNL     1      -1.678  11.138  18.438  0.00  0.00    +0.000 A 
ATOM      4  C   UNL     1      -2.946  11.825  18.389  0.00  0.00    +0.000 A 
ATOM      5  C   UNL     1      -3.902  11.400  17.442  0.00  0.00    +0.000 A 
ATOM      6  C   UNL     1      -3.608  10.291  16.669  0.00  0.00    +0.000 A 
ATOM      7  N   UNL     1      -2.446   9.613  16.723  0.00  0.00    +0.000 NA
ATOM      8  C   UNL     1      -1.502  10.044  17.562  0.00  0.00    +0.000 A 
ATOM      9  C   UNL     1      -0.296   9.362  17.516  0.00  0.00    +0.000 A 
ATOM     10  C   UNL     1       0.807   9.720  18.307  0.00  0.00    +0.000 A 
ENDROOT
BRANCH   1  12
ATOM     11  C   UNL     1       1.366  12.581  20.606  0.00  0.00    +0.000 C 
ATOM     12  O   UNL     1       1.608  11.290  20.059  0.00  0.00    +0.000 OA
ENDBRANCH   1  12
BRANCH   4  13
ATOM     13  N   UNL     1      -3.175  12.983  19.209  0.00  0.00    +0.000 N 
ATOM     14  H   UNL     1      -2.324  13.527  19.337  0.00  0.00    +0.000 HD
BRANCH  13  15
ATOM     15  C   UNL     1      -3.877  13.034  20.446  0.00  0.00    +0.000 A 
ATOM     16  C   UNL     1      -3.542  13.948  21.440  0.00  0.00    +0.000 A 
ATOM     17  C   UNL     1      -4.293  14.054  22.615  0.00  0.00    +0.000 A 
ATOM     18  C   UNL     1      -5.438  13.248  22.791  0.00  0.00    +0.000 A 
ATOM     19  C   UNL     1      -5.789  12.315  21.791  0.00  0.00    +0.000 A 
ATOM     20  C   UNL     1      -5.007  12.231  20.626  0.00  0.00    +0.000 A 
BRANCH  17  21
ATOM     21  O   UNL     1      -3.961  14.932  23.623  0.00  0.00    +0.000 OA
ATOM     22  C   UNL     1      -4.066  16.316  23.301  0.00  0.00    +0.000 C 
ENDBRANCH  17  21
BRANCH  18  23
ATOM     23  O   UNL     1      -6.107  13.421  23.983  0.00  0.00    +0.000 OA
ATOM     24  C   UNL     1      -7.283  14.223  23.949  0.00  0.00    +0.000 C 
ENDBRANCH  18  23
BRANCH  19  25
ATOM     25  O   UNL     1      -6.883  11.518  22.011  0.00  0.00    +0.000 OA
ATOM     26  C   UNL     1      -7.916  11.501  21.035  0.00  0.00    +0.000 C 
ENDBRANCH  19  25
ENDBRANCH  13  15
ENDBRANCH   4  13
BRANCH   5  27
ATOM     27  C   UNL     1      -5.154  12.047  17.180  0.00  0.00    +0.000 C 
ATOM     28  N   UNL     1      -6.140  12.631  17.018  0.00  0.00    +0.000 NA
ENDBRANCH   5  27
BRANCH  10  29
ATOM     29  C   UNL     1       2.035   8.944  18.084  0.00  0.00    +0.000 C 
ATOM     30  C   UNL     1       2.112   7.613  18.239  0.00  0.00    +0.000 C 
BRANCH  30  31
ATOM     31  C   UNL     1       3.358   6.843  18.075  0.00  0.00    +0.000 A 
ATOM     32  C   UNL     1       3.638   5.687  18.812  0.00  0.00    +0.000 A 
ATOM     33  C   UNL     1       4.817   5.001  18.558  0.00  0.00    +0.000 A 
ATOM     34  N   UNL     1       5.720   5.378  17.632  0.00  0.00    +0.000 NA
ATOM     35  C   UNL     1       5.428   6.488  16.921  0.00  0.00    +0.000 A 
ATOM     36  C   UNL     1       4.272   7.237  17.099  0.00  0.00    +0.000 A 
ENDBRANCH  30  31
ENDBRANCH  10  29
TORSDOF 9
ENDMDL
MODEL 9
REMARK VINA RESULT:      -7.0      4.283      6.481
REMARK  Name = 
REMARK  13 active torsions:
REMARK  status: ('A' for Active; 'I' for Inactive)
REMARK    1  A    between atoms: C_1  and  O_2
REMARK    2  A    between atoms: O_2  and  C_3
REMARK    3  A    between atoms: C_6  and  N_7
REMARK    4  A    between atoms: N_7  and  C_8
REMARK    5  A    between atoms: C_10  and  O_11
REMARK    6  A    between atoms: O_11  and  C_12
REMARK    7  A    between atoms: C_13  and  O_14
REMARK    8  A    between atoms: O_14  and  C_15
REMARK    9  A    between atoms: C_16  and  O_17
REMARK   10  A    between atoms: O_17  and  C_18
REMARK   11  A    between atoms: C_20  and  C_21
REMARK   12  A    between atoms: C_27  and  C_28
REMARK   13  A    between atoms: C_29  and  C_30
REMARK                            x       y       z     vdW  Elec       q    Type
REMARK                         _______ _______ _______ _____ _____    ______ ____
ROOT
ATOM      1  C   UNL     1       1.024   9.339  19.808  0.00  0.00    +0.000 A 
ATOM      2  C   UNL     1       0.423  10.615  19.819  0.00  0.00    +0.000 A 
ATOM      3  C   UNL     1      -0.290  11.120  20.945  0.00  0.00    +0.000 A 
ATOM      4  C   UNL     1      -1.004  12.372  21.016  0.00  0.00    +0.000 A 
ATOM      5  C   UNL     1      -1.709  12.674  22.201  0.00  0.00    +0.000 A 
ATOM      6  C   UNL     1      -1.607  11.796  23.264  0.00  0.00    +0.000 A 
ATOM      7  N   UNL     1      -0.917  10.640  23.232  0.00  0.00    +0.000 NA
ATOM      8  C   UNL     1      -0.303  10.303  22.096  0.00  0.00    +0.000 A 
ATOM      9  C   UNL     1       0.321   9.065  22.091  0.00  0.00    +0.000 A 
ATOM     10  C   UNL     1       0.975   8.551  20.961  0.00  0.00    +0.000 A 
ENDROOT
BRANCH   1  12
ATOM     11  C   UNL     1       2.049  10.117  17.799  0.00  0.00    +0.000 C 
ATOM     12  O   UNL     1       1.612   9.030  18.608  0.00  0.00    +0.000 OA
ENDBRANCH   1  12
BRANCH   4  13
ATOM     13  N   UNL     1      -1.083  13.228  19.864  0.00  0.00    +0.000 N 
ATOM     14  H   UNL     1      -1.246  12.696  19.011  0.00  0.00    +0.000 HD
BRANCH  13  15
ATOM     15  C   UNL     1      -0.197  14.286  19.518  0.00  0.00    +0.000 A 
ATOM     16  C   UNL     1       1.135  14.048  19.191  0.00  0.00    +0.000 A 
ATOM     17  C   UNL     1       1.975  15.080  18.764  0.00  0.00    +0.000 A 
ATOM     18  C   UNL     1       1.466  16.388  18.623  0.00  0.00    +0.000 A 
ATOM     19  C   UNL     1       0.117  16.645  18.954  0.00  0.00    +0.000 A 
ATOM     20  C   UNL     1      -0.698  15.584  19.387  0.00  0.00    +0.000 A 
BRANCH  17  21
ATOM     21  O   UNL     1       3.303  14.869  18.464  0.00  0.00    +0.000 OA
ATOM     22  C   UNL     1       4.176  14.717  19.580  0.00  0.00    +0.000 C 
ENDBRANCH  17  21
BRANCH  18  23
ATOM     23  O   UNL     1       2.373  17.336  18.204  0.00  0.00    +0.000 OA
ATOM     24  C   UNL     1       2.537  17.491  16.798  0.00  0.00    +0.000 C 
ENDBRANCH  18  23
BRANCH  19  25
ATOM     25  O   UNL     1      -0.337  17.934  18.847  0.00  0.00    +0.000 OA
ATOM     26  C   UNL     1      -0.993  18.324  17.648  0.00  0.00    +0.000 C 
ENDBRANCH  19  25
ENDBRANCH  13  15
ENDBRANCH   4  13
BRANCH   5  27
ATOM     27  C   UNL     1      -2.565  13.809  22.390  0.00  0.00    +0.000 C 
ATOM     28  N   UNL     1      -3.244  14.743  22.462  0.00  0.00    +0.000 NA
ENDBRANCH   5  27
BRANCH  10  29
ATOM     29  C   UNL     1       1.519   7.192  21.098  0.00  0.00    +0.000 C 
ATOM     30  C   UNL     1       2.067   6.506  20.083  0.00  0.00    +0.000 C 
BRANCH  30  31
ATOM     31  C   UNL     1       2.556   5.121  20.204  0.00  0.00    +0.000 A 
ATOM     32  C   UNL     1       3.651   4.637  19.480  0.00  0.00    +0.000 A 
ATOM     33  C   UNL     1       4.068   3.331  19.692  0.00  0.00    +0.000 A 
ATOM     34  N   UNL     1       3.484   2.489  20.567  0.00  0.00    +0.000 NA
ATOM     35  C   UNL     1       2.438   2.977  21.268  0.00  0.00    +0.000 A 
ATOM     36  C   UNL     1       1.951   4.269  21.127  0.00  0.00    +0.000 A 
ENDBRANCH  30  31
ENDBRANCH  10  29
TORSDOF 9
ENDMDL
