MODEL 1
REMARK VINA RESULT:      -8.3      0.000      0.000
REMARK  Name = 
REMARK  6 active torsions:
REMARK  status: ('A' for Active; 'I' for Inactive)
REMARK    1  A    between atoms: C_2  and  C_3
REMARK    2  A    between atoms: C_11  and  C_13
REMARK    3  A    between atoms: C_13  and  C_14
REMARK    4  A    between atoms: C_14  and  N_15
REMARK    5  A    between atoms: C_14  and  C_16
REMARK    6  A    between atoms: C_16  and  C_17
REMARK                            x       y       z     vdW  Elec       q    Type
REMARK                         _______ _______ _______ _____ _____    ______ ____
ROOT
ATOM      1  C   UNL     1       5.764   5.307  18.378  0.00  0.00    +0.000 C 
ENDROOT
BRANCH   1  10
ATOM      2  C   UNL     1       2.677   4.834  17.865  0.00  0.00    +0.000 C 
ATOM      3  C   UNL     1       1.346   4.058  17.861  0.00  0.00    +0.000 C 
ATOM      4  C   UNL     1       1.343   3.282  19.169  0.00  0.00    +0.000 C 
ATOM      5  C   UNL     1       0.945   4.107  20.393  0.00  0.00    +0.000 C 
ATOM      6  C   UNL     1       1.770   3.537  21.536  0.00  0.00    +0.000 C 
ATOM      7  C   UNL     1       2.946   2.796  20.902  0.00  0.00    +0.000 C 
ATOM      8  C   UNL     1       2.823   2.959  19.385  0.00  0.00    +0.000 C 
ATOM      9  N   UNL     1       3.551   4.093  18.788  0.00  0.00    +0.000 N 
ATOM     10  C   UNL     1       4.941   4.076  18.783  0.00  0.00    +0.000 C 
ATOM     11  O   UNL     1       5.539   3.096  19.251  0.00  0.00    +0.000 OA
BRANCH   2  13
ATOM     12  N   UNL     1       2.370   7.361  18.556  0.00  0.00    +0.000 NA
ATOM     13  C   UNL     1       2.486   6.248  18.244  0.00  0.00    +0.000 C 
ENDBRANCH   2  13
ENDBRANCH   1  10
BRANCH   1  14
ATOM     14  C   UNL     1       6.152   5.538  16.911  0.00  0.00    +0.000 C 
BRANCH  14  15
ATOM     15  N   UNL     1       5.503   6.738  16.370  0.00  0.00    +0.000 NA
ATOM     16  H   UNL     1       6.028   7.568  16.671  0.00  0.00    +0.000 HD
ATOM     17  H   UNL     1       4.580   6.853  16.795  0.00  0.00    +0.000 HD
ENDBRANCH  14  15
BRANCH  14  18
ATOM     18  C   UNL     1       5.769   4.352  15.976  0.00  0.00    +0.000 C 
BRANCH  18  19
ATOM     19  C   UNL     1       6.286   4.402  14.564  0.00  0.00    +0.000 A 
ATOM     20  C   UNL     1       5.721   3.602  13.562  0.00  0.00    +0.000 A 
ATOM     21  C   UNL     1       6.230   3.621  12.262  0.00  0.00    +0.000 A 
ATOM     22  C   UNL     1       7.321   4.429  11.951  0.00  0.00    +0.000 A 
ATOM     23  C   UNL     1       7.895   5.208  12.946  0.00  0.00    +0.000 A 
ATOM     24  F   UNL     1       8.955   5.977  12.654  0.00  0.00    +0.000 F 
ATOM     25  C   UNL     1       7.392   5.202  14.243  0.00  0.00    +0.000 A 
ENDBRANCH  18  19
ENDBRANCH  14  18
ENDBRANCH   1  14
TORSDOF 6
ENDMDL
MODEL 2
REMARK VINA RESULT:      -8.2      1.162      1.529
REMARK  Name = 
REMARK  6 active torsions:
REMARK  status: ('A' for Active; 'I' for Inactive)
REMARK    1  A    between atoms: C_2  and  C_3
REMARK    2  A    between atoms: C_11  and  C_13
REMARK    3  A    between atoms: C_13  and  C_14
REMARK    4  A    between atoms: C_14  and  N_15
REMARK    5  A    between atoms: C_14  and  C_16
REMARK    6  A    between atoms: C_16  and  C_17
REMARK                            x       y       z     vdW  Elec       q    Type
REMARK                         _______ _______ _______ _____ _____    ______ ____
ROOT
ATOM      1  C   UNL     1       5.833   5.497  18.420  0.00  0.00    +0.000 C 
ENDROOT
BRANCH   1  10
ATOM      2  C   UNL     1       2.754   5.024  17.865  0.00  0.00    +0.000 C 
ATOM      3  C   UNL     1       1.431   4.235  17.808  0.00  0.00    +0.000 C 
ATOM      4  C   UNL     1       1.431   3.383  19.067  0.00  0.00    +0.000 C 
ATOM      5  C   UNL     1       1.019   4.129  20.336  0.00  0.00    +0.000 C 
ATOM      6  C   UNL     1       1.845   3.500  21.447  0.00  0.00    +0.000 C 
ATOM      7  C   UNL     1       3.031   2.810  20.775  0.00  0.00    +0.000 C 
ATOM      8  C   UNL     1       2.913   3.063  19.270  0.00  0.00    +0.000 C 
ATOM      9  N   UNL     1       3.631   4.237  18.745  0.00  0.00    +0.000 N 
ATOM     10  C   UNL     1       5.021   4.235  18.747  0.00  0.00    +0.000 C 
ATOM     11  O   UNL     1       5.627   3.235  19.157  0.00  0.00    +0.000 OA
BRANCH   2  13
ATOM     12  N   UNL     1       2.350   7.492  18.701  0.00  0.00    +0.000 NA
ATOM     13  C   UNL     1       2.547   6.411  18.326  0.00  0.00    +0.000 C 
ENDBRANCH   2  13
ENDBRANCH   1  10
BRANCH   1  14
ATOM     14  C   UNL     1       6.473   5.677  17.036  0.00  0.00    +0.000 C 
BRANCH  14  15
ATOM     15  N   UNL     1       6.979   7.043  16.857  0.00  0.00    +0.000 NA
ATOM     16  H   UNL     1       6.821   7.575  17.720  0.00  0.00    +0.000 HD
ATOM     17  H   UNL     1       6.419   7.528  16.152  0.00  0.00    +0.000 HD
ENDBRANCH  14  15
BRANCH  14  18
ATOM     18  C   UNL     1       5.491   5.395  15.860  0.00  0.00    +0.000 C 
BRANCH  18  19
ATOM     19  C   UNL     1       6.091   4.882  14.579  0.00  0.00    +0.000 A 
ATOM     20  C   UNL     1       7.299   5.397  14.093  0.00  0.00    +0.000 A 
ATOM     21  C   UNL     1       7.832   4.948  12.883  0.00  0.00    +0.000 A 
ATOM     22  C   UNL     1       7.155   3.988  12.136  0.00  0.00    +0.000 A 
ATOM     23  C   UNL     1       5.947   3.488  12.605  0.00  0.00    +0.000 A 
ATOM     24  F   UNL     1       5.285   2.573  11.881  0.00  0.00    +0.000 F 
ATOM     25  C   UNL     1       5.410   3.925  13.812  0.00  0.00    +0.000 A 
ENDBRANCH  18  19
ENDBRANCH  14  18
ENDBRANCH   1  14
TORSDOF 6
ENDMDL
MODEL 3
REMARK VINA RESULT:      -8.2      1.167      1.550
REMARK  Name = 
REMARK  6 active torsions:
REMARK  status: ('A' for Active; 'I' for Inactive)
REMARK    1  A    between atoms: C_2  and  C_3
REMARK    2  A    between atoms: C_11  and  C_13
REMARK    3  A    between atoms: C_13  and  C_14
REMARK    4  A    between atoms: C_14  and  N_15
REMARK    5  A    between atoms: C_14  and  C_16
REMARK    6  A    between atoms: C_16  and  C_17
REMARK                            x       y       z     vdW  Elec       q    Type
REMARK                         _______ _______ _______ _____ _____    ______ ____
ROOT
ATOM      1  C   UNL     1       5.781   5.282  19.162  0.00  0.00    +0.000 C 
ENDROOT
BRANCH   1  10
ATOM      2  C   UNL     1       2.814   4.992  18.100  0.00  0.00    +0.000 C 
ATOM      3  C   UNL     1       1.490   4.272  17.778  0.00  0.00    +0.000 C 
ATOM      4  C   UNL     1       1.260   3.336  18.954  0.00  0.00    +0.000 C 
ATOM      5  C   UNL     1       0.678   4.010  20.195  0.00  0.00    +0.000 C 
ATOM      6  C   UNL     1       1.295   3.269  21.371  0.00  0.00    +0.000 C 
ATOM      7  C   UNL     1       2.548   2.572  20.843  0.00  0.00    +0.000 C 
ATOM      8  C   UNL     1       2.679   2.933  19.361  0.00  0.00    +0.000 C 
ATOM      9  N   UNL     1       3.512   4.107  19.044  0.00  0.00    +0.000 N 
ATOM     10  C   UNL     1       4.883   4.040  19.262  0.00  0.00    +0.000 C 
ATOM     11  O   UNL     1       5.381   2.986  19.685  0.00  0.00    +0.000 OA
BRANCH   2  13
ATOM     12  N   UNL     1       2.370   7.412  19.051  0.00  0.00    +0.000 NA
ATOM     13  C   UNL     1       2.585   6.352  18.627  0.00  0.00    +0.000 C 
ENDBRANCH   2  13
ENDBRANCH   1  10
BRANCH   1  14
ATOM     14  C   UNL     1       7.184   5.184  18.546  0.00  0.00    +0.000 C 
BRANCH  14  15
ATOM     15  N   UNL     1       8.205   5.704  19.463  0.00  0.00    +0.000 NA
ATOM     16  H   UNL     1       8.847   4.944  19.716  0.00  0.00    +0.000 HD
ATOM     17  H   UNL     1       7.770   5.975  20.347  0.00  0.00    +0.000 HD
ENDBRANCH  14  15
BRANCH  14  18
ATOM     18  C   UNL     1       7.328   5.970  17.209  0.00  0.00    +0.000 C 
BRANCH  18  19
ATOM     19  C   UNL     1       6.901   5.262  15.952  0.00  0.00    +0.000 A 
ATOM     20  C   UNL     1       5.910   4.272  15.985  0.00  0.00    +0.000 A 
ATOM     21  C   UNL     1       5.546   3.587  14.824  0.00  0.00    +0.000 A 
ATOM     22  C   UNL     1       6.179   3.873  13.617  0.00  0.00    +0.000 A 
ATOM     23  C   UNL     1       7.176   4.840  13.584  0.00  0.00    +0.000 A 
ATOM     24  F   UNL     1       7.797   5.108  12.426  0.00  0.00    +0.000 F 
ATOM     25  C   UNL     1       7.542   5.532  14.734  0.00  0.00    +0.000 A 
ENDBRANCH  18  19
ENDBRANCH  14  18
ENDBRANCH   1  14
TORSDOF 6
ENDMDL
MODEL 4
REMARK VINA RESULT:      -8.1      1.917      2.362
REMARK  Name = 
REMARK  6 active torsions:
REMARK  status: ('A' for Active; 'I' for Inactive)
REMARK    1  A    between atoms: C_2  and  C_3
REMARK    2  A    between atoms: C_11  and  C_13
REMARK    3  A    between atoms: C_13  and  C_14
REMARK    4  A    between atoms: C_14  and  N_15
REMARK    5  A    between atoms: C_14  and  C_16
REMARK    6  A    between atoms: C_16  and  C_17
REMARK                            x       y       z     vdW  Elec       q    Type
REMARK                         _______ _______ _______ _____ _____    ______ ____
ROOT
ATOM      1  C   UNL     1       5.739   5.108  19.542  0.00  0.00    +0.000 C 
ENDROOT
BRANCH   1  10
ATOM      2  C   UNL     1       2.853   5.012  18.249  0.00  0.00    +0.000 C 
ATOM      3  C   UNL     1       1.549   4.363  17.745  0.00  0.00    +0.000 C 
ATOM      4  C   UNL     1       1.227   3.288  18.771  0.00  0.00    +0.000 C 
ATOM      5  C   UNL     1       0.565   3.808  20.046  0.00  0.00    +0.000 C 
ATOM      6  C   UNL     1       1.089   2.910  21.156  0.00  0.00    +0.000 C 
ATOM      7  C   UNL     1       2.370   2.264  20.629  0.00  0.00    +0.000 C 
ATOM      8  C   UNL     1       2.609   2.811  19.220  0.00  0.00    +0.000 C 
ATOM      9  N   UNL     1       3.474   3.999  19.116  0.00  0.00    +0.000 N 
ATOM     10  C   UNL     1       4.825   3.880  19.418  0.00  0.00    +0.000 C 
ATOM     11  O   UNL     1       5.282   2.772  19.735  0.00  0.00    +0.000 OA
BRANCH   2  13
ATOM     12  N   UNL     1       2.392   7.289  19.497  0.00  0.00    +0.000 NA
ATOM     13  C   UNL     1       2.599   6.296  18.930  0.00  0.00    +0.000 C 
ENDBRANCH   2  13
ENDBRANCH   1  10
BRANCH   1  14
ATOM     14  C   UNL     1       7.262   4.963  19.413  0.00  0.00    +0.000 C 
BRANCH  14  15
ATOM     15  N   UNL     1       7.958   5.670  20.495  0.00  0.00    +0.000 NA
ATOM     16  H   UNL     1       7.951   6.677  20.296  0.00  0.00    +0.000 HD
ATOM     17  H   UNL     1       8.948   5.416  20.493  0.00  0.00    +0.000 HD
ENDBRANCH  14  15
BRANCH  14  18
ATOM     18  C   UNL     1       7.824   5.519  18.070  0.00  0.00    +0.000 C 
BRANCH  18  19
ATOM     19  C   UNL     1       6.961   5.352  16.849  0.00  0.00    +0.000 A 
ATOM     20  C   UNL     1       7.044   4.196  16.062  0.00  0.00    +0.000 A 
ATOM     21  C   UNL     1       6.271   4.061  14.907  0.00  0.00    +0.000 A 
ATOM     22  C   UNL     1       5.416   5.088  14.515  0.00  0.00    +0.000 A 
ATOM     23  C   UNL     1       5.345   6.244  15.283  0.00  0.00    +0.000 A 
ATOM     24  F   UNL     1       4.533   7.241  14.901  0.00  0.00    +0.000 F 
ATOM     25  C   UNL     1       6.106   6.386  16.438  0.00  0.00    +0.000 A 
ENDBRANCH  18  19
ENDBRANCH  14  18
ENDBRANCH   1  14
TORSDOF 6
ENDMDL
MODEL 5
REMARK VINA RESULT:      -7.7      1.629      2.164
REMARK  Name = 
REMARK  6 active torsions:
REMARK  status: ('A' for Active; 'I' for Inactive)
REMARK    1  A    between atoms: C_2  and  C_3
REMARK    2  A    between atoms: C_11  and  C_13
REMARK    3  A    between atoms: C_13  and  C_14
REMARK    4  A    between atoms: C_14  and  N_15
REMARK    5  A    between atoms: C_14  and  C_16
REMARK    6  A    between atoms: C_16  and  C_17
REMARK                            x       y       z     vdW  Elec       q    Type
REMARK                         _______ _______ _______ _____ _____    ______ ____
ROOT
ATOM      1  C   UNL     1       5.826   5.303  19.246  0.00  0.00    +0.000 C 
ENDROOT
BRANCH   1  10
ATOM      2  C   UNL     1       2.892   5.020  18.097  0.00  0.00    +0.000 C 
ATOM      3  C   UNL     1       1.582   4.299  17.723  0.00  0.00    +0.000 C 
ATOM      4  C   UNL     1       1.326   3.335  18.870  0.00  0.00    +0.000 C 
ATOM      5  C   UNL     1       0.706   3.978  20.110  0.00  0.00    +0.000 C 
ATOM      6  C   UNL     1       1.295   3.214  21.286  0.00  0.00    +0.000 C 
ATOM      7  C   UNL     1       2.567   2.537  20.776  0.00  0.00    +0.000 C 
ATOM      8  C   UNL     1       2.736   2.932  19.307  0.00  0.00    +0.000 C 
ATOM      9  N   UNL     1       3.570   4.118  19.040  0.00  0.00    +0.000 N 
ATOM     10  C   UNL     1       4.935   4.054  19.293  0.00  0.00    +0.000 C 
ATOM     11  O   UNL     1       5.428   2.994  19.706  0.00  0.00    +0.000 OA
BRANCH   2  13
ATOM     12  N   UNL     1       2.459   7.416  19.111  0.00  0.00    +0.000 NA
ATOM     13  C   UNL     1       2.639   6.366  18.647  0.00  0.00    +0.000 C 
ENDBRANCH   2  13
ENDBRANCH   1  10
BRANCH   1  14
ATOM     14  C   UNL     1       7.350   5.170  19.112  0.00  0.00    +0.000 C 
BRANCH  14  15
ATOM     15  N   UNL     1       8.014   6.469  19.275  0.00  0.00    +0.000 NA
ATOM     16  H   UNL     1       8.326   6.567  20.247  0.00  0.00    +0.000 HD
ATOM     17  H   UNL     1       7.336   7.222  19.146  0.00  0.00    +0.000 HD
ENDBRANCH  14  15
BRANCH  14  18
ATOM     18  C   UNL     1       7.802   4.596  17.736  0.00  0.00    +0.000 C 
BRANCH  18  19
ATOM     19  C   UNL     1       6.927   4.899  16.550  0.00  0.00    +0.000 A 
ATOM     20  C   UNL     1       6.156   6.068  16.506  0.00  0.00    +0.000 A 
ATOM     21  C   UNL     1       5.313   6.327  15.423  0.00  0.00    +0.000 A 
ATOM     22  C   UNL     1       5.219   5.412  14.377  0.00  0.00    +0.000 A 
ATOM     23  C   UNL     1       5.968   4.243  14.427  0.00  0.00    +0.000 A 
ATOM     24  F   UNL     1       5.870   3.353  13.428  0.00  0.00    +0.000 F 
ATOM     25  C   UNL     1       6.815   3.978  15.498  0.00  0.00    +0.000 A 
ENDBRANCH  18  19
ENDBRANCH  14  18
ENDBRANCH   1  14
TORSDOF 6
ENDMDL
MODEL 6
REMARK VINA RESULT:      -7.6      2.853      6.962
REMARK  Name = 
REMARK  6 active torsions:
REMARK  status: ('A' for Active; 'I' for Inactive)
REMARK    1  A    between atoms: C_2  and  C_3
REMARK    2  A    between atoms: C_11  and  C_13
REMARK    3  A    between atoms: C_13  and  C_14
REMARK    4  A    between atoms: C_14  and  N_15
REMARK    5  A    between atoms: C_14  and  C_16
REMARK    6  A    between atoms: C_16  and  C_17
REMARK                            x       y       z     vdW  Elec       q    Type
REMARK                         _______ _______ _______ _____ _____    ______ ____
ROOT
ATOM      1  C   UNL     1       3.725   6.818  18.251  0.00  0.00    +0.000 C 
ENDROOT
BRANCH   1  10
ATOM      2  C   UNL     1       6.640   5.652  17.853  0.00  0.00    +0.000 C 
ATOM      3  C   UNL     1       7.707   4.623  17.431  0.00  0.00    +0.000 C 
ATOM      4  C   UNL     1       7.196   4.046  16.121  0.00  0.00    +0.000 C 
ATOM      5  C   UNL     1       7.454   4.927  14.899  0.00  0.00    +0.000 C 
ATOM      6  C   UNL     1       6.256   4.699  13.990  0.00  0.00    +0.000 C 
ATOM      7  C   UNL     1       5.138   4.140  14.868  0.00  0.00    +0.000 C 
ATOM      8  C   UNL     1       5.676   4.069  16.299  0.00  0.00    +0.000 C 
ATOM      9  N   UNL     1       5.412   5.238  17.157  0.00  0.00    +0.000 N 
ATOM     10  C   UNL     1       4.105   5.508  17.545  0.00  0.00    +0.000 C 
ATOM     11  O   UNL     1       3.195   4.745  17.191  0.00  0.00    +0.000 OA
BRANCH   2  13
ATOM     12  N   UNL     1       7.419   8.111  17.303  0.00  0.00    +0.000 NA
ATOM     13  C   UNL     1       7.056   7.033  17.542  0.00  0.00    +0.000 C 
ENDBRANCH   2  13
ENDBRANCH   1  10
BRANCH   1  14
ATOM     14  C   UNL     1       2.283   7.063  18.719  0.00  0.00    +0.000 C 
BRANCH  14  15
ATOM     15  N   UNL     1       1.939   8.488  18.660  0.00  0.00    +0.000 NA
ATOM     16  H   UNL     1       2.712   9.036  19.054  0.00  0.00    +0.000 HD
ATOM     17  H   UNL     1       1.149   8.679  19.280  0.00  0.00    +0.000 HD
ENDBRANCH  14  15
BRANCH  14  18
ATOM     18  C   UNL     1       2.019   6.590  20.180  0.00  0.00    +0.000 C 
BRANCH  18  19
ATOM     19  C   UNL     1       1.815   5.114  20.392  0.00  0.00    +0.000 A 
ATOM     20  C   UNL     1       2.414   4.453  21.472  0.00  0.00    +0.000 A 
ATOM     21  C   UNL     1       2.256   3.076  21.643  0.00  0.00    +0.000 A 
ATOM     22  C   UNL     1       1.510   2.340  20.726  0.00  0.00    +0.000 A 
ATOM     23  C   UNL     1       0.931   2.989  19.643  0.00  0.00    +0.000 A 
ATOM     24  F   UNL     1       0.223   2.281  18.751  0.00  0.00    +0.000 F 
ATOM     25  C   UNL     1       1.077   4.361  19.467  0.00  0.00    +0.000 A 
ENDBRANCH  18  19
ENDBRANCH  14  18
ENDBRANCH   1  14
TORSDOF 6
ENDMDL
MODEL 7
REMARK VINA RESULT:      -7.3      1.881      3.006
REMARK  Name = 
REMARK  6 active torsions:
REMARK  status: ('A' for Active; 'I' for Inactive)
REMARK    1  A    between atoms: C_2  and  C_3
REMARK    2  A    between atoms: C_11  and  C_13
REMARK    3  A    between atoms: C_13  and  C_14
REMARK    4  A    between atoms: C_14  and  N_15
REMARK    5  A    between atoms: C_14  and  C_16
REMARK    6  A    between atoms: C_16  and  C_17
REMARK                            x       y       z     vdW  Elec       q    Type
REMARK                         _______ _______ _______ _____ _____    ______ ____
ROOT
ATOM      1  C   UNL     1       5.473   4.990  18.361  0.00  0.00    +0.000 C 
ENDROOT
BRANCH   1  10
ATOM      2  C   UNL     1       3.647   3.785  20.647  0.00  0.00    +0.000 C 
ATOM      3  C   UNL     1       2.349   3.543  21.442  0.00  0.00    +0.000 C 
ATOM      4  C   UNL     1       1.260   3.433  20.385  0.00  0.00    +0.000 C 
ATOM      5  C   UNL     1       1.182   2.070  19.697  0.00  0.00    +0.000 C 
ATOM      6  C   UNL     1       0.760   2.375  18.268  0.00  0.00    +0.000 C 
ATOM      7  C   UNL     1       1.093   3.845  18.017  0.00  0.00    +0.000 C 
ATOM      8  C   UNL     1       1.738   4.391  19.293  0.00  0.00    +0.000 C 
ATOM      9  N   UNL     1       3.209   4.338  19.357  0.00  0.00    +0.000 N 
ATOM     10  C   UNL     1       3.952   5.146  18.504  0.00  0.00    +0.000 C 
ATOM     11  O   UNL     1       3.364   5.918  17.732  0.00  0.00    +0.000 OA
BRANCH   2  13
ATOM     12  N   UNL     1       5.111   1.602  20.421  0.00  0.00    +0.000 NA
ATOM     13  C   UNL     1       4.449   2.552  20.519  0.00  0.00    +0.000 C 
ENDBRANCH   2  13
ENDBRANCH   1  10
BRANCH   1  14
ATOM     14  C   UNL     1       6.082   4.437  17.065  0.00  0.00    +0.000 C 
BRANCH  14  15
ATOM     15  N   UNL     1       7.498   4.096  17.246  0.00  0.00    +0.000 NA
ATOM     16  H   UNL     1       7.936   3.980  16.325  0.00  0.00    +0.000 HD
ATOM     17  H   UNL     1       7.579   3.176  17.684  0.00  0.00    +0.000 HD
ENDBRANCH  14  15
BRANCH  14  18
ATOM     18  C   UNL     1       6.002   5.434  15.870  0.00  0.00    +0.000 C 
BRANCH  18  19
ATOM     19  C   UNL     1       6.397   4.908  14.517  0.00  0.00    +0.000 A 
ATOM     20  C   UNL     1       7.490   5.448  13.825  0.00  0.00    +0.000 A 
ATOM     21  C   UNL     1       7.828   4.986  12.552  0.00  0.00    +0.000 A 
ATOM     22  C   UNL     1       7.069   3.988  11.947  0.00  0.00    +0.000 A 
ATOM     23  C   UNL     1       5.973   3.464  12.621  0.00  0.00    +0.000 A 
ATOM     24  F   UNL     1       5.231   2.512  12.035  0.00  0.00    +0.000 F 
ATOM     25  C   UNL     1       5.631   3.913  13.892  0.00  0.00    +0.000 A 
ENDBRANCH  18  19
ENDBRANCH  14  18
ENDBRANCH   1  14
TORSDOF 6
ENDMDL
MODEL 8
REMARK VINA RESULT:      -7.3      4.900      7.816
REMARK  Name = 
REMARK  6 active torsions:
REMARK  status: ('A' for Active; 'I' for Inactive)
REMARK    1  A    between atoms: C_2  and  C_3
REMARK    2  A    between atoms: C_11  and  C_13
REMARK    3  A    between atoms: C_13  and  C_14
REMARK    4  A    between atoms: C_14  and  N_15
REMARK    5  A    between atoms: C_14  and  C_16
REMARK    6  A    between atoms: C_16  and  C_17
REMARK                            x       y       z     vdW  Elec       q    Type
REMARK                         _______ _______ _______ _____ _____    ______ ____
ROOT
ATOM      1  C   UNL     1       1.998   8.215  18.647  0.00  0.00    +0.000 C 
ENDROOT
BRANCH   1  10
ATOM      2  C   UNL     1       2.103   5.076  18.258  0.00  0.00    +0.000 C 
ATOM      3  C   UNL     1       2.606   3.737  17.684  0.00  0.00    +0.000 C 
ATOM      4  C   UNL     1       4.116   3.892  17.600  0.00  0.00    +0.000 C 
ATOM      5  C   UNL     1       4.848   3.685  18.925  0.00  0.00    +0.000 C 
ATOM      6  C   UNL     1       6.028   4.643  18.877  0.00  0.00    +0.000 C 
ATOM      7  C   UNL     1       5.691   5.703  17.829  0.00  0.00    +0.000 C 
ATOM      8  C   UNL     1       4.297   5.379  17.287  0.00  0.00    +0.000 C 
ATOM      9  N   UNL     1       3.164   6.048  17.951  0.00  0.00    +0.000 N 
ATOM     10  C   UNL     1       3.017   7.423  17.815  0.00  0.00    +0.000 C 
ATOM     11  O   UNL     1       3.820   8.054  17.112  0.00  0.00    +0.000 OA
BRANCH   2  13
ATOM     12  N   UNL     1       1.567   4.860  20.831  0.00  0.00    +0.000 NA
ATOM     13  C   UNL     1       1.795   4.974  19.698  0.00  0.00    +0.000 C 
ENDBRANCH   2  13
ENDBRANCH   1  10
BRANCH   1  14
ATOM     14  C   UNL     1       1.199   9.364  18.015  0.00  0.00    +0.000 C 
BRANCH  14  15
ATOM     15  N   UNL     1       2.084  10.452  17.581  0.00  0.00    +0.000 NA
ATOM     16  H   UNL     1       3.060  10.162  17.710  0.00  0.00    +0.000 HD
ATOM     17  H   UNL     1       1.972  11.256  18.201  0.00  0.00    +0.000 HD
ENDBRANCH  14  15
BRANCH  14  18
ATOM     18  C   UNL     1       0.147   9.989  18.979  0.00  0.00    +0.000 C 
BRANCH  18  19
ATOM     19  C   UNL     1      -1.169  10.400  18.378  0.00  0.00    +0.000 A 
ATOM     20  C   UNL     1      -1.987  11.345  19.012  0.00  0.00    +0.000 A 
ATOM     21  C   UNL     1      -3.226  11.694  18.473  0.00  0.00    +0.000 A 
ATOM     22  C   UNL     1      -3.672  11.090  17.299  0.00  0.00    +0.000 A 
ATOM     23  C   UNL     1      -2.873  10.139  16.678  0.00  0.00    +0.000 A 
ATOM     24  F   UNL     1      -3.304   9.545  15.555  0.00  0.00    +0.000 F 
ATOM     25  C   UNL     1      -1.634   9.789  17.204  0.00  0.00    +0.000 A 
ENDBRANCH  18  19
ENDBRANCH  14  18
ENDBRANCH   1  14
TORSDOF 6
ENDMDL
MODEL 9
REMARK VINA RESULT:      -7.2      1.631      2.079
REMARK  Name = 
REMARK  6 active torsions:
REMARK  status: ('A' for Active; 'I' for Inactive)
REMARK    1  A    between atoms: C_2  and  C_3
REMARK    2  A    between atoms: C_11  and  C_13
REMARK    3  A    between atoms: C_13  and  C_14
REMARK    4  A    between atoms: C_14  and  N_15
REMARK    5  A    between atoms: C_14  and  C_16
REMARK    6  A    between atoms: C_16  and  C_17
REMARK                            x       y       z     vdW  Elec       q    Type
REMARK                         _______ _______ _______ _____ _____    ______ ____
ROOT
ATOM      1  C   UNL     1       5.738   5.470  19.171  0.00  0.00    +0.000 C 
ENDROOT
BRANCH   1  10
ATOM      2  C   UNL     1       2.775   5.121  18.115  0.00  0.00    +0.000 C 
ATOM      3  C   UNL     1       1.475   4.369  17.769  0.00  0.00    +0.000 C 
ATOM      4  C   UNL     1       1.289   3.372  18.902  0.00  0.00    +0.000 C 
ATOM      5  C   UNL     1       0.693   3.967  20.177  0.00  0.00    +0.000 C 
ATOM      6  C   UNL     1       1.346   3.195  21.314  0.00  0.00    +0.000 C 
ATOM      7  C   UNL     1       2.619   2.570  20.745  0.00  0.00    +0.000 C 
ATOM      8  C   UNL     1       2.724   3.003  19.281  0.00  0.00    +0.000 C 
ATOM      9  N   UNL     1       3.512   4.220  19.013  0.00  0.00    +0.000 N 
ATOM     10  C   UNL     1       4.887   4.192  19.219  0.00  0.00    +0.000 C 
ATOM     11  O   UNL     1       5.426   3.140  19.590  0.00  0.00    +0.000 OA
BRANCH   2  13
ATOM     12  N   UNL     1       2.315   7.485  19.192  0.00  0.00    +0.000 NA
ATOM     13  C   UNL     1       2.501   6.446  18.706  0.00  0.00    +0.000 C 
ENDBRANCH   2  13
ENDBRANCH   1  10
BRANCH   1  14
ATOM     14  C   UNL     1       7.132   5.455  18.528  0.00  0.00    +0.000 C 
BRANCH  14  15
ATOM     15  N   UNL     1       8.140   6.026  19.429  0.00  0.00    +0.000 NA
ATOM     16  H   UNL     1       7.861   5.847  20.400  0.00  0.00    +0.000 HD
ATOM     17  H   UNL     1       8.140   7.044  19.347  0.00  0.00    +0.000 HD
ENDBRANCH  14  15
BRANCH  14  18
ATOM     18  C   UNL     1       7.206   6.257  17.194  0.00  0.00    +0.000 C 
BRANCH  18  19
ATOM     19  C   UNL     1       6.892   5.506  15.929  0.00  0.00    +0.000 A 
ATOM     20  C   UNL     1       7.803   5.477  14.865  0.00  0.00    +0.000 A 
ATOM     21  C   UNL     1       7.492   4.813  13.676  0.00  0.00    +0.000 A 
ATOM     22  C   UNL     1       6.258   4.184  13.530  0.00  0.00    +0.000 A 
ATOM     23  C   UNL     1       5.345   4.228  14.576  0.00  0.00    +0.000 A 
ATOM     24  F   UNL     1       4.150   3.635  14.434  0.00  0.00    +0.000 F 
ATOM     25  C   UNL     1       5.647   4.881  15.766  0.00  0.00    +0.000 A 
ENDBRANCH  18  19
ENDBRANCH  14  18
ENDBRANCH   1  14
TORSDOF 6
ENDMDL
