MODEL 1
REMARK VINA RESULT:      -9.5      0.000      0.000
REMARK  Name = 
REMARK  4 active torsions:
REMARK  status: ('A' for Active; 'I' for Inactive)
REMARK    1  A    between atoms: C_1  and  C_2
REMARK    2  A    between atoms: C_2  and  C_4
REMARK    3  A    between atoms: C_7  and  N_8
REMARK    4  A    between atoms: N_8  and  C_9
REMARK                            x       y       z     vdW  Elec       q    Type
REMARK                         _______ _______ _______ _____ _____    ______ ____
ROOT
ATOM      1  C   UNL     1       4.237   5.822  17.882  0.00  0.00    +0.000 A 
ATOM      2  C   UNL     1       5.587   6.274  17.994  0.00  0.00    +0.000 A 
ATOM      3  C   UNL     1       6.067   7.377  17.261  0.00  0.00    +0.000 A 
ATOM      4  C   UNL     1       7.386   7.809  17.385  0.00  0.00    +0.000 A 
ATOM      5  C   UNL     1       8.237   7.137  18.249  0.00  0.00    +0.000 A 
ATOM      6  C   UNL     1       7.764   6.045  18.983  0.00  0.00    +0.000 A 
ATOM      7  C   UNL     1       6.452   5.595  18.879  0.00  0.00    +0.000 A 
ATOM      8  N   UNL     1       6.068   4.605  19.691  0.00  0.00    +0.000 NA
ATOM      9  C   UNL     1       4.803   4.184  19.501  0.00  0.00    +0.000 A 
ATOM     10  O   UNL     1       4.155   3.367  20.387  0.00  0.00    +0.000 OA
ATOM     11  C   UNL     1       2.919   3.162  19.880  0.00  0.00    +0.000 A 
ATOM     12  C   UNL     1       1.871   2.508  20.533  0.00  0.00    +0.000 A 
ATOM     13  C   UNL     1       0.719   2.258  19.777  0.00  0.00    +0.000 A 
ATOM     14  C   UNL     1       0.676   2.568  18.420  0.00  0.00    +0.000 A 
ATOM     15  C   UNL     1       1.722   3.283  17.824  0.00  0.00    +0.000 A 
ATOM     16  C   UNL     1       2.816   3.694  18.609  0.00  0.00    +0.000 A 
ATOM     17  C   UNL     1       3.914   4.601  18.518  0.00  0.00    +0.000 A 
ENDROOT
BRANCH   1  18
ATOM     18  N   UNL     1       3.257   6.828  17.562  0.00  0.00    +0.000 N 
ATOM     19  H   UNL     1       3.749   7.475  16.934  0.00  0.00    +0.000 HD
BRANCH  18  23
ATOM     20  C   UNL     1       1.108   9.088  20.395  0.00  0.00    +0.000 A 
ATOM     21  C   UNL     1       1.211   9.551  19.075  0.00  0.00    +0.000 A 
ATOM     22  C   UNL     1       1.899   8.788  18.124  0.00  0.00    +0.000 A 
ATOM     23  C   UNL     1       2.486   7.565  18.476  0.00  0.00    +0.000 A 
ATOM     24  C   UNL     1       2.286   7.060  19.756  0.00  0.00    +0.000 A 
ATOM     25  C   UNL     1       1.620   7.824  20.714  0.00  0.00    +0.000 A 
BRANCH  20  27
ATOM     26  C   UNL     1      -0.370   9.237  22.514  0.00  0.00    +0.000 C 
ATOM     27  C   UNL     1       0.517   9.901  21.498  0.00  0.00    +0.000 C 
ATOM     28  O   UNL     1       0.761  11.103  21.563  0.00  0.00    +0.000 OA
ENDBRANCH  20  27
ENDBRANCH  18  23
ENDBRANCH   1  18
TORSDOF 3
ENDMDL
MODEL 2
REMARK VINA RESULT:      -9.4      0.400      1.010
REMARK  Name = 
REMARK  4 active torsions:
REMARK  status: ('A' for Active; 'I' for Inactive)
REMARK    1  A    between atoms: C_1  and  C_2
REMARK    2  A    between atoms: C_2  and  C_4
REMARK    3  A    between atoms: C_7  and  N_8
REMARK    4  A    between atoms: N_8  and  C_9
REMARK                            x       y       z     vdW  Elec       q    Type
REMARK                         _______ _______ _______ _____ _____    ______ ____
ROOT
ATOM      1  C   UNL     1       4.199   5.822  17.904  0.00  0.00    +0.000 A 
ATOM      2  C   UNL     1       5.552   6.266  18.001  0.00  0.00    +0.000 A 
ATOM      3  C   UNL     1       6.029   7.370  17.266  0.00  0.00    +0.000 A 
ATOM      4  C   UNL     1       7.352   7.794  17.375  0.00  0.00    +0.000 A 
ATOM      5  C   UNL     1       8.210   7.115  18.226  0.00  0.00    +0.000 A 
ATOM      6  C   UNL     1       7.741   6.023  18.962  0.00  0.00    +0.000 A 
ATOM      7  C   UNL     1       6.425   5.580  18.873  0.00  0.00    +0.000 A 
ATOM      8  N   UNL     1       6.046   4.589  19.686  0.00  0.00    +0.000 NA
ATOM      9  C   UNL     1       4.777   4.176  19.511  0.00  0.00    +0.000 A 
ATOM     10  O   UNL     1       4.135   3.360  20.402  0.00  0.00    +0.000 OA
ATOM     11  C   UNL     1       2.891   3.163  19.910  0.00  0.00    +0.000 A 
ATOM     12  C   UNL     1       1.848   2.512  20.573  0.00  0.00    +0.000 A 
ATOM     13  C   UNL     1       0.685   2.270  19.831  0.00  0.00    +0.000 A 
ATOM     14  C   UNL     1       0.628   2.585  18.476  0.00  0.00    +0.000 A 
ATOM     15  C   UNL     1       1.670   3.296  17.869  0.00  0.00    +0.000 A 
ATOM     16  C   UNL     1       2.776   3.699  18.642  0.00  0.00    +0.000 A 
ATOM     17  C   UNL     1       3.877   4.601  18.541  0.00  0.00    +0.000 A 
ENDROOT
BRANCH   1  18
ATOM     18  N   UNL     1       3.220   6.835  17.600  0.00  0.00    +0.000 N 
ATOM     19  H   UNL     1       3.694   7.456  16.933  0.00  0.00    +0.000 HD
BRANCH  18  23
ATOM     20  C   UNL     1       0.900   9.106  20.285  0.00  0.00    +0.000 A 
ATOM     21  C   UNL     1       1.480   7.904  20.717  0.00  0.00    +0.000 A 
ATOM     22  C   UNL     1       2.276   7.162  19.837  0.00  0.00    +0.000 A 
ATOM     23  C   UNL     1       2.501   7.607  18.526  0.00  0.00    +0.000 A 
ATOM     24  C   UNL     1       2.016   8.852  18.141  0.00  0.00    +0.000 A 
ATOM     25  C   UNL     1       1.204   9.586  19.005  0.00  0.00    +0.000 A 
BRANCH  20  27
ATOM     26  C   UNL     1      -0.172   9.614  22.586  0.00  0.00    +0.000 C 
ATOM     27  C   UNL     1      -0.070   9.883  21.110  0.00  0.00    +0.000 C 
ATOM     28  O   UNL     1      -0.776  10.734  20.574  0.00  0.00    +0.000 OA
ENDBRANCH  20  27
ENDBRANCH  18  23
ENDBRANCH   1  18
TORSDOF 3
ENDMDL
MODEL 3
REMARK VINA RESULT:      -8.8      2.816      6.762
REMARK  Name = 
REMARK  4 active torsions:
REMARK  status: ('A' for Active; 'I' for Inactive)
REMARK    1  A    between atoms: C_1  and  C_2
REMARK    2  A    between atoms: C_2  and  C_4
REMARK    3  A    between atoms: C_7  and  N_8
REMARK    4  A    between atoms: N_8  and  C_9
REMARK                            x       y       z     vdW  Elec       q    Type
REMARK                         _______ _______ _______ _____ _____    ______ ____
ROOT
ATOM      1  C   UNL     1       3.586   5.579  19.207  0.00  0.00    +0.000 A 
ATOM      2  C   UNL     1       3.502   4.324  19.881  0.00  0.00    +0.000 A 
ATOM      3  C   UNL     1       4.399   3.271  19.611  0.00  0.00    +0.000 A 
ATOM      4  C   UNL     1       4.306   2.053  20.282  0.00  0.00    +0.000 A 
ATOM      5  C   UNL     1       3.312   1.881  21.233  0.00  0.00    +0.000 A 
ATOM      6  C   UNL     1       2.424   2.924  21.509  0.00  0.00    +0.000 A 
ATOM      7  C   UNL     1       2.495   4.150  20.855  0.00  0.00    +0.000 A 
ATOM      8  N   UNL     1       1.663   5.117  21.255  0.00  0.00    +0.000 NA
ATOM      9  C   UNL     1       1.750   6.258  20.546  0.00  0.00    +0.000 A 
ATOM     10  O   UNL     1       1.171   7.428  20.956  0.00  0.00    +0.000 OA
ATOM     11  C   UNL     1       1.469   8.350  20.012  0.00  0.00    +0.000 A 
ATOM     12  C   UNL     1       1.204   9.719  20.100  0.00  0.00    +0.000 A 
ATOM     13  C   UNL     1       1.445  10.481  18.950  0.00  0.00    +0.000 A 
ATOM     14  C   UNL     1       1.840   9.871  17.762  0.00  0.00    +0.000 A 
ATOM     15  C   UNL     1       2.158   8.508  17.737  0.00  0.00    +0.000 A 
ATOM     16  C   UNL     1       2.085   7.757  18.926  0.00  0.00    +0.000 A 
ATOM     17  C   UNL     1       2.529   6.495  19.420  0.00  0.00    +0.000 A 
ENDROOT
BRANCH   1  18
ATOM     18  N   UNL     1       4.901   5.979  18.775  0.00  0.00    +0.000 N 
ATOM     19  H   UNL     1       4.966   6.970  19.035  0.00  0.00    +0.000 HD
BRANCH  18  23
ATOM     20  C   UNL     1       6.481   5.253  14.937  0.00  0.00    +0.000 A 
ATOM     21  C   UNL     1       5.386   6.116  15.082  0.00  0.00    +0.000 A 
ATOM     22  C   UNL     1       4.876   6.383  16.358  0.00  0.00    +0.000 A 
ATOM     23  C   UNL     1       5.451   5.797  17.496  0.00  0.00    +0.000 A 
ATOM     24  C   UNL     1       6.604   5.033  17.355  0.00  0.00    +0.000 A 
ATOM     25  C   UNL     1       7.104   4.746  16.085  0.00  0.00    +0.000 A 
BRANCH  20  27
ATOM     26  C   UNL     1       6.334   3.654  12.907  0.00  0.00    +0.000 C 
ATOM     27  C   UNL     1       6.996   4.807  13.609  0.00  0.00    +0.000 C 
ATOM     28  O   UNL     1       7.955   5.386  13.105  0.00  0.00    +0.000 OA
ENDBRANCH  20  27
ENDBRANCH  18  23
ENDBRANCH   1  18
TORSDOF 3
ENDMDL
MODEL 4
REMARK VINA RESULT:      -8.8      1.654      5.043
REMARK  Name = 
REMARK  4 active torsions:
REMARK  status: ('A' for Active; 'I' for Inactive)
REMARK    1  A    between atoms: C_1  and  C_2
REMARK    2  A    between atoms: C_2  and  C_4
REMARK    3  A    between atoms: C_7  and  N_8
REMARK    4  A    between atoms: N_8  and  C_9
REMARK                            x       y       z     vdW  Elec       q    Type
REMARK                         _______ _______ _______ _____ _____    ______ ____
ROOT
ATOM      1  C   UNL     1       3.554   4.927  19.511  0.00  0.00    +0.000 A 
ATOM      2  C   UNL     1       2.513   3.962  19.362  0.00  0.00    +0.000 A 
ATOM      3  C   UNL     1       1.493   3.811  20.323  0.00  0.00    +0.000 A 
ATOM      4  C   UNL     1       0.482   2.867  20.161  0.00  0.00    +0.000 A 
ATOM      5  C   UNL     1       0.482   2.066  19.029  0.00  0.00    +0.000 A 
ATOM      6  C   UNL     1       1.488   2.215  18.070  0.00  0.00    +0.000 A 
ATOM      7  C   UNL     1       2.508   3.151  18.207  0.00  0.00    +0.000 A 
ATOM      8  N   UNL     1       3.369   3.285  17.193  0.00  0.00    +0.000 NA
ATOM      9  C   UNL     1       4.360   4.169  17.413  0.00  0.00    +0.000 A 
ATOM     10  O   UNL     1       5.179   4.625  16.416  0.00  0.00    +0.000 OA
ATOM     11  C   UNL     1       6.038   5.493  16.997  0.00  0.00    +0.000 A 
ATOM     12  C   UNL     1       6.953   6.306  16.323  0.00  0.00    +0.000 A 
ATOM     13  C   UNL     1       7.863   7.018  17.114  0.00  0.00    +0.000 A 
ATOM     14  C   UNL     1       7.899   6.837  18.495  0.00  0.00    +0.000 A 
ATOM     15  C   UNL     1       6.922   6.065  19.134  0.00  0.00    +0.000 A 
ATOM     16  C   UNL     1       5.894   5.478  18.371  0.00  0.00    +0.000 A 
ATOM     17  C   UNL     1       4.622   4.869  18.585  0.00  0.00    +0.000 A 
ENDROOT
BRANCH   1  18
ATOM     18  N   UNL     1       3.213   6.119  20.247  0.00  0.00    +0.000 N 
ATOM     19  H   UNL     1       2.815   5.771  21.127  0.00  0.00    +0.000 HD
BRANCH  18  23
ATOM     20  C   UNL     1       1.020   9.471  18.940  0.00  0.00    +0.000 A 
ATOM     21  C   UNL     1       1.781   8.740  18.017  0.00  0.00    +0.000 A 
ATOM     22  C   UNL     1       2.488   7.608  18.441  0.00  0.00    +0.000 A 
ATOM     23  C   UNL     1       2.441   7.196  19.781  0.00  0.00    +0.000 A 
ATOM     24  C   UNL     1       1.598   7.859  20.666  0.00  0.00    +0.000 A 
ATOM     25  C   UNL     1       0.909   9.000  20.255  0.00  0.00    +0.000 A 
BRANCH  20  27
ATOM     26  C   UNL     1      -1.110  10.775  18.263  0.00  0.00    +0.000 C 
ATOM     27  C   UNL     1       0.354  10.763  18.603  0.00  0.00    +0.000 C 
ATOM     28  O   UNL     1       1.009  11.802  18.608  0.00  0.00    +0.000 OA
ENDBRANCH  20  27
ENDBRANCH  18  23
ENDBRANCH   1  18
TORSDOF 3
ENDMDL
MODEL 5
REMARK VINA RESULT:      -8.3      1.995      2.315
REMARK  Name = 
REMARK  4 active torsions:
REMARK  status: ('A' for Active; 'I' for Inactive)
REMARK    1  A    between atoms: C_1  and  C_2
REMARK    2  A    between atoms: C_2  and  C_4
REMARK    3  A    between atoms: C_7  and  N_8
REMARK    4  A    between atoms: N_8  and  C_9
REMARK                            x       y       z     vdW  Elec       q    Type
REMARK                         _______ _______ _______ _____ _____    ______ ____
ROOT
ATOM      1  C   UNL     1       3.901   5.371  17.625  0.00  0.00    +0.000 A 
ATOM      2  C   UNL     1       4.784   5.204  16.516  0.00  0.00    +0.000 A 
ATOM      3  C   UNL     1       5.197   6.292  15.721  0.00  0.00    +0.000 A 
ATOM      4  C   UNL     1       6.063   6.112  14.644  0.00  0.00    +0.000 A 
ATOM      5  C   UNL     1       6.525   4.837  14.356  0.00  0.00    +0.000 A 
ATOM      6  C   UNL     1       6.123   3.755  15.145  0.00  0.00    +0.000 A 
ATOM      7  C   UNL     1       5.261   3.908  16.226  0.00  0.00    +0.000 A 
ATOM      8  N   UNL     1       5.010   2.831  16.977  0.00  0.00    +0.000 NA
ATOM      9  C   UNL     1       4.129   3.037  17.974  0.00  0.00    +0.000 A 
ATOM     10  O   UNL     1       3.938   2.139  18.989  0.00  0.00    +0.000 OA
ATOM     11  C   UNL     1       2.997   2.676  19.799  0.00  0.00    +0.000 A 
ATOM     12  C   UNL     1       2.604   2.166  21.038  0.00  0.00    +0.000 A 
ATOM     13  C   UNL     1       1.502   2.777  21.649  0.00  0.00    +0.000 A 
ATOM     14  C   UNL     1       0.791   3.779  20.994  0.00  0.00    +0.000 A 
ATOM     15  C   UNL     1       1.259   4.305  19.784  0.00  0.00    +0.000 A 
ATOM     16  C   UNL     1       2.462   3.819  19.237  0.00  0.00    +0.000 A 
ATOM     17  C   UNL     1       3.409   4.195  18.238  0.00  0.00    +0.000 A 
ENDROOT
BRANCH   1  18
ATOM     18  N   UNL     1       3.965   6.644  18.299  0.00  0.00    +0.000 N 
ATOM     19  H   UNL     1       4.486   6.451  19.162  0.00  0.00    +0.000 HD
BRANCH  18  23
ATOM     20  C   UNL     1       0.839   9.295  19.272  0.00  0.00    +0.000 A 
ATOM     21  C   UNL     1       1.347   9.276  17.966  0.00  0.00    +0.000 A 
ATOM     22  C   UNL     1       2.366   8.376  17.631  0.00  0.00    +0.000 A 
ATOM     23  C   UNL     1       2.883   7.491  18.588  0.00  0.00    +0.000 A 
ATOM     24  C   UNL     1       2.299   7.439  19.848  0.00  0.00    +0.000 A 
ATOM     25  C   UNL     1       1.298   8.347  20.195  0.00  0.00    +0.000 A 
BRANCH  20  27
ATOM     26  C   UNL     1      -1.156  10.872  18.788  0.00  0.00    +0.000 C 
ATOM     27  C   UNL     1      -0.144  10.313  19.748  0.00  0.00    +0.000 C 
ATOM     28  O   UNL     1      -0.114  10.683  20.919  0.00  0.00    +0.000 OA
ENDBRANCH  20  27
ENDBRANCH  18  23
ENDBRANCH   1  18
TORSDOF 3
ENDMDL
MODEL 6
REMARK VINA RESULT:      -8.1      1.353      1.717
REMARK  Name = 
REMARK  4 active torsions:
REMARK  status: ('A' for Active; 'I' for Inactive)
REMARK    1  A    between atoms: C_1  and  C_2
REMARK    2  A    between atoms: C_2  and  C_4
REMARK    3  A    between atoms: C_7  and  N_8
REMARK    4  A    between atoms: N_8  and  C_9
REMARK                            x       y       z     vdW  Elec       q    Type
REMARK                         _______ _______ _______ _____ _____    ______ ____
ROOT
ATOM      1  C   UNL     1       3.641   4.981  17.534  0.00  0.00    +0.000 A 
ATOM      2  C   UNL     1       4.921   5.145  16.925  0.00  0.00    +0.000 A 
ATOM      3  C   UNL     1       5.111   5.966  15.796  0.00  0.00    +0.000 A 
ATOM      4  C   UNL     1       6.369   6.118  15.216  0.00  0.00    +0.000 A 
ATOM      5  C   UNL     1       7.451   5.449  15.768  0.00  0.00    +0.000 A 
ATOM      6  C   UNL     1       7.270   4.638  16.892  0.00  0.00    +0.000 A 
ATOM      7  C   UNL     1       6.025   4.470  17.490  0.00  0.00    +0.000 A 
ATOM      8  N   UNL     1       5.969   3.752  18.616  0.00  0.00    +0.000 NA
ATOM      9  C   UNL     1       4.729   3.586  19.113  0.00  0.00    +0.000 A 
ATOM     10  O   UNL     1       4.495   3.105  20.372  0.00  0.00    +0.000 OA
ATOM     11  C   UNL     1       3.152   3.082  20.527  0.00  0.00    +0.000 A 
ATOM     12  C   UNL     1       2.474   2.800  21.716  0.00  0.00    +0.000 A 
ATOM     13  C   UNL     1       1.083   2.669  21.631  0.00  0.00    +0.000 A 
ATOM     14  C   UNL     1       0.436   2.727  20.399  0.00  0.00    +0.000 A 
ATOM     15  C   UNL     1       1.145   3.077  19.243  0.00  0.00    +0.000 A 
ATOM     16  C   UNL     1       2.517   3.380  19.336  0.00  0.00    +0.000 A 
ATOM     17  C   UNL     1       3.530   3.997  18.543  0.00  0.00    +0.000 A 
ENDROOT
BRANCH   1  18
ATOM     18  N   UNL     1       2.738   6.099  17.419  0.00  0.00    +0.000 N 
ATOM     19  H   UNL     1       3.106   6.646  16.632  0.00  0.00    +0.000 HD
BRANCH  18  23
ATOM     20  C   UNL     1       1.400   8.702  20.450  0.00  0.00    +0.000 A 
ATOM     21  C   UNL     1       1.800   7.401  20.784  0.00  0.00    +0.000 A 
ATOM     22  C   UNL     1       2.273   6.542  19.784  0.00  0.00    +0.000 A 
ATOM     23  C   UNL     1       2.353   6.971  18.451  0.00  0.00    +0.000 A 
ATOM     24  C   UNL     1       2.061   8.295  18.146  0.00  0.00    +0.000 A 
ATOM     25  C   UNL     1       1.568   9.149  19.133  0.00  0.00    +0.000 A 
BRANCH  20  27
ATOM     26  C   UNL     1      -0.302   9.109  22.357  0.00  0.00    +0.000 C 
ATOM     27  C   UNL     1       0.756   9.631  21.425  0.00  0.00    +0.000 C 
ATOM     28  O   UNL     1       1.097  10.810  21.454  0.00  0.00    +0.000 OA
ENDBRANCH  20  27
ENDBRANCH  18  23
ENDBRANCH   1  18
TORSDOF 3
ENDMDL
MODEL 7
REMARK VINA RESULT:      -8.1      2.037      2.594
REMARK  Name = 
REMARK  4 active torsions:
REMARK  status: ('A' for Active; 'I' for Inactive)
REMARK    1  A    between atoms: C_1  and  C_2
REMARK    2  A    between atoms: C_2  and  C_4
REMARK    3  A    between atoms: C_7  and  N_8
REMARK    4  A    between atoms: N_8  and  C_9
REMARK                            x       y       z     vdW  Elec       q    Type
REMARK                         _______ _______ _______ _____ _____    ______ ____
ROOT
ATOM      1  C   UNL     1       3.850   5.374  17.746  0.00  0.00    +0.000 A 
ATOM      2  C   UNL     1       4.703   5.240  16.609  0.00  0.00    +0.000 A 
ATOM      3  C   UNL     1       5.111   6.353  15.848  0.00  0.00    +0.000 A 
ATOM      4  C   UNL     1       5.948   6.206  14.743  0.00  0.00    +0.000 A 
ATOM      5  C   UNL     1       6.386   4.937  14.394  0.00  0.00    +0.000 A 
ATOM      6  C   UNL     1       5.989   3.830  15.149  0.00  0.00    +0.000 A 
ATOM      7  C   UNL     1       5.155   3.951  16.257  0.00  0.00    +0.000 A 
ATOM      8  N   UNL     1       4.909   2.848  16.971  0.00  0.00    +0.000 NA
ATOM      9  C   UNL     1       4.055   3.025  17.997  0.00  0.00    +0.000 A 
ATOM     10  O   UNL     1       3.877   2.091  18.980  0.00  0.00    +0.000 OA
ATOM     11  C   UNL     1       2.963   2.606  19.834  0.00  0.00    +0.000 A 
ATOM     12  C   UNL     1       2.593   2.052  21.062  0.00  0.00    +0.000 A 
ATOM     13  C   UNL     1       1.515   2.653  21.723  0.00  0.00    +0.000 A 
ATOM     14  C   UNL     1       0.801   3.689  21.126  0.00  0.00    +0.000 A 
ATOM     15  C   UNL     1       1.247   4.256  19.926  0.00  0.00    +0.000 A 
ATOM     16  C   UNL     1       2.430   3.777  19.330  0.00  0.00    +0.000 A 
ATOM     17  C   UNL     1       3.357   4.181  18.324  0.00  0.00    +0.000 A 
ENDROOT
BRANCH   1  18
ATOM     18  N   UNL     1       3.947   6.618  18.467  0.00  0.00    +0.000 N 
ATOM     19  H   UNL     1       4.355   6.358  19.373  0.00  0.00    +0.000 HD
BRANCH  18  23
ATOM     20  C   UNL     1       0.734   9.297  18.971  0.00  0.00    +0.000 A 
ATOM     21  C   UNL     1       1.151   8.506  20.051  0.00  0.00    +0.000 A 
ATOM     22  C   UNL     1       2.237   7.636  19.896  0.00  0.00    +0.000 A 
ATOM     23  C   UNL     1       2.915   7.548  18.671  0.00  0.00    +0.000 A 
ATOM     24  C   UNL     1       2.568   8.414  17.641  0.00  0.00    +0.000 A 
ATOM     25  C   UNL     1       1.473   9.268  17.781  0.00  0.00    +0.000 A 
BRANCH  20  27
ATOM     26  C   UNL     1      -1.383  10.214  17.797  0.00  0.00    +0.000 C 
ATOM     27  C   UNL     1      -0.495  10.143  19.008  0.00  0.00    +0.000 C 
ATOM     28  O   UNL     1      -0.766  10.773  20.028  0.00  0.00    +0.000 OA
ENDBRANCH  20  27
ENDBRANCH  18  23
ENDBRANCH   1  18
TORSDOF 3
ENDMDL
MODEL 8
REMARK VINA RESULT:      -8.1      2.143      4.883
REMARK  Name = 
REMARK  4 active torsions:
REMARK  status: ('A' for Active; 'I' for Inactive)
REMARK    1  A    between atoms: C_1  and  C_2
REMARK    2  A    between atoms: C_2  and  C_4
REMARK    3  A    between atoms: C_7  and  N_8
REMARK    4  A    between atoms: N_8  and  C_9
REMARK                            x       y       z     vdW  Elec       q    Type
REMARK                         _______ _______ _______ _____ _____    ______ ____
ROOT
ATOM      1  C   UNL     1       4.002   4.656  19.211  0.00  0.00    +0.000 A 
ATOM      2  C   UNL     1       2.994   3.870  19.845  0.00  0.00    +0.000 A 
ATOM      3  C   UNL     1       2.513   4.172  21.135  0.00  0.00    +0.000 A 
ATOM      4  C   UNL     1       1.525   3.397  21.738  0.00  0.00    +0.000 A 
ATOM      5  C   UNL     1       1.006   2.311  21.050  0.00  0.00    +0.000 A 
ATOM      6  C   UNL     1       1.474   2.010  19.768  0.00  0.00    +0.000 A 
ATOM      7  C   UNL     1       2.459   2.769  19.143  0.00  0.00    +0.000 A 
ATOM      8  N   UNL     1       2.773   2.460  17.880  0.00  0.00    +0.000 NA
ATOM      9  C   UNL     1       3.768   3.199  17.355  0.00  0.00    +0.000 A 
ATOM     10  O   UNL     1       4.057   3.206  16.017  0.00  0.00    +0.000 OA
ATOM     11  C   UNL     1       5.096   4.056  15.857  0.00  0.00    +0.000 A 
ATOM     12  C   UNL     1       5.620   4.479  14.633  0.00  0.00    +0.000 A 
ATOM     13  C   UNL     1       6.798   5.235  14.681  0.00  0.00    +0.000 A 
ATOM     14  C   UNL     1       7.449   5.462  15.890  0.00  0.00    +0.000 A 
ATOM     15  C   UNL     1       6.854   5.078  17.098  0.00  0.00    +0.000 A 
ATOM     16  C   UNL     1       5.586   4.466  17.082  0.00  0.00    +0.000 A 
ATOM     17  C   UNL     1       4.538   4.159  18.000  0.00  0.00    +0.000 A 
ENDROOT
BRANCH   1  18
ATOM     18  N   UNL     1       4.044   6.049  19.579  0.00  0.00    +0.000 N 
ATOM     19  H   UNL     1       4.172   6.041  20.598  0.00  0.00    +0.000 HD
BRANCH  18  23
ATOM     20  C   UNL     1       1.317   9.126  18.656  0.00  0.00    +0.000 A 
ATOM     21  C   UNL     1       2.175   8.640  17.659  0.00  0.00    +0.000 A 
ATOM     22  C   UNL     1       3.062   7.597  17.953  0.00  0.00    +0.000 A 
ATOM     23  C   UNL     1       3.101   7.032  19.236  0.00  0.00    +0.000 A 
ATOM     24  C   UNL     1       2.173   7.442  20.186  0.00  0.00    +0.000 A 
ATOM     25  C   UNL     1       1.301   8.495  19.906  0.00  0.00    +0.000 A 
BRANCH  20  27
ATOM     26  C   UNL     1      -0.967  10.140  17.982  0.00  0.00    +0.000 C 
ATOM     27  C   UNL     1       0.444  10.322  18.466  0.00  0.00    +0.000 C 
ATOM     28  O   UNL     1       0.890  11.441  18.707  0.00  0.00    +0.000 OA
ENDBRANCH  20  27
ENDBRANCH  18  23
ENDBRANCH   1  18
TORSDOF 3
ENDMDL
MODEL 9
REMARK VINA RESULT:      -8.0      4.374      8.112
REMARK  Name = 
REMARK  4 active torsions:
REMARK  status: ('A' for Active; 'I' for Inactive)
REMARK    1  A    between atoms: C_1  and  C_2
REMARK    2  A    between atoms: C_2  and  C_4
REMARK    3  A    between atoms: C_7  and  N_8
REMARK    4  A    between atoms: N_8  and  C_9
REMARK                            x       y       z     vdW  Elec       q    Type
REMARK                         _______ _______ _______ _____ _____    ______ ____
ROOT
ATOM      1  C   UNL     1      -0.043  10.902  19.327  0.00  0.00    +0.000 A 
ATOM      2  C   UNL     1       0.770   9.737  19.194  0.00  0.00    +0.000 A 
ATOM      3  C   UNL     1       1.248   9.300  17.942  0.00  0.00    +0.000 A 
ATOM      4  C   UNL     1       2.045   8.163  17.829  0.00  0.00    +0.000 A 
ATOM      5  C   UNL     1       2.372   7.453  18.974  0.00  0.00    +0.000 A 
ATOM      6  C   UNL     1       1.906   7.885  20.219  0.00  0.00    +0.000 A 
ATOM      7  C   UNL     1       1.110   9.017  20.359  0.00  0.00    +0.000 A 
ATOM      8  N   UNL     1       0.793   9.404  21.599  0.00  0.00    +0.000 NA
ATOM      9  C   UNL     1      -0.020  10.475  21.660  0.00  0.00    +0.000 A 
ATOM     10  O   UNL     1      -0.249  11.164  22.819  0.00  0.00    +0.000 OA
ATOM     11  C   UNL     1      -1.099  12.168  22.504  0.00  0.00    +0.000 A 
ATOM     12  C   UNL     1      -1.483  13.206  23.355  0.00  0.00    +0.000 A 
ATOM     13  C   UNL     1      -2.495  14.057  22.893  0.00  0.00    +0.000 A 
ATOM     14  C   UNL     1      -3.138  13.806  21.683  0.00  0.00    +0.000 A 
ATOM     15  C   UNL     1      -2.676  12.795  20.832  0.00  0.00    +0.000 A 
ATOM     16  C   UNL     1      -1.549  12.037  21.204  0.00  0.00    +0.000 A 
ATOM     17  C   UNL     1      -0.616  11.144  20.598  0.00  0.00    +0.000 A 
ENDROOT
BRANCH   1  18
ATOM     18  N   UNL     1       0.169  11.938  18.348  0.00  0.00    +0.000 N 
ATOM     19  H   UNL     1       0.458  11.434  17.501  0.00  0.00    +0.000 HD
BRANCH  18  23
ATOM     20  C   UNL     1       2.563  15.395  18.619  0.00  0.00    +0.000 A 
ATOM     21  C   UNL     1       1.225  15.445  19.037  0.00  0.00    +0.000 A 
ATOM     22  C   UNL     1       0.435  14.291  18.976  0.00  0.00    +0.000 A 
ATOM     23  C   UNL     1       0.967  13.083  18.502  0.00  0.00    +0.000 A 
ATOM     24  C   UNL     1       2.321  13.013  18.196  0.00  0.00    +0.000 A 
ATOM     25  C   UNL     1       3.109  14.164  18.233  0.00  0.00    +0.000 A 
BRANCH  20  27
ATOM     26  C   UNL     1       4.376  16.934  19.641  0.00  0.00    +0.000 C 
ATOM     27  C   UNL     1       3.431  16.605  18.520  0.00  0.00    +0.000 C 
ATOM     28  O   UNL     1       3.362  17.319  17.522  0.00  0.00    +0.000 OA
ENDBRANCH  20  27
ENDBRANCH  18  23
ENDBRANCH   1  18
TORSDOF 3
ENDMDL
