MODEL 1
REMARK VINA RESULT:      -7.4      0.000      0.000
REMARK  Name = 
REMARK  12 active torsions:
REMARK  status: ('A' for Active; 'I' for Inactive)
REMARK    1  A    between atoms: C_1  and  C_2
REMARK    2  A    between atoms: C_2  and  N_3
REMARK    3  A    between atoms: N_3  and  C_4
REMARK    4  A    between atoms: N_3  and  C_12
REMARK    5  A    between atoms: C_4  and  C_5
REMARK    6  A    between atoms: C_5  and  C_6
REMARK    7  A    between atoms: C_6  and  N_7
REMARK    8  A    between atoms: N_7  and  C_8
REMARK    9  A    between atoms: C_8  and  C_9
REMARK   10  A    between atoms: C_9  and  C_10
REMARK   11  A    between atoms: C_10  and  N_11
REMARK   12  A    between atoms: C_12  and  C_13
REMARK                            x       y       z     vdW  Elec       q    Type
REMARK                         _______ _______ _______ _____ _____    ______ ____
ROOT
ATOM      1  C   UNL     1       4.518   5.180  17.373  0.00  0.00    +0.000 C 
ENDROOT
BRANCH   1   2
ATOM      2  C   UNL     1       3.495   5.479  18.484  0.00  0.00    +0.000 A 
ATOM      3  C   UNL     1       3.204   4.483  19.472  0.00  0.00    +0.000 A 
ATOM      4  C   UNL     1       3.741   3.193  19.400  0.00  0.00    +0.000 A 
ATOM      5  C   UNL     1       3.527   2.230  20.381  0.00  0.00    +0.000 A 
ATOM      6  C   UNL     1       2.735   2.531  21.474  0.00  0.00    +0.000 A 
ATOM      7  C   UNL     1       2.141   3.792  21.567  0.00  0.00    +0.000 A 
ATOM      8  C   UNL     1       2.368   4.766  20.572  0.00  0.00    +0.000 A 
ATOM      9  C   UNL     1       1.763   6.015  20.669  0.00  0.00    +0.000 A 
ATOM     10  C   UNL     1       1.990   7.001  19.704  0.00  0.00    +0.000 A 
ATOM     11  C   UNL     1       1.345   8.240  19.835  0.00  0.00    +0.000 A 
ATOM     12  C   UNL     1       1.561   9.253  18.903  0.00  0.00    +0.000 A 
ATOM     13  C   UNL     1       2.428   9.050  17.844  0.00  0.00    +0.000 A 
ATOM     14  C   UNL     1       3.088   7.826  17.697  0.00  0.00    +0.000 A 
ATOM     15  C   UNL     1       2.871   6.761  18.610  0.00  0.00    +0.000 A 
ENDBRANCH   1   2
BRANCH   1  16
ATOM     16  N   UNL     1       5.842   5.818  17.575  0.00  0.00    +0.000 NA
BRANCH  16  18
ATOM     17  C   UNL     1       7.890   5.917  19.090  0.00  0.00    +0.000 C 
ATOM     18  C   UNL     1       6.399   5.579  18.933  0.00  0.00    +0.000 C 
ENDBRANCH  16  18
BRANCH  16  19
ATOM     19  C   UNL     1       6.818   5.476  16.505  0.00  0.00    +0.000 C 
BRANCH  19  20
ATOM     20  C   UNL     1       6.388   4.306  15.571  0.00  0.00    +0.000 C 
BRANCH  20  21
ATOM     21  C   UNL     1       6.588   4.509  14.051  0.00  0.00    +0.000 C 
BRANCH  21  22
ATOM     22  N   UNL     1       6.374   3.298  13.242  0.00  0.00    +0.000 NA
ATOM     23  H   UNL     1       6.341   2.450  13.851  0.00  0.00    +0.000 HD
BRANCH  22  24
ATOM     24  C   UNL     1       5.160   3.360  12.415  0.00  0.00    +0.000 C 
BRANCH  24  25
ATOM     25  C   UNL     1       5.215   2.331  11.268  0.00  0.00    +0.000 C 
BRANCH  25  26
ATOM     26  C   UNL     1       6.491   1.510  11.292  0.00  0.00    +0.000 C 
BRANCH  26  27
ATOM     27  N   UNL     1       6.194   0.087  11.387  0.00  0.00    +0.000 NA
ATOM     28  H   UNL     1       7.094  -0.444  11.401  0.00  0.00    +0.000 HD
ATOM     29  H   UNL     1       5.660  -0.190  10.534  0.00  0.00    +0.000 HD
ENDBRANCH  26  27
ENDBRANCH  25  26
ENDBRANCH  24  25
ENDBRANCH  22  24
ENDBRANCH  21  22
ENDBRANCH  20  21
ENDBRANCH  19  20
ENDBRANCH  16  19
ENDBRANCH   1  16
TORSDOF 11
ENDMDL
MODEL 2
REMARK VINA RESULT:      -7.2      2.629      5.655
REMARK  Name = 
REMARK  12 active torsions:
REMARK  status: ('A' for Active; 'I' for Inactive)
REMARK    1  A    between atoms: C_1  and  C_2
REMARK    2  A    between atoms: C_2  and  N_3
REMARK    3  A    between atoms: N_3  and  C_4
REMARK    4  A    between atoms: N_3  and  C_12
REMARK    5  A    between atoms: C_4  and  C_5
REMARK    6  A    between atoms: C_5  and  C_6
REMARK    7  A    between atoms: C_6  and  N_7
REMARK    8  A    between atoms: N_7  and  C_8
REMARK    9  A    between atoms: C_8  and  C_9
REMARK   10  A    between atoms: C_9  and  C_10
REMARK   11  A    between atoms: C_10  and  N_11
REMARK   12  A    between atoms: C_12  and  C_13
REMARK                            x       y       z     vdW  Elec       q    Type
REMARK                         _______ _______ _______ _____ _____    ______ ____
ROOT
ATOM      1  C   UNL     1       4.235   5.172  17.123  0.00  0.00    +0.000 C 
ENDROOT
BRANCH   1   2
ATOM      2  C   UNL     1       3.325   5.502  18.321  0.00  0.00    +0.000 A 
ATOM      3  C   UNL     1       3.090   4.515  19.331  0.00  0.00    +0.000 A 
ATOM      4  C   UNL     1       3.575   3.207  19.214  0.00  0.00    +0.000 A 
ATOM      5  C   UNL     1       3.417   2.251  20.211  0.00  0.00    +0.000 A 
ATOM      6  C   UNL     1       2.735   2.576  21.369  0.00  0.00    +0.000 A 
ATOM      7  C   UNL     1       2.194   3.856  21.513  0.00  0.00    +0.000 A 
ATOM      8  C   UNL     1       2.364   4.824  20.500  0.00  0.00    +0.000 A 
ATOM      9  C   UNL     1       1.811   6.092  20.650  0.00  0.00    +0.000 A 
ATOM     10  C   UNL     1       1.984   7.071  19.667  0.00  0.00    +0.000 A 
ATOM     11  C   UNL     1       1.395   8.331  19.853  0.00  0.00    +0.000 A 
ATOM     12  C   UNL     1       1.561   9.338  18.904  0.00  0.00    +0.000 A 
ATOM     13  C   UNL     1       2.324   9.108  17.772  0.00  0.00    +0.000 A 
ATOM     14  C   UNL     1       2.927   7.862  17.570  0.00  0.00    +0.000 A 
ATOM     15  C   UNL     1       2.757   6.804  18.499  0.00  0.00    +0.000 A 
ENDBRANCH   1   2
BRANCH   1  16
ATOM     16  N   UNL     1       5.663   4.976  17.478  0.00  0.00    +0.000 NA
BRANCH  16  18
ATOM     17  C   UNL     1       5.771   4.592  14.960  0.00  0.00    +0.000 C 
ATOM     18  C   UNL     1       6.500   4.585  16.313  0.00  0.00    +0.000 C 
ENDBRANCH  16  18
BRANCH  16  19
ATOM     19  C   UNL     1       6.238   6.133  18.215  0.00  0.00    +0.000 C 
BRANCH  19  20
ATOM     20  C   UNL     1       7.502   6.767  17.563  0.00  0.00    +0.000 C 
BRANCH  20  21
ATOM     21  C   UNL     1       7.594   8.311  17.561  0.00  0.00    +0.000 C 
BRANCH  21  22
ATOM     22  N   UNL     1       8.609   8.862  18.474  0.00  0.00    +0.000 NA
ATOM     23  H   UNL     1       9.489   8.302  18.426  0.00  0.00    +0.000 HD
BRANCH  22  24
ATOM     24  C   UNL     1       8.909  10.279  18.221  0.00  0.00    +0.000 C 
BRANCH  24  25
ATOM     25  C   UNL     1       9.851  10.849  19.300  0.00  0.00    +0.000 C 
BRANCH  25  26
ATOM     26  C   UNL     1       9.173  10.963  20.653  0.00  0.00    +0.000 C 
BRANCH  26  27
ATOM     27  N   UNL     1       9.955  11.793  21.560  0.00  0.00    +0.000 NA
ATOM     28  H   UNL     1       9.584  12.770  21.525  0.00  0.00    +0.000 HD
ATOM     29  H   UNL     1      10.942  11.803  21.221  0.00  0.00    +0.000 HD
ENDBRANCH  26  27
ENDBRANCH  25  26
ENDBRANCH  24  25
ENDBRANCH  22  24
ENDBRANCH  21  22
ENDBRANCH  20  21
ENDBRANCH  19  20
ENDBRANCH  16  19
ENDBRANCH   1  16
TORSDOF 11
ENDMDL
MODEL 3
REMARK VINA RESULT:      -7.2      0.772      3.670
REMARK  Name = 
REMARK  12 active torsions:
REMARK  status: ('A' for Active; 'I' for Inactive)
REMARK    1  A    between atoms: C_1  and  C_2
REMARK    2  A    between atoms: C_2  and  N_3
REMARK    3  A    between atoms: N_3  and  C_4
REMARK    4  A    between atoms: N_3  and  C_12
REMARK    5  A    between atoms: C_4  and  C_5
REMARK    6  A    between atoms: C_5  and  C_6
REMARK    7  A    between atoms: C_6  and  N_7
REMARK    8  A    between atoms: N_7  and  C_8
REMARK    9  A    between atoms: C_8  and  C_9
REMARK   10  A    between atoms: C_9  and  C_10
REMARK   11  A    between atoms: C_10  and  N_11
REMARK   12  A    between atoms: C_12  and  C_13
REMARK                            x       y       z     vdW  Elec       q    Type
REMARK                         _______ _______ _______ _____ _____    ______ ____
ROOT
ATOM      1  C   UNL     1       3.811   5.398  17.153  0.00  0.00    +0.000 C 
ENDROOT
BRANCH   1   2
ATOM      2  C   UNL     1       3.131   5.684  18.505  0.00  0.00    +0.000 A 
ATOM      3  C   UNL     1       2.564   6.975  18.759  0.00  0.00    +0.000 A 
ATOM      4  C   UNL     1       2.704   8.033  17.855  0.00  0.00    +0.000 A 
ATOM      5  C   UNL     1       2.106   9.275  18.047  0.00  0.00    +0.000 A 
ATOM      6  C   UNL     1       1.355   9.503  19.186  0.00  0.00    +0.000 A 
ATOM      7  C   UNL     1       1.225   8.490  20.139  0.00  0.00    +0.000 A 
ATOM      8  C   UNL     1       1.827   7.231  19.934  0.00  0.00    +0.000 A 
ATOM      9  C   UNL     1       1.699   6.233  20.895  0.00  0.00    +0.000 A 
ATOM     10  C   UNL     1       2.272   4.972  20.702  0.00  0.00    +0.000 A 
ATOM     11  C   UNL     1       2.131   4.002  21.706  0.00  0.00    +0.000 A 
ATOM     12  C   UNL     1       2.673   2.729  21.541  0.00  0.00    +0.000 A 
ATOM     13  C   UNL     1       3.344   2.404  20.375  0.00  0.00    +0.000 A 
ATOM     14  C   UNL     1       3.490   3.352  19.358  0.00  0.00    +0.000 A 
ATOM     15  C   UNL     1       2.978   4.668  19.501  0.00  0.00    +0.000 A 
ENDBRANCH   1   2
BRANCH   1  16
ATOM     16  N   UNL     1       4.995   6.248  16.874  0.00  0.00    +0.000 NA
BRANCH  16  18
ATOM     17  C   UNL     1       7.347   6.884  17.623  0.00  0.00    +0.000 C 
ATOM     18  C   UNL     1       6.165   5.907  17.727  0.00  0.00    +0.000 C 
ENDBRANCH  16  18
BRANCH  16  19
ATOM     19  C   UNL     1       5.350   6.288  15.430  0.00  0.00    +0.000 C 
BRANCH  19  20
ATOM     20  C   UNL     1       5.401   4.901  14.725  0.00  0.00    +0.000 C 
BRANCH  20  21
ATOM     21  C   UNL     1       6.780   4.419  14.217  0.00  0.00    +0.000 C 
BRANCH  21  22
ATOM     22  N   UNL     1       6.719   3.318  13.241  0.00  0.00    +0.000 NA
ATOM     23  H   UNL     1       6.521   2.412  13.721  0.00  0.00    +0.000 HD
BRANCH  22  24
ATOM     24  C   UNL     1       5.729   3.541  12.177  0.00  0.00    +0.000 C 
BRANCH  24  25
ATOM     25  C   UNL     1       5.278   2.207  11.550  0.00  0.00    +0.000 C 
BRANCH  25  26
ATOM     26  C   UNL     1       6.451   1.355  11.104  0.00  0.00    +0.000 C 
BRANCH  26  27
ATOM     27  N   UNL     1       6.222  -0.051  11.412  0.00  0.00    +0.000 NA
ATOM     28  H   UNL     1       6.053  -0.146  12.439  0.00  0.00    +0.000 HD
ATOM     29  H   UNL     1       7.087  -0.582  11.168  0.00  0.00    +0.000 HD
ENDBRANCH  26  27
ENDBRANCH  25  26
ENDBRANCH  24  25
ENDBRANCH  22  24
ENDBRANCH  21  22
ENDBRANCH  20  21
ENDBRANCH  19  20
ENDBRANCH  16  19
ENDBRANCH   1  16
TORSDOF 11
ENDMDL
MODEL 4
REMARK VINA RESULT:      -7.2      1.109      3.825
REMARK  Name = 
REMARK  12 active torsions:
REMARK  status: ('A' for Active; 'I' for Inactive)
REMARK    1  A    between atoms: C_1  and  C_2
REMARK    2  A    between atoms: C_2  and  N_3
REMARK    3  A    between atoms: N_3  and  C_4
REMARK    4  A    between atoms: N_3  and  C_12
REMARK    5  A    between atoms: C_4  and  C_5
REMARK    6  A    between atoms: C_5  and  C_6
REMARK    7  A    between atoms: C_6  and  N_7
REMARK    8  A    between atoms: N_7  and  C_8
REMARK    9  A    between atoms: C_8  and  C_9
REMARK   10  A    between atoms: C_9  and  C_10
REMARK   11  A    between atoms: C_10  and  N_11
REMARK   12  A    between atoms: C_12  and  C_13
REMARK                            x       y       z     vdW  Elec       q    Type
REMARK                         _______ _______ _______ _____ _____    ______ ____
ROOT
ATOM      1  C   UNL     1       4.255   5.375  17.115  0.00  0.00    +0.000 C 
ENDROOT
BRANCH   1   2
ATOM      2  C   UNL     1       3.459   5.632  18.408  0.00  0.00    +0.000 A 
ATOM      3  C   UNL     1       2.838   6.905  18.621  0.00  0.00    +0.000 A 
ATOM      4  C   UNL     1       3.021   7.974  17.736  0.00  0.00    +0.000 A 
ATOM      5  C   UNL     1       2.376   9.197  17.885  0.00  0.00    +0.000 A 
ATOM      6  C   UNL     1       1.529   9.397  18.959  0.00  0.00    +0.000 A 
ATOM      7  C   UNL     1       1.349   8.374  19.894  0.00  0.00    +0.000 A 
ATOM      8  C   UNL     1       2.001   7.133  19.733  0.00  0.00    +0.000 A 
ATOM      9  C   UNL     1       1.823   6.126  20.675  0.00  0.00    +0.000 A 
ATOM     10  C   UNL     1       2.444   4.882  20.524  0.00  0.00    +0.000 A 
ATOM     11  C   UNL     1       2.249   3.902  21.508  0.00  0.00    +0.000 A 
ATOM     12  C   UNL     1       2.837   2.645  21.383  0.00  0.00    +0.000 A 
ATOM     13  C   UNL     1       3.610   2.346  20.274  0.00  0.00    +0.000 A 
ATOM     14  C   UNL     1       3.813   3.306  19.277  0.00  0.00    +0.000 A 
ATOM     15  C   UNL     1       3.254   4.606  19.384  0.00  0.00    +0.000 A 
ENDBRANCH   1   2
BRANCH   1  16
ATOM     16  N   UNL     1       5.714   5.611  17.240  0.00  0.00    +0.000 NA
BRANCH  16  18
ATOM     17  C   UNL     1       7.639   6.164  18.817  0.00  0.00    +0.000 C 
ATOM     18  C   UNL     1       6.129   5.949  18.627  0.00  0.00    +0.000 C 
ENDBRANCH  16  18
BRANCH  16  19
ATOM     19  C   UNL     1       6.529   4.505  16.668  0.00  0.00    +0.000 C 
BRANCH  19  20
ATOM     20  C   UNL     1       5.871   3.748  15.478  0.00  0.00    +0.000 C 
BRANCH  20  21
ATOM     21  C   UNL     1       6.297   4.172  14.052  0.00  0.00    +0.000 C 
BRANCH  21  22
ATOM     22  N   UNL     1       6.410   3.060  13.095  0.00  0.00    +0.000 NA
ATOM     23  H   UNL     1       5.947   2.202  13.471  0.00  0.00    +0.000 HD
BRANCH  22  24
ATOM     24  C   UNL     1       5.860   3.377  11.769  0.00  0.00    +0.000 C 
BRANCH  24  25
ATOM     25  C   UNL     1       4.332   3.575  11.834  0.00  0.00    +0.000 C 
BRANCH  25  26
ATOM     26  C   UNL     1       3.624   2.989  10.627  0.00  0.00    +0.000 C 
BRANCH  26  27
ATOM     27  N   UNL     1       3.025   4.038   9.813  0.00  0.00    +0.000 NA
ATOM     28  H   UNL     1       2.220   4.450  10.335  0.00  0.00    +0.000 HD
ATOM     29  H   UNL     1       2.663   3.602   8.936  0.00  0.00    +0.000 HD
ENDBRANCH  26  27
ENDBRANCH  25  26
ENDBRANCH  24  25
ENDBRANCH  22  24
ENDBRANCH  21  22
ENDBRANCH  20  21
ENDBRANCH  19  20
ENDBRANCH  16  19
ENDBRANCH   1  16
TORSDOF 11
ENDMDL
MODEL 5
REMARK VINA RESULT:      -7.1      2.958      6.952
REMARK  Name = 
REMARK  12 active torsions:
REMARK  status: ('A' for Active; 'I' for Inactive)
REMARK    1  A    between atoms: C_1  and  C_2
REMARK    2  A    between atoms: C_2  and  N_3
REMARK    3  A    between atoms: N_3  and  C_4
REMARK    4  A    between atoms: N_3  and  C_12
REMARK    5  A    between atoms: C_4  and  C_5
REMARK    6  A    between atoms: C_5  and  C_6
REMARK    7  A    between atoms: C_6  and  N_7
REMARK    8  A    between atoms: N_7  and  C_8
REMARK    9  A    between atoms: C_8  and  C_9
REMARK   10  A    between atoms: C_9  and  C_10
REMARK   11  A    between atoms: C_10  and  N_11
REMARK   12  A    between atoms: C_12  and  C_13
REMARK                            x       y       z     vdW  Elec       q    Type
REMARK                         _______ _______ _______ _____ _____    ______ ____
ROOT
ATOM      1  C   UNL     1       4.212   5.522  17.183  0.00  0.00    +0.000 C 
ENDROOT
BRANCH   1   2
ATOM      2  C   UNL     1       3.390   5.740  18.467  0.00  0.00    +0.000 A 
ATOM      3  C   UNL     1       2.737   6.996  18.690  0.00  0.00    +0.000 A 
ATOM      4  C   UNL     1       2.910   8.082  17.825  0.00  0.00    +0.000 A 
ATOM      5  C   UNL     1       2.235   9.288  17.983  0.00  0.00    +0.000 A 
ATOM      6  C   UNL     1       1.367   9.452  19.046  0.00  0.00    +0.000 A 
ATOM      7  C   UNL     1       1.195   8.410  19.961  0.00  0.00    +0.000 A 
ATOM      8  C   UNL     1       1.877   7.187  19.791  0.00  0.00    +0.000 A 
ATOM      9  C   UNL     1       1.706   6.160  20.715  0.00  0.00    +0.000 A 
ATOM     10  C   UNL     1       2.358   4.934  20.554  0.00  0.00    +0.000 A 
ATOM     11  C   UNL     1       2.168   3.933  21.519  0.00  0.00    +0.000 A 
ATOM     12  C   UNL     1       2.787   2.692  21.383  0.00  0.00    +0.000 A 
ATOM     13  C   UNL     1       3.584   2.429  20.283  0.00  0.00    +0.000 A 
ATOM     14  C   UNL     1       3.781   3.408  19.304  0.00  0.00    +0.000 A 
ATOM     15  C   UNL     1       3.192   4.694  19.423  0.00  0.00    +0.000 A 
ENDBRANCH   1   2
BRANCH   1  16
ATOM     16  N   UNL     1       5.681   5.562  17.386  0.00  0.00    +0.000 NA
BRANCH  16  18
ATOM     17  C   UNL     1       5.987   4.231  15.233  0.00  0.00    +0.000 C 
ATOM     18  C   UNL     1       6.391   4.450  16.700  0.00  0.00    +0.000 C 
ENDBRANCH  16  18
BRANCH  16  19
ATOM     19  C   UNL     1       6.273   6.887  17.058  0.00  0.00    +0.000 C 
BRANCH  19  20
ATOM     20  C   UNL     1       7.527   7.275  17.894  0.00  0.00    +0.000 C 
BRANCH  20  21
ATOM     21  C   UNL     1       7.981   8.753  17.839  0.00  0.00    +0.000 C 
BRANCH  21  22
ATOM     22  N   UNL     1       8.945   9.133  18.884  0.00  0.00    +0.000 NA
ATOM     23  H   UNL     1       9.880   8.706  18.696  0.00  0.00    +0.000 HD
BRANCH  22  24
ATOM     24  C   UNL     1       9.090  10.588  19.039  0.00  0.00    +0.000 C 
BRANCH  24  25
ATOM     25  C   UNL     1      10.404  10.943  19.762  0.00  0.00    +0.000 C 
BRANCH  25  26
ATOM     26  C   UNL     1      10.255  12.150  20.669  0.00  0.00    +0.000 C 
BRANCH  26  27
ATOM     27  N   UNL     1      10.493  13.386  19.935  0.00  0.00    +0.000 NA
ATOM     28  H   UNL     1      10.352  13.204  18.915  0.00  0.00    +0.000 HD
ATOM     29  H   UNL     1      11.487  13.667  20.086  0.00  0.00    +0.000 HD
ENDBRANCH  26  27
ENDBRANCH  25  26
ENDBRANCH  24  25
ENDBRANCH  22  24
ENDBRANCH  21  22
ENDBRANCH  20  21
ENDBRANCH  19  20
ENDBRANCH  16  19
ENDBRANCH   1  16
TORSDOF 11
ENDMDL
MODEL 6
REMARK VINA RESULT:      -7.0      3.857      8.012
REMARK  Name = 
REMARK  12 active torsions:
REMARK  status: ('A' for Active; 'I' for Inactive)
REMARK    1  A    between atoms: C_1  and  C_2
REMARK    2  A    between atoms: C_2  and  N_3
REMARK    3  A    between atoms: N_3  and  C_4
REMARK    4  A    between atoms: N_3  and  C_12
REMARK    5  A    between atoms: C_4  and  C_5
REMARK    6  A    between atoms: C_5  and  C_6
REMARK    7  A    between atoms: C_6  and  N_7
REMARK    8  A    between atoms: N_7  and  C_8
REMARK    9  A    between atoms: C_8  and  C_9
REMARK   10  A    between atoms: C_9  and  C_10
REMARK   11  A    between atoms: C_10  and  N_11
REMARK   12  A    between atoms: C_12  and  C_13
REMARK                            x       y       z     vdW  Elec       q    Type
REMARK                         _______ _______ _______ _____ _____    ______ ____
ROOT
ATOM      1  C   UNL     1       3.129   7.070  19.445  0.00  0.00    +0.000 C 
ENDROOT
BRANCH   1   2
ATOM      2  C   UNL     1       3.152   5.747  18.658  0.00  0.00    +0.000 A 
ATOM      3  C   UNL     1       3.992   5.618  17.505  0.00  0.00    +0.000 A 
ATOM      4  C   UNL     1       4.720   6.700  16.997  0.00  0.00    +0.000 A 
ATOM      5  C   UNL     1       5.594   6.583  15.921  0.00  0.00    +0.000 A 
ATOM      6  C   UNL     1       5.749   5.360  15.295  0.00  0.00    +0.000 A 
ATOM      7  C   UNL     1       5.009   4.261  15.739  0.00  0.00    +0.000 A 
ATOM      8  C   UNL     1       4.130   4.384  16.836  0.00  0.00    +0.000 A 
ATOM      9  C   UNL     1       3.391   3.286  17.262  0.00  0.00    +0.000 A 
ATOM     10  C   UNL     1       2.529   3.382  18.359  0.00  0.00    +0.000 A 
ATOM     11  C   UNL     1       1.791   2.253  18.743  0.00  0.00    +0.000 A 
ATOM     12  C   UNL     1       0.936   2.305  19.843  0.00  0.00    +0.000 A 
ATOM     13  C   UNL     1       0.818   3.472  20.577  0.00  0.00    +0.000 A 
ATOM     14  C   UNL     1       1.550   4.609  20.217  0.00  0.00    +0.000 A 
ATOM     15  C   UNL     1       2.408   4.602  19.087  0.00  0.00    +0.000 A 
ENDBRANCH   1   2
BRANCH   1  16
ATOM     16  N   UNL     1       1.888   7.864  19.269  0.00  0.00    +0.000 NA
BRANCH  16  18
ATOM     17  C   UNL     1       0.570   8.083  21.440  0.00  0.00    +0.000 C 
ATOM     18  C   UNL     1       1.567   8.707  20.451  0.00  0.00    +0.000 C 
ENDBRANCH  16  18
BRANCH  16  19
ATOM     19  C   UNL     1       1.880   8.650  18.005  0.00  0.00    +0.000 C 
BRANCH  19  20
ATOM     20  C   UNL     1       0.932   9.884  18.003  0.00  0.00    +0.000 C 
BRANCH  20  21
ATOM     21  C   UNL     1      -0.588   9.605  18.066  0.00  0.00    +0.000 C 
BRANCH  21  22
ATOM     22  N   UNL     1      -1.390  10.378  17.103  0.00  0.00    +0.000 NA
ATOM     23  H   UNL     1      -0.923  10.397  16.168  0.00  0.00    +0.000 HD
BRANCH  22  24
ATOM     24  C   UNL     1      -2.765   9.876  16.958  0.00  0.00    +0.000 C 
BRANCH  24  25
ATOM     25  C   UNL     1      -3.578  10.756  15.989  0.00  0.00    +0.000 C 
BRANCH  25  26
ATOM     26  C   UNL     1      -4.560  11.657  16.714  0.00  0.00    +0.000 C 
BRANCH  26  27
ATOM     27  N   UNL     1      -4.042  12.048  18.019  0.00  0.00    +0.000 NA
ATOM     28  H   UNL     1      -4.302  13.044  18.199  0.00  0.00    +0.000 HD
ATOM     29  H   UNL     1      -3.002  11.978  17.990  0.00  0.00    +0.000 HD
ENDBRANCH  26  27
ENDBRANCH  25  26
ENDBRANCH  24  25
ENDBRANCH  22  24
ENDBRANCH  21  22
ENDBRANCH  20  21
ENDBRANCH  19  20
ENDBRANCH  16  19
ENDBRANCH   1  16
TORSDOF 11
ENDMDL
MODEL 7
REMARK VINA RESULT:      -6.9      0.980      1.167
REMARK  Name = 
REMARK  12 active torsions:
REMARK  status: ('A' for Active; 'I' for Inactive)
REMARK    1  A    between atoms: C_1  and  C_2
REMARK    2  A    between atoms: C_2  and  N_3
REMARK    3  A    between atoms: N_3  and  C_4
REMARK    4  A    between atoms: N_3  and  C_12
REMARK    5  A    between atoms: C_4  and  C_5
REMARK    6  A    between atoms: C_5  and  C_6
REMARK    7  A    between atoms: C_6  and  N_7
REMARK    8  A    between atoms: N_7  and  C_8
REMARK    9  A    between atoms: C_8  and  C_9
REMARK   10  A    between atoms: C_9  and  C_10
REMARK   11  A    between atoms: C_10  and  N_11
REMARK   12  A    between atoms: C_12  and  C_13
REMARK                            x       y       z     vdW  Elec       q    Type
REMARK                         _______ _______ _______ _____ _____    ______ ____
ROOT
ATOM      1  C   UNL     1       4.130   5.694  17.371  0.00  0.00    +0.000 C 
ENDROOT
BRANCH   1   2
ATOM      2  C   UNL     1       3.169   5.903  18.556  0.00  0.00    +0.000 A 
ATOM      3  C   UNL     1       2.947   4.840  19.490  0.00  0.00    +0.000 A 
ATOM      4  C   UNL     1       3.493   3.565  19.301  0.00  0.00    +0.000 A 
ATOM      5  C   UNL     1       3.348   2.537  20.227  0.00  0.00    +0.000 A 
ATOM      6  C   UNL     1       2.616   2.753  21.380  0.00  0.00    +0.000 A 
ATOM      7  C   UNL     1       2.015   3.996  21.591  0.00  0.00    +0.000 A 
ATOM      8  C   UNL     1       2.172   5.037  20.652  0.00  0.00    +0.000 A 
ATOM      9  C   UNL     1       1.559   6.267  20.867  0.00  0.00    +0.000 A 
ATOM     10  C   UNL     1       1.718   7.318  19.958  0.00  0.00    +0.000 A 
ATOM     11  C   UNL     1       1.068   8.536  20.208  0.00  0.00    +0.000 A 
ATOM     12  C   UNL     1       1.218   9.612  19.335  0.00  0.00    +0.000 A 
ATOM     13  C   UNL     1       2.025   9.492  18.217  0.00  0.00    +0.000 A 
ATOM     14  C   UNL     1       2.690   8.290  17.952  0.00  0.00    +0.000 A 
ATOM     15  C   UNL     1       2.538   7.164  18.802  0.00  0.00    +0.000 A 
ENDBRANCH   1   2
BRANCH   1  16
ATOM     16  N   UNL     1       5.469   6.305  17.556  0.00  0.00    +0.000 NA
BRANCH  16  18
ATOM     17  C   UNL     1       7.730   6.093  18.714  0.00  0.00    +0.000 C 
ATOM     18  C   UNL     1       6.263   5.644  18.626  0.00  0.00    +0.000 C 
ENDBRANCH  16  18
BRANCH  16  19
ATOM     19  C   UNL     1       6.233   6.418  16.285  0.00  0.00    +0.000 C 
BRANCH  19  20
ATOM     20  C   UNL     1       5.639   5.624  15.085  0.00  0.00    +0.000 C 
BRANCH  20  21
ATOM     21  C   UNL     1       5.577   4.084  15.222  0.00  0.00    +0.000 C 
BRANCH  21  22
ATOM     22  N   UNL     1       6.335   3.351  14.195  0.00  0.00    +0.000 NA
ATOM     23  H   UNL     1       5.725   2.649  13.719  0.00  0.00    +0.000 HD
BRANCH  22  24
ATOM     24  C   UNL     1       6.952   4.230  13.191  0.00  0.00    +0.000 C 
BRANCH  24  25
ATOM     25  C   UNL     1       6.733   3.686  11.766  0.00  0.00    +0.000 C 
BRANCH  25  26
ATOM     26  C   UNL     1       5.695   2.581  11.724  0.00  0.00    +0.000 C 
BRANCH  26  27
ATOM     27  N   UNL     1       4.364   3.125  11.487  0.00  0.00    +0.000 NA
ATOM     28  H   UNL     1       4.218   3.944  12.120  0.00  0.00    +0.000 HD
ATOM     29  H   UNL     1       3.665   2.390  11.731  0.00  0.00    +0.000 HD
ENDBRANCH  26  27
ENDBRANCH  25  26
ENDBRANCH  24  25
ENDBRANCH  22  24
ENDBRANCH  21  22
ENDBRANCH  20  21
ENDBRANCH  19  20
ENDBRANCH  16  19
ENDBRANCH   1  16
TORSDOF 11
ENDMDL
MODEL 8
REMARK VINA RESULT:      -6.8      3.689      7.702
REMARK  Name = 
REMARK  12 active torsions:
REMARK  status: ('A' for Active; 'I' for Inactive)
REMARK    1  A    between atoms: C_1  and  C_2
REMARK    2  A    between atoms: C_2  and  N_3
REMARK    3  A    between atoms: N_3  and  C_4
REMARK    4  A    between atoms: N_3  and  C_12
REMARK    5  A    between atoms: C_4  and  C_5
REMARK    6  A    between atoms: C_5  and  C_6
REMARK    7  A    between atoms: C_6  and  N_7
REMARK    8  A    between atoms: N_7  and  C_8
REMARK    9  A    between atoms: C_8  and  C_9
REMARK   10  A    between atoms: C_9  and  C_10
REMARK   11  A    between atoms: C_10  and  N_11
REMARK   12  A    between atoms: C_12  and  C_13
REMARK                            x       y       z     vdW  Elec       q    Type
REMARK                         _______ _______ _______ _____ _____    ______ ____
ROOT
ATOM      1  C   UNL     1       2.963   7.077  19.393  0.00  0.00    +0.000 C 
ENDROOT
BRANCH   1   2
ATOM      2  C   UNL     1       3.178   5.753  18.636  0.00  0.00    +0.000 A 
ATOM      3  C   UNL     1       2.403   4.600  18.984  0.00  0.00    +0.000 A 
ATOM      4  C   UNL     1       1.523   4.601  20.072  0.00  0.00    +0.000 A 
ATOM      5  C   UNL     1       0.711   3.517  20.388  0.00  0.00    +0.000 A 
ATOM      6  C   UNL     1       0.774   2.368  19.622  0.00  0.00    +0.000 A 
ATOM      7  C   UNL     1       1.670   2.304  18.552  0.00  0.00    +0.000 A 
ATOM      8  C   UNL     1       2.486   3.409  18.232  0.00  0.00    +0.000 A 
ATOM      9  C   UNL     1       3.382   3.330  17.171  0.00  0.00    +0.000 A 
ATOM     10  C   UNL     1       4.186   4.421  16.825  0.00  0.00    +0.000 A 
ATOM     11  C   UNL     1       5.086   4.289  15.758  0.00  0.00    +0.000 A 
ATOM     12  C   UNL     1       5.890   5.360  15.373  0.00  0.00    +0.000 A 
ATOM     13  C   UNL     1       5.796   6.573  16.033  0.00  0.00    +0.000 A 
ATOM     14  C   UNL     1       4.899   6.730  17.095  0.00  0.00    +0.000 A 
ATOM     15  C   UNL     1       4.086   5.653  17.534  0.00  0.00    +0.000 A 
ENDBRANCH   1   2
BRANCH   1  16
ATOM     16  N   UNL     1       1.848   7.905  18.869  0.00  0.00    +0.000 NA
BRANCH  16  18
ATOM     17  C   UNL     1       1.454   8.147  21.376  0.00  0.00    +0.000 C 
ATOM     18  C   UNL     1       1.021   8.510  19.947  0.00  0.00    +0.000 C 
ENDBRANCH  16  18
BRANCH  16  19
ATOM     19  C   UNL     1       2.298   8.918  17.877  0.00  0.00    +0.000 C 
BRANCH  19  20
ATOM     20  C   UNL     1       1.512  10.261  17.904  0.00  0.00    +0.000 C 
BRANCH  20  21
ATOM     21  C   UNL     1       2.333  11.553  18.131  0.00  0.00    +0.000 C 
BRANCH  21  22
ATOM     22  N   UNL     1       1.817  12.422  19.201  0.00  0.00    +0.000 NA
ATOM     23  H   UNL     1       2.347  12.267  20.088  0.00  0.00    +0.000 HD
BRANCH  22  24
ATOM     24  C   UNL     1       1.844  13.850  18.852  0.00  0.00    +0.000 C 
BRANCH  24  25
ATOM     25  C   UNL     1       0.416  14.412  18.698  0.00  0.00    +0.000 C 
BRANCH  25  26
ATOM     26  C   UNL     1      -0.646  13.351  18.915  0.00  0.00    +0.000 C 
BRANCH  26  27
ATOM     27  N   UNL     1      -1.080  12.780  17.647  0.00  0.00    +0.000 NA
ATOM     28  H   UNL     1      -0.290  12.235  17.235  0.00  0.00    +0.000 HD
ATOM     29  H   UNL     1      -1.312  13.566  17.000  0.00  0.00    +0.000 HD
ENDBRANCH  26  27
ENDBRANCH  25  26
ENDBRANCH  24  25
ENDBRANCH  22  24
ENDBRANCH  21  22
ENDBRANCH  20  21
ENDBRANCH  19  20
ENDBRANCH  16  19
ENDBRANCH   1  16
TORSDOF 11
ENDMDL
MODEL 9
REMARK VINA RESULT:      -6.8      2.987      6.597
REMARK  Name = 
REMARK  12 active torsions:
REMARK  status: ('A' for Active; 'I' for Inactive)
REMARK    1  A    between atoms: C_1  and  C_2
REMARK    2  A    between atoms: C_2  and  N_3
REMARK    3  A    between atoms: N_3  and  C_4
REMARK    4  A    between atoms: N_3  and  C_12
REMARK    5  A    between atoms: C_4  and  C_5
REMARK    6  A    between atoms: C_5  and  C_6
REMARK    7  A    between atoms: C_6  and  N_7
REMARK    8  A    between atoms: N_7  and  C_8
REMARK    9  A    between atoms: C_8  and  C_9
REMARK   10  A    between atoms: C_9  and  C_10
REMARK   11  A    between atoms: C_10  and  N_11
REMARK   12  A    between atoms: C_12  and  C_13
REMARK                            x       y       z     vdW  Elec       q    Type
REMARK                         _______ _______ _______ _____ _____    ______ ____
ROOT
ATOM      1  C   UNL     1       4.422   5.997  16.903  0.00  0.00    +0.000 C 
ENDROOT
BRANCH   1   2
ATOM      2  C   UNL     1       3.582   6.050  18.192  0.00  0.00    +0.000 A 
ATOM      3  C   UNL     1       2.843   7.234  18.514  0.00  0.00    +0.000 A 
ATOM      4  C   UNL     1       2.944   8.399  17.745  0.00  0.00    +0.000 A 
ATOM      5  C   UNL     1       2.186   9.538  17.997  0.00  0.00    +0.000 A 
ATOM      6  C   UNL     1       1.304   9.552  19.062  0.00  0.00    +0.000 A 
ATOM      7  C   UNL     1       1.202   8.427  19.885  0.00  0.00    +0.000 A 
ATOM      8  C   UNL     1       1.968   7.272  19.619  0.00  0.00    +0.000 A 
ATOM      9  C   UNL     1       1.866   6.162  20.452  0.00  0.00    +0.000 A 
ATOM     10  C   UNL     1       2.602   5.001  20.195  0.00  0.00    +0.000 A 
ATOM     11  C   UNL     1       2.479   3.913  21.071  0.00  0.00    +0.000 A 
ATOM     12  C   UNL     1       3.182   2.733  20.838  0.00  0.00    +0.000 A 
ATOM     13  C   UNL     1       4.000   2.619  19.727  0.00  0.00    +0.000 A 
ATOM     14  C   UNL     1       4.132   3.688  18.836  0.00  0.00    +0.000 A 
ATOM     15  C   UNL     1       3.454   4.916  19.056  0.00  0.00    +0.000 A 
ENDBRANCH   1   2
BRANCH   1  16
ATOM     16  N   UNL     1       5.801   5.483  17.094  0.00  0.00    +0.000 NA
BRANCH  16  18
ATOM     17  C   UNL     1       6.178   3.877  15.150  0.00  0.00    +0.000 C 
ATOM     18  C   UNL     1       6.505   5.226  15.809  0.00  0.00    +0.000 C 
ENDBRANCH  16  18
BRANCH  16  19
ATOM     19  C   UNL     1       6.610   6.327  18.014  0.00  0.00    +0.000 C 
BRANCH  19  20
ATOM     20  C   UNL     1       7.387   7.489  17.330  0.00  0.00    +0.000 C 
BRANCH  20  21
ATOM     21  C   UNL     1       8.246   8.395  18.244  0.00  0.00    +0.000 C 
BRANCH  21  22
ATOM     22  N   UNL     1       8.213   9.824  17.889  0.00  0.00    +0.000 NA
ATOM     23  H   UNL     1       7.379  10.289  18.314  0.00  0.00    +0.000 HD
BRANCH  22  24
ATOM     24  C   UNL     1       9.433  10.546  18.278  0.00  0.00    +0.000 C 
BRANCH  24  25
ATOM     25  C   UNL     1       9.336  12.040  17.909  0.00  0.00    +0.000 C 
BRANCH  25  26
ATOM     26  C   UNL     1      10.642  12.584  17.360  0.00  0.00    +0.000 C 
BRANCH  26  27
ATOM     27  N   UNL     1      11.752  11.695  17.678  0.00  0.00    +0.000 NA
ATOM     28  H   UNL     1      12.579  12.274  17.950  0.00  0.00    +0.000 HD
ATOM     29  H   UNL     1      11.994  11.156  16.817  0.00  0.00    +0.000 HD
ENDBRANCH  26  27
ENDBRANCH  25  26
ENDBRANCH  24  25
ENDBRANCH  22  24
ENDBRANCH  21  22
ENDBRANCH  20  21
ENDBRANCH  19  20
ENDBRANCH  16  19
ENDBRANCH   1  16
TORSDOF 11
ENDMDL
