MODEL 1
REMARK VINA RESULT:      -8.4      0.000      0.000
REMARK  Name = 
REMARK  2 active torsions:
REMARK  status: ('A' for Active; 'I' for Inactive)
REMARK    1  A    between atoms: C_1  and  C_2
REMARK    2  A    between atoms: N_4  and  C_5
REMARK                            x       y       z     vdW  Elec       q    Type
REMARK                         _______ _______ _______ _____ _____    ______ ____
ROOT
ATOM      1  C   UNL     1       6.638   5.127  16.032  0.00  0.00    +0.000 A 
ATOM      2  C   UNL     1       7.356   5.002  17.220  0.00  0.00    +0.000 A 
ATOM      3  C   UNL     1       6.717   4.621  18.400  0.00  0.00    +0.000 A 
ATOM      4  C   UNL     1       5.347   4.342  18.413  0.00  0.00    +0.000 A 
ATOM      5  C   UNL     1       4.722   3.902  19.589  0.00  0.00    +0.000 A 
ATOM      6  C   UNL     1       3.357   3.581  19.611  0.00  0.00    +0.000 A 
ATOM      7  C   UNL     1       2.746   3.110  20.784  0.00  0.00    +0.000 A 
ATOM      8  C   UNL     1       1.392   2.776  20.794  0.00  0.00    +0.000 A 
ATOM      9  C   UNL     1       0.636   2.913  19.635  0.00  0.00    +0.000 A 
ATOM     10  C   UNL     1       1.232   3.388  18.462  0.00  0.00    +0.000 A 
ATOM     11  C   UNL     1       2.595   3.726  18.433  0.00  0.00    +0.000 A 
ATOM     12  C   UNL     1       3.221   4.191  17.259  0.00  0.00    +0.000 A 
ATOM     13  C   UNL     1       4.597   4.492  17.230  0.00  0.00    +0.000 A 
ATOM     14  C   UNL     1       5.253   4.910  16.051  0.00  0.00    +0.000 A 
ENDROOT
BRANCH   1  18
ATOM     15  C   UNL     1       7.920   5.349  12.490  0.00  0.00    +0.000 C 
ATOM     16  C   UNL     1       7.119   4.748  13.613  0.00  0.00    +0.000 C 
ATOM     17  O   UNL     1       6.440   3.744  13.423  0.00  0.00    +0.000 OA
ATOM     18  N   UNL     1       7.250   5.451  14.801  0.00  0.00    +0.000 N 
ATOM     19  H   UNL     1       7.723   6.346  14.755  0.00  0.00    +0.000 HD
ENDBRANCH   1  18
TORSDOF 1
ENDMDL
MODEL 2
REMARK VINA RESULT:      -8.2      1.711      1.867
REMARK  Name = 
REMARK  2 active torsions:
REMARK  status: ('A' for Active; 'I' for Inactive)
REMARK    1  A    between atoms: C_1  and  C_2
REMARK    2  A    between atoms: N_4  and  C_5
REMARK                            x       y       z     vdW  Elec       q    Type
REMARK                         _______ _______ _______ _____ _____    ______ ____
ROOT
ATOM      1  C   UNL     1       5.661   4.566  14.998  0.00  0.00    +0.000 A 
ATOM      2  C   UNL     1       5.555   5.898  15.392  0.00  0.00    +0.000 A 
ATOM      3  C   UNL     1       4.786   6.252  16.501  0.00  0.00    +0.000 A 
ATOM      4  C   UNL     1       4.117   5.278  17.248  0.00  0.00    +0.000 A 
ATOM      5  C   UNL     1       3.394   5.635  18.396  0.00  0.00    +0.000 A 
ATOM      6  C   UNL     1       2.749   4.667  19.178  0.00  0.00    +0.000 A 
ATOM      7  C   UNL     1       2.055   5.027  20.344  0.00  0.00    +0.000 A 
ATOM      8  C   UNL     1       1.431   4.057  21.128  0.00  0.00    +0.000 A 
ATOM      9  C   UNL     1       1.490   2.719  20.752  0.00  0.00    +0.000 A 
ATOM     10  C   UNL     1       2.173   2.349  19.589  0.00  0.00    +0.000 A 
ATOM     11  C   UNL     1       2.809   3.312  18.790  0.00  0.00    +0.000 A 
ATOM     12  C   UNL     1       3.517   2.961  17.623  0.00  0.00    +0.000 A 
ATOM     13  C   UNL     1       4.185   3.930  16.848  0.00  0.00    +0.000 A 
ATOM     14  C   UNL     1       4.941   3.591  15.704  0.00  0.00    +0.000 A 
ENDROOT
BRANCH   1  18
ATOM     15  C   UNL     1       7.157   3.288  11.779  0.00  0.00    +0.000 C 
ATOM     16  C   UNL     1       6.029   3.660  12.702  0.00  0.00    +0.000 C 
ATOM     17  O   UNL     1       4.863   3.524  12.346  0.00  0.00    +0.000 OA
ATOM     18  N   UNL     1       6.474   4.150  13.920  0.00  0.00    +0.000 N 
ATOM     19  H   UNL     1       7.465   4.346  14.002  0.00  0.00    +0.000 HD
ENDBRANCH   1  18
TORSDOF 1
ENDMDL
MODEL 3
REMARK VINA RESULT:      -7.7      1.035      1.060
REMARK  Name = 
REMARK  2 active torsions:
REMARK  status: ('A' for Active; 'I' for Inactive)
REMARK    1  A    between atoms: C_1  and  C_2
REMARK    2  A    between atoms: N_4  and  C_5
REMARK                            x       y       z     vdW  Elec       q    Type
REMARK                         _______ _______ _______ _____ _____    ______ ____
ROOT
ATOM      1  C   UNL     1       5.956   4.176  15.348  0.00  0.00    +0.000 A 
ATOM      2  C   UNL     1       6.848   4.445  16.384  0.00  0.00    +0.000 A 
ATOM      3  C   UNL     1       6.417   4.450  17.711  0.00  0.00    +0.000 A 
ATOM      4  C   UNL     1       5.084   4.172  18.031  0.00  0.00    +0.000 A 
ATOM      5  C   UNL     1       4.670   4.121  19.370  0.00  0.00    +0.000 A 
ATOM      6  C   UNL     1       3.348   3.806  19.710  0.00  0.00    +0.000 A 
ATOM      7  C   UNL     1       2.948   3.724  21.054  0.00  0.00    +0.000 A 
ATOM      8  C   UNL     1       1.635   3.392  21.385  0.00  0.00    +0.000 A 
ATOM      9  C   UNL     1       0.708   3.144  20.379  0.00  0.00    +0.000 A 
ATOM     10  C   UNL     1       1.092   3.228  19.037  0.00  0.00    +0.000 A 
ATOM     11  C   UNL     1       2.411   3.559  18.685  0.00  0.00    +0.000 A 
ATOM     12  C   UNL     1       2.825   3.634  17.340  0.00  0.00    +0.000 A 
ATOM     13  C   UNL     1       4.159   3.928  16.997  0.00  0.00    +0.000 A 
ATOM     14  C   UNL     1       4.606   3.958  15.657  0.00  0.00    +0.000 A 
ENDROOT
BRANCH   1  18
ATOM     15  C   UNL     1       7.523   4.532  11.935  0.00  0.00    +0.000 C 
ATOM     16  C   UNL     1       7.364   4.840  13.399  0.00  0.00    +0.000 C 
ATOM     17  O   UNL     1       8.089   5.668  13.941  0.00  0.00    +0.000 OA
ATOM     18  N   UNL     1       6.356   4.099  13.996  0.00  0.00    +0.000 N 
ATOM     19  H   UNL     1       5.953   3.347  13.449  0.00  0.00    +0.000 HD
ENDBRANCH   1  18
TORSDOF 1
ENDMDL
MODEL 4
REMARK VINA RESULT:      -7.7      2.605      3.328
REMARK  Name = 
REMARK  2 active torsions:
REMARK  status: ('A' for Active; 'I' for Inactive)
REMARK    1  A    between atoms: C_1  and  C_2
REMARK    2  A    between atoms: N_4  and  C_5
REMARK                            x       y       z     vdW  Elec       q    Type
REMARK                         _______ _______ _______ _____ _____    ______ ____
ROOT
ATOM      1  C   UNL     1       6.263   6.888  17.128  0.00  0.00    +0.000 A 
ATOM      2  C   UNL     1       6.403   5.890  16.166  0.00  0.00    +0.000 A 
ATOM      3  C   UNL     1       5.577   4.766  16.181  0.00  0.00    +0.000 A 
ATOM      4  C   UNL     1       4.582   4.622  17.153  0.00  0.00    +0.000 A 
ATOM      5  C   UNL     1       3.717   3.519  17.128  0.00  0.00    +0.000 A 
ATOM      6  C   UNL     1       2.690   3.379  18.071  0.00  0.00    +0.000 A 
ATOM      7  C   UNL     1       1.806   2.289  18.020  0.00  0.00    +0.000 A 
ATOM      8  C   UNL     1       0.776   2.165  18.951  0.00  0.00    +0.000 A 
ATOM      9  C   UNL     1       0.620   3.126  19.945  0.00  0.00    +0.000 A 
ATOM     10  C   UNL     1       1.498   4.213  20.010  0.00  0.00    +0.000 A 
ATOM     11  C   UNL     1       2.540   4.355  19.079  0.00  0.00    +0.000 A 
ATOM     12  C   UNL     1       3.426   5.450  19.115  0.00  0.00    +0.000 A 
ATOM     13  C   UNL     1       4.444   5.604  18.154  0.00  0.00    +0.000 A 
ATOM     14  C   UNL     1       5.310   6.720  18.143  0.00  0.00    +0.000 A 
ENDROOT
BRANCH   1  18
ATOM     15  C   UNL     1       8.685   9.721  17.706  0.00  0.00    +0.000 C 
ATOM     16  C   UNL     1       8.091   8.364  17.966  0.00  0.00    +0.000 C 
ATOM     17  O   UNL     1       8.549   7.644  18.848  0.00  0.00    +0.000 OA
ATOM     18  N   UNL     1       7.033   8.071  17.119  0.00  0.00    +0.000 N 
ATOM     19  H   UNL     1       6.877   8.705  16.344  0.00  0.00    +0.000 HD
ENDBRANCH   1  18
TORSDOF 1
ENDMDL
MODEL 5
REMARK VINA RESULT:      -7.7      2.798      6.574
REMARK  Name = 
REMARK  2 active torsions:
REMARK  status: ('A' for Active; 'I' for Inactive)
REMARK    1  A    between atoms: C_1  and  C_2
REMARK    2  A    between atoms: N_4  and  C_5
REMARK                            x       y       z     vdW  Elec       q    Type
REMARK                         _______ _______ _______ _____ _____    ______ ____
ROOT
ATOM      1  C   UNL     1       3.969   4.273  18.923  0.00  0.00    +0.000 A 
ATOM      2  C   UNL     1       4.961   5.188  19.268  0.00  0.00    +0.000 A 
ATOM      3  C   UNL     1       5.935   5.565  18.342  0.00  0.00    +0.000 A 
ATOM      4  C   UNL     1       5.927   5.043  17.045  0.00  0.00    +0.000 A 
ATOM      5  C   UNL     1       6.873   5.469  16.102  0.00  0.00    +0.000 A 
ATOM      6  C   UNL     1       6.857   4.985  14.786  0.00  0.00    +0.000 A 
ATOM      7  C   UNL     1       7.787   5.441  13.838  0.00  0.00    +0.000 A 
ATOM      8  C   UNL     1       7.754   4.969  12.526  0.00  0.00    +0.000 A 
ATOM      9  C   UNL     1       6.795   4.033  12.151  0.00  0.00    +0.000 A 
ATOM     10  C   UNL     1       5.869   3.566  13.088  0.00  0.00    +0.000 A 
ATOM     11  C   UNL     1       5.886   4.033  14.412  0.00  0.00    +0.000 A 
ATOM     12  C   UNL     1       4.951   3.589  15.369  0.00  0.00    +0.000 A 
ATOM     13  C   UNL     1       4.952   4.092  16.685  0.00  0.00    +0.000 A 
ATOM     14  C   UNL     1       3.993   3.698  17.645  0.00  0.00    +0.000 A 
ENDROOT
BRANCH   1  18
ATOM     15  C   UNL     1       1.704   2.782  21.546  0.00  0.00    +0.000 C 
ATOM     16  C   UNL     1       2.999   2.942  20.797  0.00  0.00    +0.000 C 
ATOM     17  O   UNL     1       3.975   2.260  21.092  0.00  0.00    +0.000 OA
ATOM     18  N   UNL     1       2.928   3.907  19.804  0.00  0.00    +0.000 N 
ATOM     19  H   UNL     1       2.099   4.490  19.789  0.00  0.00    +0.000 HD
ENDBRANCH   1  18
TORSDOF 1
ENDMDL
MODEL 6
REMARK VINA RESULT:      -7.6      1.591      1.709
REMARK  Name = 
REMARK  2 active torsions:
REMARK  status: ('A' for Active; 'I' for Inactive)
REMARK    1  A    between atoms: C_1  and  C_2
REMARK    2  A    between atoms: N_4  and  C_5
REMARK                            x       y       z     vdW  Elec       q    Type
REMARK                         _______ _______ _______ _____ _____    ______ ____
ROOT
ATOM      1  C   UNL     1       5.320   4.926  15.218  0.00  0.00    +0.000 A 
ATOM      2  C   UNL     1       5.407   6.165  15.850  0.00  0.00    +0.000 A 
ATOM      3  C   UNL     1       4.796   6.376  17.087  0.00  0.00    +0.000 A 
ATOM      4  C   UNL     1       4.097   5.346  17.724  0.00  0.00    +0.000 A 
ATOM      5  C   UNL     1       3.535   5.547  18.994  0.00  0.00    +0.000 A 
ATOM      6  C   UNL     1       2.864   4.515  19.663  0.00  0.00    +0.000 A 
ATOM      7  C   UNL     1       2.334   4.713  20.948  0.00  0.00    +0.000 A 
ATOM      8  C   UNL     1       1.682   3.677  21.616  0.00  0.00    +0.000 A 
ATOM      9  C   UNL     1       1.551   2.434  21.005  0.00  0.00    +0.000 A 
ATOM     10  C   UNL     1       2.070   2.226  19.724  0.00  0.00    +0.000 A 
ATOM     11  C   UNL     1       2.731   3.258  19.038  0.00  0.00    +0.000 A 
ATOM     12  C   UNL     1       3.276   3.066  17.752  0.00  0.00    +0.000 A 
ATOM     13  C   UNL     1       3.971   4.096  17.088  0.00  0.00    +0.000 A 
ATOM     14  C   UNL     1       4.567   3.909  15.821  0.00  0.00    +0.000 A 
ENDROOT
BRANCH   1  18
ATOM     15  C   UNL     1       7.641   4.586  12.263  0.00  0.00    +0.000 C 
ATOM     16  C   UNL     1       7.257   5.028  13.649  0.00  0.00    +0.000 C 
ATOM     17  O   UNL     1       8.052   5.653  14.343  0.00  0.00    +0.000 OA
ATOM     18  N   UNL     1       5.971   4.645  13.996  0.00  0.00    +0.000 N 
ATOM     19  H   UNL     1       5.499   4.001  13.372  0.00  0.00    +0.000 HD
ENDBRANCH   1  18
TORSDOF 1
ENDMDL
MODEL 7
REMARK VINA RESULT:      -7.6      3.818      4.060
REMARK  Name = 
REMARK  2 active torsions:
REMARK  status: ('A' for Active; 'I' for Inactive)
REMARK    1  A    between atoms: C_1  and  C_2
REMARK    2  A    between atoms: N_4  and  C_5
REMARK                            x       y       z     vdW  Elec       q    Type
REMARK                         _______ _______ _______ _____ _____    ______ ____
ROOT
ATOM      1  C   UNL     1       4.765   5.182  16.831  0.00  0.00    +0.000 A 
ATOM      2  C   UNL     1       4.684   4.400  17.982  0.00  0.00    +0.000 A 
ATOM      3  C   UNL     1       3.958   4.839  19.089  0.00  0.00    +0.000 A 
ATOM      4  C   UNL     1       3.285   6.064  19.064  0.00  0.00    +0.000 A 
ATOM      5  C   UNL     1       2.509   6.472  20.158  0.00  0.00    +0.000 A 
ATOM      6  C   UNL     1       1.797   7.679  20.135  0.00  0.00    +0.000 A 
ATOM      7  C   UNL     1       0.995   8.065  21.221  0.00  0.00    +0.000 A 
ATOM      8  C   UNL     1       0.275   9.259  21.184  0.00  0.00    +0.000 A 
ATOM      9  C   UNL     1       0.352  10.080  20.064  0.00  0.00    +0.000 A 
ATOM     10  C   UNL     1       1.152   9.709  18.978  0.00  0.00    +0.000 A 
ATOM     11  C   UNL     1       1.882   8.509  18.998  0.00  0.00    +0.000 A 
ATOM     12  C   UNL     1       2.682   8.107  17.909  0.00  0.00    +0.000 A 
ATOM     13  C   UNL     1       3.380   6.883  17.922  0.00  0.00    +0.000 A 
ATOM     14  C   UNL     1       4.145   6.439  16.822  0.00  0.00    +0.000 A 
ENDROOT
BRANCH   1  18
ATOM     15  C   UNL     1       7.129   4.503  13.970  0.00  0.00    +0.000 C 
ATOM     16  C   UNL     1       6.719   5.118  15.280  0.00  0.00    +0.000 C 
ATOM     17  O   UNL     1       7.491   5.848  15.893  0.00  0.00    +0.000 OA
ATOM     18  N   UNL     1       5.436   4.756  15.664  0.00  0.00    +0.000 N 
ATOM     19  H   UNL     1       4.986   4.023  15.127  0.00  0.00    +0.000 HD
ENDBRANCH   1  18
TORSDOF 1
ENDMDL
MODEL 8
REMARK VINA RESULT:      -7.5      2.585      6.502
REMARK  Name = 
REMARK  2 active torsions:
REMARK  status: ('A' for Active; 'I' for Inactive)
REMARK    1  A    between atoms: C_1  and  C_2
REMARK    2  A    between atoms: N_4  and  C_5
REMARK                            x       y       z     vdW  Elec       q    Type
REMARK                         _______ _______ _______ _____ _____    ______ ____
ROOT
ATOM      1  C   UNL     1       4.345   4.123  18.945  0.00  0.00    +0.000 A 
ATOM      2  C   UNL     1       5.306   5.089  19.239  0.00  0.00    +0.000 A 
ATOM      3  C   UNL     1       6.210   5.513  18.263  0.00  0.00    +0.000 A 
ATOM      4  C   UNL     1       6.161   4.989  16.968  0.00  0.00    +0.000 A 
ATOM      5  C   UNL     1       7.033   5.462  15.977  0.00  0.00    +0.000 A 
ATOM      6  C   UNL     1       6.973   4.976  14.663  0.00  0.00    +0.000 A 
ATOM      7  C   UNL     1       7.827   5.478  13.668  0.00  0.00    +0.000 A 
ATOM      8  C   UNL     1       7.749   5.003  12.360  0.00  0.00    +0.000 A 
ATOM      9  C   UNL     1       6.821   4.019  12.033  0.00  0.00    +0.000 A 
ATOM     10  C   UNL     1       5.970   3.507  13.017  0.00  0.00    +0.000 A 
ATOM     11  C   UNL     1       6.033   3.976  14.339  0.00  0.00    +0.000 A 
ATOM     12  C   UNL     1       5.174   3.486  15.344  0.00  0.00    +0.000 A 
ATOM     13  C   UNL     1       5.218   3.990  16.659  0.00  0.00    +0.000 A 
ATOM     14  C   UNL     1       4.332   3.549  17.666  0.00  0.00    +0.000 A 
ENDROOT
BRANCH   1  18
ATOM     15  C   UNL     1       1.242   3.289  20.920  0.00  0.00    +0.000 C 
ATOM     16  C   UNL     1       1.997   3.809  19.729  0.00  0.00    +0.000 C 
ATOM     17  O   UNL     1       1.395   4.259  18.759  0.00  0.00    +0.000 OA
ATOM     18  N   UNL     1       3.372   3.706  19.879  0.00  0.00    +0.000 N 
ATOM     19  H   UNL     1       3.708   3.170  20.671  0.00  0.00    +0.000 HD
ENDBRANCH   1  18
TORSDOF 1
ENDMDL
MODEL 9
REMARK VINA RESULT:      -7.4      4.520      4.897
REMARK  Name = 
REMARK  2 active torsions:
REMARK  status: ('A' for Active; 'I' for Inactive)
REMARK    1  A    between atoms: C_1  and  C_2
REMARK    2  A    between atoms: N_4  and  C_5
REMARK                            x       y       z     vdW  Elec       q    Type
REMARK                         _______ _______ _______ _____ _____    ______ ____
ROOT
ATOM      1  C   UNL     1       4.316   5.624  17.398  0.00  0.00    +0.000 A 
ATOM      2  C   UNL     1       4.112   5.009  18.632  0.00  0.00    +0.000 A 
ATOM      3  C   UNL     1       3.315   5.613  19.604  0.00  0.00    +0.000 A 
ATOM      4  C   UNL     1       2.692   6.840  19.358  0.00  0.00    +0.000 A 
ATOM      5  C   UNL     1       1.845   7.413  20.317  0.00  0.00    +0.000 A 
ATOM      6  C   UNL     1       1.182   8.624  20.070  0.00  0.00    +0.000 A 
ATOM      7  C   UNL     1       0.309   9.175  21.022  0.00  0.00    +0.000 A 
ATOM      8  C   UNL     1      -0.360  10.370  20.764  0.00  0.00    +0.000 A 
ATOM      9  C   UNL     1      -0.161  11.029  19.555  0.00  0.00    +0.000 A 
ATOM     10  C   UNL     1       0.710  10.493  18.602  0.00  0.00    +0.000 A 
ATOM     11  C   UNL     1       1.391   9.289  18.844  0.00  0.00    +0.000 A 
ATOM     12  C   UNL     1       2.261   8.721  17.892  0.00  0.00    +0.000 A 
ATOM     13  C   UNL     1       2.910   7.493  18.129  0.00  0.00    +0.000 A 
ATOM     14  C   UNL     1       3.746   6.884  17.168  0.00  0.00    +0.000 A 
ENDROOT
BRANCH   1  18
ATOM     15  C   UNL     1       6.826   4.588  14.779  0.00  0.00    +0.000 C 
ATOM     16  C   UNL     1       6.314   5.429  15.916  0.00  0.00    +0.000 C 
ATOM     17  O   UNL     1       6.988   6.355  16.357  0.00  0.00    +0.000 OA
ATOM     18  N   UNL     1       5.064   5.025  16.361  0.00  0.00    +0.000 N 
ATOM     19  H   UNL     1       4.709   4.148  15.997  0.00  0.00    +0.000 HD
ENDBRANCH   1  18
TORSDOF 1
ENDMDL
