MODEL 1
REMARK VINA RESULT:      -7.8      0.000      0.000
REMARK  Name = 
REMARK  7 active torsions:
REMARK  status: ('A' for Active; 'I' for Inactive)
REMARK    1  A    between atoms: C_2  and  C_3
REMARK    2  A    between atoms: C_3  and  C_4
REMARK    3  A    between atoms: C_7  and  O_8
REMARK    4  A    between atoms: O_8  and  C_9
REMARK    5  A    between atoms: C_9  and  C_11
REMARK    6  A    between atoms: C_18  and  O_19
REMARK    7  A    between atoms: O_19  and  C_20
REMARK                            x       y       z     vdW  Elec       q    Type
REMARK                         _______ _______ _______ _____ _____    ______ ____
ROOT
ATOM      1  C   UNL     1       5.870   4.778  15.778  0.00  0.00    +0.000 A 
ATOM      2  C   UNL     1       5.159   5.983  15.829  0.00  0.00    +0.000 A 
ATOM      3  C   UNL     1       4.551   6.388  17.014  0.00  0.00    +0.000 A 
ATOM      4  C   UNL     1       4.628   5.579  18.151  0.00  0.00    +0.000 A 
ATOM      5  C   UNL     1       5.312   4.355  18.122  0.00  0.00    +0.000 A 
ATOM      6  C   UNL     1       5.925   3.962  16.925  0.00  0.00    +0.000 A 
ENDROOT
BRANCH   5   7
ATOM      7  O   UNL     1       5.372   3.648  19.296  0.00  0.00    +0.000 OA
ATOM      8  C   UNL     1       4.621   2.441  19.347  0.00  0.00    +0.000 C 
ENDBRANCH   5   7
BRANCH   1   9
ATOM      9  C   UNL     1       6.576   4.373  14.507  0.00  0.00    +0.000 C 
BRANCH   9  11
ATOM     10  C   UNL     1       5.973   3.215  12.360  0.00  0.00    +0.000 C 
ATOM     11  C   UNL     1       5.625   3.947  13.426  0.00  0.00    +0.000 C 
ENDBRANCH   9  11
ENDBRANCH   1   9
BRANCH   4  12
ATOM     12  O   UNL     1       4.153   6.065  19.389  0.00  0.00    +0.000 OA
BRANCH  12  13
ATOM     13  C   UNL     1       2.797   6.295  19.484  0.00  0.00    +0.000 C 
ATOM     14  O   UNL     1       2.226   7.375  19.415  0.00  0.00    +0.000 OA
BRANCH  13  15
ATOM     15  C   UNL     1       2.070   5.031  19.729  0.00  0.00    +0.000 A 
ATOM     16  C   UNL     1       2.062   4.497  21.027  0.00  0.00    +0.000 A 
ATOM     17  C   UNL     1       1.511   3.234  21.266  0.00  0.00    +0.000 A 
ATOM     18  C   UNL     1       0.977   2.493  20.211  0.00  0.00    +0.000 A 
ATOM     19  C   UNL     1       0.974   3.023  18.922  0.00  0.00    +0.000 A 
ATOM     20  C   UNL     1       1.519   4.284  18.686  0.00  0.00    +0.000 A 
ATOM     21  F   UNL     1       1.550   4.720  17.418  0.00  0.00    +0.000 F 
ENDBRANCH  13  15
ENDBRANCH  12  13
ENDBRANCH   4  12
TORSDOF 6
ENDMDL
MODEL 2
REMARK VINA RESULT:      -7.7      1.766      2.465
REMARK  Name = 
REMARK  7 active torsions:
REMARK  status: ('A' for Active; 'I' for Inactive)
REMARK    1  A    between atoms: C_2  and  C_3
REMARK    2  A    between atoms: C_3  and  C_4
REMARK    3  A    between atoms: C_7  and  O_8
REMARK    4  A    between atoms: O_8  and  C_9
REMARK    5  A    between atoms: C_9  and  C_11
REMARK    6  A    between atoms: C_18  and  O_19
REMARK    7  A    between atoms: O_19  and  C_20
REMARK                            x       y       z     vdW  Elec       q    Type
REMARK                         _______ _______ _______ _____ _____    ______ ____
ROOT
ATOM      1  C   UNL     1       6.339   4.421  15.082  0.00  0.00    +0.000 A 
ATOM      2  C   UNL     1       4.986   4.234  15.391  0.00  0.00    +0.000 A 
ATOM      3  C   UNL     1       4.573   4.178  16.719  0.00  0.00    +0.000 A 
ATOM      4  C   UNL     1       5.512   4.283  17.749  0.00  0.00    +0.000 A 
ATOM      5  C   UNL     1       6.876   4.445  17.469  0.00  0.00    +0.000 A 
ATOM      6  C   UNL     1       7.279   4.507  16.129  0.00  0.00    +0.000 A 
ENDROOT
BRANCH   5   7
ATOM      7  O   UNL     1       7.719   4.582  18.542  0.00  0.00    +0.000 OA
ATOM      8  C   UNL     1       7.938   5.908  19.008  0.00  0.00    +0.000 C 
ENDBRANCH   5   7
BRANCH   1   9
ATOM      9  C   UNL     1       6.774   4.539  13.641  0.00  0.00    +0.000 C 
BRANCH   9  11
ATOM     10  C   UNL     1       5.424   3.377  11.869  0.00  0.00    +0.000 C 
ATOM     11  C   UNL     1       6.371   3.352  12.815  0.00  0.00    +0.000 C 
ENDBRANCH   9  11
ENDBRANCH   1   9
BRANCH   4  12
ATOM     12  O   UNL     1       5.074   4.390  19.087  0.00  0.00    +0.000 OA
BRANCH  12  13
ATOM     13  C   UNL     1       4.564   3.246  19.664  0.00  0.00    +0.000 C 
ATOM     14  O   UNL     1       5.199   2.324  20.159  0.00  0.00    +0.000 OA
BRANCH  13  15
ATOM     15  C   UNL     1       3.087   3.236  19.583  0.00  0.00    +0.000 A 
ATOM     16  C   UNL     1       2.359   4.097  20.419  0.00  0.00    +0.000 A 
ATOM     17  C   UNL     1       0.964   4.011  20.474  0.00  0.00    +0.000 A 
ATOM     18  C   UNL     1       0.291   3.061  19.706  0.00  0.00    +0.000 A 
ATOM     19  C   UNL     1       1.009   2.210  18.867  0.00  0.00    +0.000 A 
ATOM     20  C   UNL     1       2.399   2.299  18.810  0.00  0.00    +0.000 A 
ATOM     21  F   UNL     1       3.046   1.415  18.037  0.00  0.00    +0.000 F 
ENDBRANCH  13  15
ENDBRANCH  12  13
ENDBRANCH   4  12
TORSDOF 6
ENDMDL
MODEL 3
REMARK VINA RESULT:      -7.5      1.018      1.235
REMARK  Name = 
REMARK  7 active torsions:
REMARK  status: ('A' for Active; 'I' for Inactive)
REMARK    1  A    between atoms: C_2  and  C_3
REMARK    2  A    between atoms: C_3  and  C_4
REMARK    3  A    between atoms: C_7  and  O_8
REMARK    4  A    between atoms: O_8  and  C_9
REMARK    5  A    between atoms: C_9  and  C_11
REMARK    6  A    between atoms: C_18  and  O_19
REMARK    7  A    between atoms: O_19  and  C_20
REMARK                            x       y       z     vdW  Elec       q    Type
REMARK                         _______ _______ _______ _____ _____    ______ ____
ROOT
ATOM      1  C   UNL     1       6.271   4.925  15.791  0.00  0.00    +0.000 A 
ATOM      2  C   UNL     1       4.957   5.409  15.797  0.00  0.00    +0.000 A 
ATOM      3  C   UNL     1       4.318   5.686  17.002  0.00  0.00    +0.000 A 
ATOM      4  C   UNL     1       4.978   5.456  18.212  0.00  0.00    +0.000 A 
ATOM      5  C   UNL     1       6.284   4.946  18.237  0.00  0.00    +0.000 A 
ATOM      6  C   UNL     1       6.920   4.679  17.018  0.00  0.00    +0.000 A 
ENDROOT
BRANCH   5   7
ATOM      7  O   UNL     1       6.868   4.793  19.468  0.00  0.00    +0.000 OA
ATOM      8  C   UNL     1       7.962   5.655  19.762  0.00  0.00    +0.000 C 
ENDBRANCH   5   7
BRANCH   1   9
ATOM      9  C   UNL     1       6.980   4.683  14.480  0.00  0.00    +0.000 C 
BRANCH   9  11
ATOM     10  C   UNL     1       6.238   3.672  12.302  0.00  0.00    +0.000 C 
ATOM     11  C   UNL     1       6.302   3.639  13.639  0.00  0.00    +0.000 C 
ENDBRANCH   9  11
ENDBRANCH   1   9
BRANCH   4  12
ATOM     12  O   UNL     1       4.392   5.887  19.422  0.00  0.00    +0.000 OA
BRANCH  12  13
ATOM     13  C   UNL     1       3.034   6.129  19.400  0.00  0.00    +0.000 C 
ATOM     14  O   UNL     1       2.476   7.173  19.091  0.00  0.00    +0.000 OA
BRANCH  13  15
ATOM     15  C   UNL     1       2.286   4.935  19.851  0.00  0.00    +0.000 A 
ATOM     16  C   UNL     1       2.472   4.478  21.165  0.00  0.00    +0.000 A 
ATOM     17  C   UNL     1       1.895   3.273  21.579  0.00  0.00    +0.000 A 
ATOM     18  C   UNL     1       1.141   2.514  20.684  0.00  0.00    +0.000 A 
ATOM     19  C   UNL     1       0.945   2.970  19.381  0.00  0.00    +0.000 A 
ATOM     20  C   UNL     1       1.517   4.173  18.970  0.00  0.00    +0.000 A 
ATOM     21  F   UNL     1       1.352   4.533  17.689  0.00  0.00    +0.000 F 
ENDBRANCH  13  15
ENDBRANCH  12  13
ENDBRANCH   4  12
TORSDOF 6
ENDMDL
MODEL 4
REMARK VINA RESULT:      -7.4      1.346      1.877
REMARK  Name = 
REMARK  7 active torsions:
REMARK  status: ('A' for Active; 'I' for Inactive)
REMARK    1  A    between atoms: C_2  and  C_3
REMARK    2  A    between atoms: C_3  and  C_4
REMARK    3  A    between atoms: C_7  and  O_8
REMARK    4  A    between atoms: O_8  and  C_9
REMARK    5  A    between atoms: C_9  and  C_11
REMARK    6  A    between atoms: C_18  and  O_19
REMARK    7  A    between atoms: O_19  and  C_20
REMARK                            x       y       z     vdW  Elec       q    Type
REMARK                         _______ _______ _______ _____ _____    ______ ____
ROOT
ATOM      1  C   UNL     1       6.151   4.568  15.039  0.00  0.00    +0.000 A 
ATOM      2  C   UNL     1       5.151   3.778  15.618  0.00  0.00    +0.000 A 
ATOM      3  C   UNL     1       4.681   4.069  16.896  0.00  0.00    +0.000 A 
ATOM      4  C   UNL     1       5.226   5.136  17.615  0.00  0.00    +0.000 A 
ATOM      5  C   UNL     1       6.247   5.928  17.070  0.00  0.00    +0.000 A 
ATOM      6  C   UNL     1       6.706   5.630  15.781  0.00  0.00    +0.000 A 
ENDROOT
BRANCH   5   7
ATOM      7  O   UNL     1       6.691   6.980  17.830  0.00  0.00    +0.000 OA
ATOM      8  C   UNL     1       7.935   6.797  18.498  0.00  0.00    +0.000 C 
ENDBRANCH   5   7
BRANCH   1   9
ATOM      9  C   UNL     1       6.615   4.284  13.630  0.00  0.00    +0.000 C 
BRANCH   9  11
ATOM     10  C   UNL     1       5.934   2.693  11.809  0.00  0.00    +0.000 C 
ATOM     11  C   UNL     1       5.618   3.484  12.842  0.00  0.00    +0.000 C 
ENDBRANCH   9  11
ENDBRANCH   1   9
BRANCH   4  12
ATOM     12  O   UNL     1       4.639   5.528  18.838  0.00  0.00    +0.000 OA
BRANCH  12  13
ATOM     13  C   UNL     1       3.317   5.915  18.794  0.00  0.00    +0.000 C 
ATOM     14  O   UNL     1       2.866   6.946  18.312  0.00  0.00    +0.000 OA
BRANCH  13  15
ATOM     15  C   UNL     1       2.459   4.913  19.462  0.00  0.00    +0.000 A 
ATOM     16  C   UNL     1       2.683   4.628  20.818  0.00  0.00    +0.000 A 
ATOM     17  C   UNL     1       1.990   3.586  21.442  0.00  0.00    +0.000 A 
ATOM     18  C   UNL     1       1.080   2.817  20.717  0.00  0.00    +0.000 A 
ATOM     19  C   UNL     1       0.847   3.103  19.372  0.00  0.00    +0.000 A 
ATOM     20  C   UNL     1       1.534   4.144  18.752  0.00  0.00    +0.000 A 
ATOM     21  F   UNL     1       1.321   4.336  17.442  0.00  0.00    +0.000 F 
ENDBRANCH  13  15
ENDBRANCH  12  13
ENDBRANCH   4  12
TORSDOF 6
ENDMDL
MODEL 5
REMARK VINA RESULT:      -7.4      1.671      2.634
REMARK  Name = 
REMARK  7 active torsions:
REMARK  status: ('A' for Active; 'I' for Inactive)
REMARK    1  A    between atoms: C_2  and  C_3
REMARK    2  A    between atoms: C_3  and  C_4
REMARK    3  A    between atoms: C_7  and  O_8
REMARK    4  A    between atoms: O_8  and  C_9
REMARK    5  A    between atoms: C_9  and  C_11
REMARK    6  A    between atoms: C_18  and  O_19
REMARK    7  A    between atoms: O_19  and  C_20
REMARK                            x       y       z     vdW  Elec       q    Type
REMARK                         _______ _______ _______ _____ _____    ______ ____
ROOT
ATOM      1  C   UNL     1       6.276   4.354  14.284  0.00  0.00    +0.000 A 
ATOM      2  C   UNL     1       5.016   3.950  14.741  0.00  0.00    +0.000 A 
ATOM      3  C   UNL     1       4.637   4.193  16.058  0.00  0.00    +0.000 A 
ATOM      4  C   UNL     1       5.526   4.820  16.936  0.00  0.00    +0.000 A 
ATOM      5  C   UNL     1       6.804   5.211  16.513  0.00  0.00    +0.000 A 
ATOM      6  C   UNL     1       7.170   4.968  15.184  0.00  0.00    +0.000 A 
ENDROOT
BRANCH   5   7
ATOM      7  O   UNL     1       7.592   5.857  17.432  0.00  0.00    +0.000 OA
ATOM      8  C   UNL     1       7.559   7.280  17.405  0.00  0.00    +0.000 C 
ENDBRANCH   5   7
BRANCH   1   9
ATOM      9  C   UNL     1       6.658   4.141  12.839  0.00  0.00    +0.000 C 
BRANCH   9  11
ATOM     10  C   UNL     1       4.713   3.250  11.521  0.00  0.00    +0.000 C 
ATOM     11  C   UNL     1       5.860   3.051  12.183  0.00  0.00    +0.000 C 
ENDBRANCH   9  11
ENDBRANCH   1   9
BRANCH   4  12
ATOM     12  O   UNL     1       5.083   5.210  18.219  0.00  0.00    +0.000 OA
BRANCH  12  13
ATOM     13  C   UNL     1       4.834   4.198  19.122  0.00  0.00    +0.000 C 
ATOM     14  O   UNL     1       5.654   3.449  19.636  0.00  0.00    +0.000 OA
BRANCH  13  15
ATOM     15  C   UNL     1       3.383   4.085  19.389  0.00  0.00    +0.000 A 
ATOM     16  C   UNL     1       2.777   5.023  20.239  0.00  0.00    +0.000 A 
ATOM     17  C   UNL     1       1.444   4.863  20.628  0.00  0.00    +0.000 A 
ATOM     18  C   UNL     1       0.712   3.762  20.181  0.00  0.00    +0.000 A 
ATOM     19  C   UNL     1       1.306   2.833  19.329  0.00  0.00    +0.000 A 
ATOM     20  C   UNL     1       2.634   2.996  18.938  0.00  0.00    +0.000 A 
ATOM     21  F   UNL     1       3.177   2.040  18.170  0.00  0.00    +0.000 F 
ENDBRANCH  13  15
ENDBRANCH  12  13
ENDBRANCH   4  12
TORSDOF 6
ENDMDL
MODEL 6
REMARK VINA RESULT:      -7.3      1.882      2.747
REMARK  Name = 
REMARK  7 active torsions:
REMARK  status: ('A' for Active; 'I' for Inactive)
REMARK    1  A    between atoms: C_2  and  C_3
REMARK    2  A    between atoms: C_3  and  C_4
REMARK    3  A    between atoms: C_7  and  O_8
REMARK    4  A    between atoms: O_8  and  C_9
REMARK    5  A    between atoms: C_9  and  C_11
REMARK    6  A    between atoms: C_18  and  O_19
REMARK    7  A    between atoms: O_19  and  C_20
REMARK                            x       y       z     vdW  Elec       q    Type
REMARK                         _______ _______ _______ _____ _____    ______ ____
ROOT
ATOM      1  C   UNL     1       6.236   4.390  15.415  0.00  0.00    +0.000 A 
ATOM      2  C   UNL     1       4.978   3.853  15.715  0.00  0.00    +0.000 A 
ATOM      3  C   UNL     1       4.564   3.735  17.038  0.00  0.00    +0.000 A 
ATOM      4  C   UNL     1       5.416   4.128  18.074  0.00  0.00    +0.000 A 
ATOM      5  C   UNL     1       6.692   4.643  17.805  0.00  0.00    +0.000 A 
ATOM      6  C   UNL     1       7.093   4.765  16.468  0.00  0.00    +0.000 A 
ENDROOT
BRANCH   5   7
ATOM      7  O   UNL     1       7.441   5.043  18.882  0.00  0.00    +0.000 OA
ATOM      8  C   UNL     1       7.973   6.362  18.828  0.00  0.00    +0.000 C 
ENDBRANCH   5   7
BRANCH   1   9
ATOM      9  C   UNL     1       6.655   4.570  13.976  0.00  0.00    +0.000 C 
BRANCH   9  11
ATOM     10  C   UNL     1       5.368   3.631  12.033  0.00  0.00    +0.000 C 
ATOM     11  C   UNL     1       6.174   3.459  13.088  0.00  0.00    +0.000 C 
ENDBRANCH   9  11
ENDBRANCH   1   9
BRANCH   4  12
ATOM     12  O   UNL     1       4.935   4.158  19.402  0.00  0.00    +0.000 OA
BRANCH  12  13
ATOM     13  C   UNL     1       4.451   2.972  19.912  0.00  0.00    +0.000 C 
ATOM     14  O   UNL     1       5.107   2.029  20.333  0.00  0.00    +0.000 OA
BRANCH  13  15
ATOM     15  C   UNL     1       2.973   2.947  19.860  0.00  0.00    +0.000 A 
ATOM     16  C   UNL     1       2.343   2.054  18.980  0.00  0.00    +0.000 A 
ATOM     17  C   UNL     1       0.958   2.104  18.798  0.00  0.00    +0.000 A 
ATOM     18  C   UNL     1       0.196   3.051  19.483  0.00  0.00    +0.000 A 
ATOM     19  C   UNL     1       0.816   3.934  20.365  0.00  0.00    +0.000 A 
ATOM     20  C   UNL     1       2.196   3.880  20.549  0.00  0.00    +0.000 A 
ATOM     21  F   UNL     1       2.751   4.794  21.359  0.00  0.00    +0.000 F 
ENDBRANCH  13  15
ENDBRANCH  12  13
ENDBRANCH   4  12
TORSDOF 6
ENDMDL
MODEL 7
REMARK VINA RESULT:      -7.3      1.701      2.672
REMARK  Name = 
REMARK  7 active torsions:
REMARK  status: ('A' for Active; 'I' for Inactive)
REMARK    1  A    between atoms: C_2  and  C_3
REMARK    2  A    between atoms: C_3  and  C_4
REMARK    3  A    between atoms: C_7  and  O_8
REMARK    4  A    between atoms: O_8  and  C_9
REMARK    5  A    between atoms: C_9  and  C_11
REMARK    6  A    between atoms: C_18  and  O_19
REMARK    7  A    between atoms: O_19  and  C_20
REMARK                            x       y       z     vdW  Elec       q    Type
REMARK                         _______ _______ _______ _____ _____    ______ ____
ROOT
ATOM      1  C   UNL     1       6.149   4.380  14.430  0.00  0.00    +0.000 A 
ATOM      2  C   UNL     1       5.233   3.583  15.127  0.00  0.00    +0.000 A 
ATOM      3  C   UNL     1       4.717   4.013  16.347  0.00  0.00    +0.000 A 
ATOM      4  C   UNL     1       5.133   5.231  16.891  0.00  0.00    +0.000 A 
ATOM      5  C   UNL     1       6.069   6.037  16.228  0.00  0.00    +0.000 A 
ATOM      6  C   UNL     1       6.575   5.597  14.998  0.00  0.00    +0.000 A 
ENDROOT
BRANCH   5   7
ATOM      7  O   UNL     1       6.386   7.235  16.816  0.00  0.00    +0.000 OA
ATOM      8  C   UNL     1       7.604   7.277  17.550  0.00  0.00    +0.000 C 
ENDBRANCH   5   7
BRANCH   1   9
ATOM      9  C   UNL     1       6.660   3.936  13.080  0.00  0.00    +0.000 C 
BRANCH   9  11
ATOM     10  C   UNL     1       5.673   2.174  11.585  0.00  0.00    +0.000 C 
ATOM     11  C   UNL     1       5.580   3.352  12.215  0.00  0.00    +0.000 C 
ENDBRANCH   9  11
ENDBRANCH   1   9
BRANCH   4  12
ATOM     12  O   UNL     1       4.491   5.738  18.042  0.00  0.00    +0.000 OA
BRANCH  12  13
ATOM     13  C   UNL     1       4.764   5.102  19.234  0.00  0.00    +0.000 C 
ATOM     14  O   UNL     1       5.853   4.996  19.781  0.00  0.00    +0.000 OA
BRANCH  13  15
ATOM     15  C   UNL     1       3.535   4.498  19.794  0.00  0.00    +0.000 A 
ATOM     16  C   UNL     1       3.416   3.099  19.807  0.00  0.00    +0.000 A 
ATOM     17  C   UNL     1       2.214   2.499  20.192  0.00  0.00    +0.000 A 
ATOM     18  C   UNL     1       1.122   3.288  20.556  0.00  0.00    +0.000 A 
ATOM     19  C   UNL     1       1.239   4.677  20.554  0.00  0.00    +0.000 A 
ATOM     20  C   UNL     1       2.439   5.275  20.174  0.00  0.00    +0.000 A 
ATOM     21  F   UNL     1       2.479   6.614  20.127  0.00  0.00    +0.000 F 
ENDBRANCH  13  15
ENDBRANCH  12  13
ENDBRANCH   4  12
TORSDOF 6
ENDMDL
MODEL 8
REMARK VINA RESULT:      -7.2      2.536      4.094
REMARK  Name = 
REMARK  7 active torsions:
REMARK  status: ('A' for Active; 'I' for Inactive)
REMARK    1  A    between atoms: C_2  and  C_3
REMARK    2  A    between atoms: C_3  and  C_4
REMARK    3  A    between atoms: C_7  and  O_8
REMARK    4  A    between atoms: O_8  and  C_9
REMARK    5  A    between atoms: C_9  and  C_11
REMARK    6  A    between atoms: C_18  and  O_19
REMARK    7  A    between atoms: O_19  and  C_20
REMARK                            x       y       z     vdW  Elec       q    Type
REMARK                         _______ _______ _______ _____ _____    ______ ____
ROOT
ATOM      1  C   UNL     1       6.746   6.062  17.881  0.00  0.00    +0.000 A 
ATOM      2  C   UNL     1       5.544   6.152  18.593  0.00  0.00    +0.000 A 
ATOM      3  C   UNL     1       4.478   5.315  18.276  0.00  0.00    +0.000 A 
ATOM      4  C   UNL     1       4.597   4.398  17.228  0.00  0.00    +0.000 A 
ATOM      5  C   UNL     1       5.780   4.304  16.481  0.00  0.00    +0.000 A 
ATOM      6  C   UNL     1       6.848   5.147  16.815  0.00  0.00    +0.000 A 
ENDROOT
BRANCH   5   7
ATOM      7  O   UNL     1       5.822   3.346  15.500  0.00  0.00    +0.000 OA
ATOM      8  C   UNL     1       6.027   3.811  14.171  0.00  0.00    +0.000 C 
ENDBRANCH   5   7
BRANCH   1   9
ATOM      9  C   UNL     1       7.919   6.932  18.268  0.00  0.00    +0.000 C 
BRANCH   9  11
ATOM     10  C   UNL     1       8.462   9.384  18.203  0.00  0.00    +0.000 C 
ATOM     11  C   UNL     1       7.821   8.320  17.703  0.00  0.00    +0.000 C 
ENDBRANCH   9  11
ENDBRANCH   1   9
BRANCH   4  12
ATOM     12  O   UNL     1       3.579   3.443  17.015  0.00  0.00    +0.000 OA
BRANCH  12  13
ATOM     13  C   UNL     1       3.595   2.329  17.828  0.00  0.00    +0.000 C 
ATOM     14  O   UNL     1       4.150   1.262  17.605  0.00  0.00    +0.000 OA
BRANCH  13  15
ATOM     15  C   UNL     1       2.793   2.565  19.049  0.00  0.00    +0.000 A 
ATOM     16  C   UNL     1       1.473   3.021  18.912  0.00  0.00    +0.000 A 
ATOM     17  C   UNL     1       0.737   3.392  20.042  0.00  0.00    +0.000 A 
ATOM     18  C   UNL     1       1.315   3.320  21.309  0.00  0.00    +0.000 A 
ATOM     19  C   UNL     1       2.623   2.859  21.450  0.00  0.00    +0.000 A 
ATOM     20  C   UNL     1       3.354   2.485  20.325  0.00  0.00    +0.000 A 
ATOM     21  F   UNL     1       4.629   2.109  20.509  0.00  0.00    +0.000 F 
ENDBRANCH  13  15
ENDBRANCH  12  13
ENDBRANCH   4  12
TORSDOF 6
ENDMDL
MODEL 9
REMARK VINA RESULT:      -7.1      2.521      4.075
REMARK  Name = 
REMARK  7 active torsions:
REMARK  status: ('A' for Active; 'I' for Inactive)
REMARK    1  A    between atoms: C_2  and  C_3
REMARK    2  A    between atoms: C_3  and  C_4
REMARK    3  A    between atoms: C_7  and  O_8
REMARK    4  A    between atoms: O_8  and  C_9
REMARK    5  A    between atoms: C_9  and  C_11
REMARK    6  A    between atoms: C_18  and  O_19
REMARK    7  A    between atoms: O_19  and  C_20
REMARK                            x       y       z     vdW  Elec       q    Type
REMARK                         _______ _______ _______ _____ _____    ______ ____
ROOT
ATOM      1  C   UNL     1       7.116   7.228  17.631  0.00  0.00    +0.000 A 
ATOM      2  C   UNL     1       7.733   6.040  18.041  0.00  0.00    +0.000 A 
ATOM      3  C   UNL     1       6.987   4.873  18.172  0.00  0.00    +0.000 A 
ATOM      4  C   UNL     1       5.612   4.889  17.918  0.00  0.00    +0.000 A 
ATOM      5  C   UNL     1       4.963   6.071  17.532  0.00  0.00    +0.000 A 
ATOM      6  C   UNL     1       5.727   7.237  17.397  0.00  0.00    +0.000 A 
ENDROOT
BRANCH   5   7
ATOM      7  O   UNL     1       3.621   5.984  17.263  0.00  0.00    +0.000 OA
ATOM      8  C   UNL     1       2.762   6.789  18.062  0.00  0.00    +0.000 C 
ENDBRANCH   5   7
BRANCH   1   9
ATOM      9  C   UNL     1       7.941   8.477  17.434  0.00  0.00    +0.000 C 
BRANCH   9  11
ATOM     10  C   UNL     1       9.176  10.136  18.861  0.00  0.00    +0.000 C 
ATOM     11  C   UNL     1       8.615   8.932  18.697  0.00  0.00    +0.000 C 
ENDBRANCH   9  11
ENDBRANCH   1   9
BRANCH   4  12
ATOM     12  O   UNL     1       4.891   3.676  17.894  0.00  0.00    +0.000 OA
BRANCH  12  13
ATOM     13  C   UNL     1       4.508   3.158  19.113  0.00  0.00    +0.000 C 
ATOM     14  O   UNL     1       5.233   2.652  19.959  0.00  0.00    +0.000 OA
BRANCH  13  15
ATOM     15  C   UNL     1       3.042   3.253  19.282  0.00  0.00    +0.000 A 
ATOM     16  C   UNL     1       2.531   4.019  20.341  0.00  0.00    +0.000 A 
ATOM     17  C   UNL     1       1.161   4.012  20.618  0.00  0.00    +0.000 A 
ATOM     18  C   UNL     1       0.295   3.236  19.848  0.00  0.00    +0.000 A 
ATOM     19  C   UNL     1       0.796   2.481  18.788  0.00  0.00    +0.000 A 
ATOM     20  C   UNL     1       2.162   2.491  18.511  0.00  0.00    +0.000 A 
ATOM     21  F   UNL     1       2.600   1.698  17.522  0.00  0.00    +0.000 F 
ENDBRANCH  13  15
ENDBRANCH  12  13
ENDBRANCH   4  12
TORSDOF 6
ENDMDL
