MODEL 1
REMARK VINA RESULT:      -8.1      0.000      0.000
REMARK  Name = 
REMARK  0 active torsions:
REMARK  status: ('A' for Active; 'I' for Inactive)
REMARK                            x       y       z     vdW  Elec       q    Type
REMARK                         _______ _______ _______ _____ _____    ______ ____
ROOT
ATOM      1  C   UNL     1       6.881   3.963  12.261  0.00  0.00    +0.000 A 
ATOM      2  C   UNL     1       5.871   3.652  13.135  0.00  0.00    +0.000 A 
ATOM      3  N   UNL     1       5.754   4.212  14.347  0.00  0.00    +0.000 NA
ATOM      4  C   UNL     1       6.675   5.115  14.715  0.00  0.00    +0.000 A 
ATOM      5  N   UNL     1       6.639   5.715  15.957  0.00  0.00    +0.000 N 
ATOM      6  C   UNL     1       6.022   5.284  17.076  0.00  0.00    +0.000 C 
ATOM      7  N   UNL     1       6.298   5.764  18.251  0.00  0.00    +0.000 NA
ATOM      8  C   UNL     1       5.533   4.900  19.145  0.00  0.00    +0.000 C 
ATOM      9  C   UNL     1       4.460   4.252  18.272  0.00  0.00    +0.000 C 
ATOM     10  C   UNL     1       3.119   5.039  18.262  0.00  0.00    +0.000 C 
ATOM     11  N   UNL     1       1.984   4.226  18.789  0.00  0.00    +0.000 NA
ATOM     12  C   UNL     1       1.807   3.044  17.916  0.00  0.00    +0.000 C 
ATOM     13  C   UNL     1       3.045   2.139  17.935  0.00  0.00    +0.000 C 
ATOM     14  C   UNL     1       4.165   2.808  18.754  0.00  0.00    +0.000 C 
ATOM     15  C   UNL     1       3.605   2.920  20.188  0.00  0.00    +0.000 C 
ATOM     16  C   UNL     1       2.316   3.764  20.156  0.00  0.00    +0.000 C 
ATOM     17  O   UNL     1       5.078   4.297  16.988  0.00  0.00    +0.000 OA
ATOM     18  N   UNL     1       7.693   5.490  13.914  0.00  0.00    +0.000 NA
ATOM     19  C   UNL     1       7.776   4.898  12.706  0.00  0.00    +0.000 A 
ATOM     20  H   UNL     1       7.433   6.319  16.094  0.00  0.00    +0.000 HD
ENDROOT
TORSDOF 0
ENDMDL
MODEL 2
REMARK VINA RESULT:      -7.1      1.115      1.168
REMARK  Name = 
REMARK  0 active torsions:
REMARK  status: ('A' for Active; 'I' for Inactive)
REMARK                            x       y       z     vdW  Elec       q    Type
REMARK                         _______ _______ _______ _____ _____    ______ ____
ROOT
ATOM      1  C   UNL     1       6.464   4.012  13.275  0.00  0.00    +0.000 A 
ATOM      2  C   UNL     1       5.394   3.686  14.068  0.00  0.00    +0.000 A 
ATOM      3  N   UNL     1       5.226   4.172  15.306  0.00  0.00    +0.000 NA
ATOM      4  C   UNL     1       6.155   5.013  15.783  0.00  0.00    +0.000 A 
ATOM      5  N   UNL     1       6.067   5.535  17.058  0.00  0.00    +0.000 N 
ATOM      6  C   UNL     1       5.371   5.058  18.110  0.00  0.00    +0.000 C 
ATOM      7  N   UNL     1       5.594   5.451  19.328  0.00  0.00    +0.000 NA
ATOM      8  C   UNL     1       4.748   4.564  20.119  0.00  0.00    +0.000 C 
ATOM      9  C   UNL     1       3.706   4.013  19.146  0.00  0.00    +0.000 C 
ATOM     10  C   UNL     1       2.397   4.851  19.112  0.00  0.00    +0.000 C 
ATOM     11  N   UNL     1       1.205   4.050  19.520  0.00  0.00    +0.000 NA
ATOM     12  C   UNL     1       1.038   2.934  18.563  0.00  0.00    +0.000 C 
ATOM     13  C   UNL     1       2.240   1.983  18.592  0.00  0.00    +0.000 C 
ATOM     14  C   UNL     1       3.334   2.554  19.515  0.00  0.00    +0.000 C 
ATOM     15  C   UNL     1       2.694   2.597  20.919  0.00  0.00    +0.000 C 
ATOM     16  C   UNL     1       1.439   3.491  20.870  0.00  0.00    +0.000 C 
ATOM     17  O   UNL     1       4.400   4.116  17.904  0.00  0.00    +0.000 OA
ATOM     18  N   UNL     1       7.231   5.399  15.067  0.00  0.00    +0.000 NA
ATOM     19  C   UNL     1       7.363   4.881  13.830  0.00  0.00    +0.000 A 
ATOM     20  H   UNL     1       6.873   6.098  17.279  0.00  0.00    +0.000 HD
ENDROOT
TORSDOF 0
ENDMDL
MODEL 3
REMARK VINA RESULT:      -7.0      4.079      6.893
REMARK  Name = 
REMARK  0 active torsions:
REMARK  status: ('A' for Active; 'I' for Inactive)
REMARK                            x       y       z     vdW  Elec       q    Type
REMARK                         _______ _______ _______ _____ _____    ______ ____
ROOT
ATOM      1  C   UNL     1      -0.312  10.009  21.969  0.00  0.00    +0.000 A 
ATOM      2  C   UNL     1       0.041   8.688  22.068  0.00  0.00    +0.000 A 
ATOM      3  N   UNL     1       0.854   8.079  21.193  0.00  0.00    +0.000 NA
ATOM      4  C   UNL     1       1.337   8.805  20.174  0.00  0.00    +0.000 A 
ATOM      5  N   UNL     1       2.158   8.244  19.216  0.00  0.00    +0.000 N 
ATOM      6  C   UNL     1       2.293   6.943  18.890  0.00  0.00    +0.000 C 
ATOM      7  N   UNL     1       2.861   6.557  17.787  0.00  0.00    +0.000 NA
ATOM      8  C   UNL     1       2.629   5.116  17.786  0.00  0.00    +0.000 C 
ATOM      9  C   UNL     1       2.320   4.748  19.236  0.00  0.00    +0.000 C 
ATOM     10  C   UNL     1       3.579   4.311  20.039  0.00  0.00    +0.000 C 
ATOM     11  N   UNL     1       3.466   2.913  20.546  0.00  0.00    +0.000 NA
ATOM     12  C   UNL     1       2.309   2.837  21.466  0.00  0.00    +0.000 C 
ATOM     13  C   UNL     1       0.994   3.152  20.743  0.00  0.00    +0.000 C 
ATOM     14  C   UNL     1       1.288   3.593  19.297  0.00  0.00    +0.000 C 
ATOM     15  C   UNL     1       1.946   2.368  18.627  0.00  0.00    +0.000 C 
ATOM     16  C   UNL     1       3.227   2.003  19.403  0.00  0.00    +0.000 C 
ATOM     17  O   UNL     1       1.809   5.982  19.736  0.00  0.00    +0.000 OA
ATOM     18  N   UNL     1       1.054  10.113  20.007  0.00  0.00    +0.000 NA
ATOM     19  C   UNL     1       0.228  10.683  20.907  0.00  0.00    +0.000 A 
ATOM     20  H   UNL     1       2.381   8.907  18.492  0.00  0.00    +0.000 HD
ENDROOT
TORSDOF 0
ENDMDL
MODEL 4
REMARK VINA RESULT:      -6.7      3.136      5.457
REMARK  Name = 
REMARK  0 active torsions:
REMARK  status: ('A' for Active; 'I' for Inactive)
REMARK                            x       y       z     vdW  Elec       q    Type
REMARK                         _______ _______ _______ _____ _____    ______ ____
ROOT
ATOM      1  C   UNL     1       0.791  10.079  19.355  0.00  0.00    +0.000 A 
ATOM      2  C   UNL     1       0.998   8.795  19.789  0.00  0.00    +0.000 A 
ATOM      3  N   UNL     1       1.901   7.973  19.237  0.00  0.00    +0.000 NA
ATOM      4  C   UNL     1       2.629   8.436  18.210  0.00  0.00    +0.000 A 
ATOM      5  N   UNL     1       3.560   7.642  17.571  0.00  0.00    +0.000 N 
ATOM      6  C   UNL     1       3.635   6.296  17.549  0.00  0.00    +0.000 C 
ATOM      7  N   UNL     1       4.361   5.653  16.684  0.00  0.00    +0.000 NA
ATOM      8  C   UNL     1       4.004   4.259  16.928  0.00  0.00    +0.000 C 
ATOM      9  C   UNL     1       3.398   4.229  18.330  0.00  0.00    +0.000 C 
ATOM     10  C   UNL     1       4.440   3.915  19.441  0.00  0.00    +0.000 C 
ATOM     11  N   UNL     1       4.108   2.666  20.188  0.00  0.00    +0.000 NA
ATOM     12  C   UNL     1       2.798   2.848  20.852  0.00  0.00    +0.000 C 
ATOM     13  C   UNL     1       1.674   3.063  19.830  0.00  0.00    +0.000 C 
ATOM     14  C   UNL     1       2.272   3.167  18.414  0.00  0.00    +0.000 C 
ATOM     15  C   UNL     1       2.930   1.795  18.153  0.00  0.00    +0.000 C 
ATOM     16  C   UNL     1       4.005   1.544  19.228  0.00  0.00    +0.000 C 
ATOM     17  O   UNL     1       2.916   5.565  18.457  0.00  0.00    +0.000 OA
ATOM     18  N   UNL     1       2.502   9.689  17.729  0.00  0.00    +0.000 NA
ATOM     19  C   UNL     1       1.578  10.480  18.309  0.00  0.00    +0.000 A 
ATOM     20  H   UNL     1       3.973   8.121  16.788  0.00  0.00    +0.000 HD
ENDROOT
TORSDOF 0
ENDMDL
MODEL 5
REMARK VINA RESULT:      -6.7      2.915      6.472
REMARK  Name = 
REMARK  0 active torsions:
REMARK  status: ('A' for Active; 'I' for Inactive)
REMARK                            x       y       z     vdW  Elec       q    Type
REMARK                         _______ _______ _______ _____ _____    ______ ____
ROOT
ATOM      1  C   UNL     1       0.768   9.758  20.047  0.00  0.00    +0.000 A 
ATOM      2  C   UNL     1       1.573   9.252  19.059  0.00  0.00    +0.000 A 
ATOM      3  N   UNL     1       2.091   8.017  19.097  0.00  0.00    +0.000 NA
ATOM      4  C   UNL     1       1.805   7.247  20.157  0.00  0.00    +0.000 A 
ATOM      5  N   UNL     1       2.322   5.974  20.283  0.00  0.00    +0.000 N 
ATOM      6  C   UNL     1       3.410   5.450  19.681  0.00  0.00    +0.000 C 
ATOM      7  N   UNL     1       3.973   4.355  20.094  0.00  0.00    +0.000 NA
ATOM      8  C   UNL     1       5.176   4.275  19.271  0.00  0.00    +0.000 C 
ATOM      9  C   UNL     1       4.910   5.176  18.066  0.00  0.00    +0.000 C 
ATOM     10  C   UNL     1       4.309   4.412  16.851  0.00  0.00    +0.000 C 
ATOM     11  N   UNL     1       5.187   4.488  15.647  0.00  0.00    +0.000 NA
ATOM     12  C   UNL     1       5.322   5.907  15.251  0.00  0.00    +0.000 C 
ATOM     13  C   UNL     1       6.004   6.735  16.348  0.00  0.00    +0.000 C 
ATOM     14  C   UNL     1       6.219   5.864  17.600  0.00  0.00    +0.000 C 
ATOM     15  C   UNL     1       7.179   4.742  17.149  0.00  0.00    +0.000 C 
ATOM     16  C   UNL     1       6.526   3.959  15.993  0.00  0.00    +0.000 C 
ATOM     17  O   UNL     1       3.958   6.091  18.604  0.00  0.00    +0.000 OA
ATOM     18  N   UNL     1       1.011   7.658  21.167  0.00  0.00    +0.000 NA
ATOM     19  C   UNL     1       0.516   8.909  21.090  0.00  0.00    +0.000 A 
ATOM     20  H   UNL     1       2.059   5.557  21.161  0.00  0.00    +0.000 HD
ENDROOT
TORSDOF 0
ENDMDL
MODEL 6
REMARK VINA RESULT:      -6.6      1.301      1.460
REMARK  Name = 
REMARK  0 active torsions:
REMARK  status: ('A' for Active; 'I' for Inactive)
REMARK                            x       y       z     vdW  Elec       q    Type
REMARK                         _______ _______ _______ _____ _____    ______ ____
ROOT
ATOM      1  C   UNL     1       5.624   3.085  11.339  0.00  0.00    +0.000 A 
ATOM      2  C   UNL     1       4.794   3.310  12.407  0.00  0.00    +0.000 A 
ATOM      3  N   UNL     1       5.209   3.870  13.552  0.00  0.00    +0.000 NA
ATOM      4  C   UNL     1       6.500   4.219  13.650  0.00  0.00    +0.000 A 
ATOM      5  N   UNL     1       7.010   4.775  14.806  0.00  0.00    +0.000 N 
ATOM      6  C   UNL     1       6.511   4.707  16.056  0.00  0.00    +0.000 C 
ATOM      7  N   UNL     1       7.217   5.006  17.105  0.00  0.00    +0.000 NA
ATOM      8  C   UNL     1       6.341   4.629  18.209  0.00  0.00    +0.000 C 
ATOM      9  C   UNL     1       4.934   4.569  17.616  0.00  0.00    +0.000 C 
ATOM     10  C   UNL     1       4.152   5.907  17.758  0.00  0.00    +0.000 C 
ATOM     11  N   UNL     1       2.906   5.748  18.562  0.00  0.00    +0.000 NA
ATOM     12  C   UNL     1       2.016   4.790  17.869  0.00  0.00    +0.000 C 
ATOM     13  C   UNL     1       2.656   3.400  17.768  0.00  0.00    +0.000 C 
ATOM     14  C   UNL     1       4.102   3.453  18.297  0.00  0.00    +0.000 C 
ATOM     15  C   UNL     1       3.971   3.836  19.786  0.00  0.00    +0.000 C 
ATOM     16  C   UNL     1       3.256   5.198  19.891  0.00  0.00    +0.000 C 
ATOM     17  O   UNL     1       5.218   4.298  16.245  0.00  0.00    +0.000 OA
ATOM     18  N   UNL     1       7.383   4.048  12.645  0.00  0.00    +0.000 NA
ATOM     19  C   UNL     1       6.924   3.477  11.514  0.00  0.00    +0.000 A 
ATOM     20  H   UNL     1       8.003   4.922  14.733  0.00  0.00    +0.000 HD
ENDROOT
TORSDOF 0
ENDMDL
MODEL 7
REMARK VINA RESULT:      -6.0      2.039      3.571
REMARK  Name = 
REMARK  0 active torsions:
REMARK  status: ('A' for Active; 'I' for Inactive)
REMARK                            x       y       z     vdW  Elec       q    Type
REMARK                         _______ _______ _______ _____ _____    ______ ____
ROOT
ATOM      1  C   UNL     1       7.243   6.735  16.415  0.00  0.00    +0.000 A 
ATOM      2  C   UNL     1       6.446   6.513  17.509  0.00  0.00    +0.000 A 
ATOM      3  N   UNL     1       5.780   5.367  17.708  0.00  0.00    +0.000 NA
ATOM      4  C   UNL     1       5.903   4.400  16.787  0.00  0.00    +0.000 A 
ATOM      5  N   UNL     1       5.227   3.202  16.907  0.00  0.00    +0.000 N 
ATOM      6  C   UNL     1       4.124   2.933  17.634  0.00  0.00    +0.000 C 
ATOM      7  N   UNL     1       3.406   1.868  17.443  0.00  0.00    +0.000 NA
ATOM      8  C   UNL     1       2.257   2.086  18.315  0.00  0.00    +0.000 C 
ATOM      9  C   UNL     1       2.706   3.133  19.334  0.00  0.00    +0.000 C 
ATOM     10  C   UNL     1       3.285   2.512  20.637  0.00  0.00    +0.000 C 
ATOM     11  N   UNL     1       2.500   2.903  21.844  0.00  0.00    +0.000 NA
ATOM     12  C   UNL     1       2.564   4.373  21.992  0.00  0.00    +0.000 C 
ATOM     13  C   UNL     1       1.921   5.088  20.796  0.00  0.00    +0.000 C 
ATOM     14  C   UNL     1       1.523   4.054  19.726  0.00  0.00    +0.000 C 
ATOM     15  C   UNL     1       0.464   3.159  20.403  0.00  0.00    +0.000 C 
ATOM     16  C   UNL     1       1.088   2.503  21.651  0.00  0.00    +0.000 C 
ATOM     17  O   UNL     1       3.727   3.813  18.605  0.00  0.00    +0.000 OA
ATOM     18  N   UNL     1       6.676   4.527  15.690  0.00  0.00    +0.000 NA
ATOM     19  C   UNL     1       7.323   5.698  15.526  0.00  0.00    +0.000 A 
ATOM     20  H   UNL     1       5.382   2.613  16.104  0.00  0.00    +0.000 HD
ENDROOT
TORSDOF 0
ENDMDL
MODEL 8
REMARK VINA RESULT:      -5.9      3.145      3.833
REMARK  Name = 
REMARK  0 active torsions:
REMARK  status: ('A' for Active; 'I' for Inactive)
REMARK                            x       y       z     vdW  Elec       q    Type
REMARK                         _______ _______ _______ _____ _____    ______ ____
ROOT
ATOM      1  C   UNL     1       8.471   7.173  18.488  0.00  0.00    +0.000 A 
ATOM      2  C   UNL     1       7.688   6.074  18.730  0.00  0.00    +0.000 A 
ATOM      3  N   UNL     1       6.414   5.979  18.324  0.00  0.00    +0.000 NA
ATOM      4  C   UNL     1       5.889   7.014  17.653  0.00  0.00    +0.000 A 
ATOM      5  N   UNL     1       4.577   7.004  17.225  0.00  0.00    +0.000 N 
ATOM      6  C   UNL     1       3.553   6.257  17.686  0.00  0.00    +0.000 C 
ATOM      7  N   UNL     1       2.313   6.537  17.422  0.00  0.00    +0.000 NA
ATOM      8  C   UNL     1       1.578   5.585  18.249  0.00  0.00    +0.000 C 
ATOM      9  C   UNL     1       2.573   4.474  18.579  0.00  0.00    +0.000 C 
ATOM     10  C   UNL     1       2.522   3.287  17.575  0.00  0.00    +0.000 C 
ATOM     11  N   UNL     1       2.158   2.002  18.240  0.00  0.00    +0.000 NA
ATOM     12  C   UNL     1       3.195   1.682  19.246  0.00  0.00    +0.000 C 
ATOM     13  C   UNL     1       3.257   2.747  20.348  0.00  0.00    +0.000 C 
ATOM     14  C   UNL     1       2.311   3.912  20.000  0.00  0.00    +0.000 C 
ATOM     15  C   UNL     1       0.898   3.291  19.982  0.00  0.00    +0.000 C 
ATOM     16  C   UNL     1       0.858   2.167  18.929  0.00  0.00    +0.000 C 
ATOM     17  O   UNL     1       3.815   5.168  18.473  0.00  0.00    +0.000 OA
ATOM     18  N   UNL     1       6.591   8.128  17.358  0.00  0.00    +0.000 NA
ATOM     19  C   UNL     1       7.866   8.183  17.791  0.00  0.00    +0.000 A 
ATOM     20  H   UNL     1       4.326   7.879  16.793  0.00  0.00    +0.000 HD
ENDROOT
TORSDOF 0
ENDMDL
MODEL 9
REMARK VINA RESULT:      -5.9      9.951     11.959
REMARK  Name = 
REMARK  0 active torsions:
REMARK  status: ('A' for Active; 'I' for Inactive)
REMARK                            x       y       z     vdW  Elec       q    Type
REMARK                         _______ _______ _______ _____ _____    ______ ____
ROOT
ATOM      1  C   UNL     1       4.007  15.935  19.373  0.00  0.00    +0.000 A 
ATOM      2  C   UNL     1       4.913  14.929  19.591  0.00  0.00    +0.000 A 
ATOM      3  N   UNL     1       6.235  15.086  19.428  0.00  0.00    +0.000 NA
ATOM      4  C   UNL     1       6.681  16.285  19.028  0.00  0.00    +0.000 A 
ATOM      5  N   UNL     1       8.024  16.518  18.811  0.00  0.00    +0.000 N 
ATOM      6  C   UNL     1       8.999  15.619  18.567  0.00  0.00    +0.000 C 
ATOM      7  N   UNL     1      10.156  15.961  18.086  0.00  0.00    +0.000 NA
ATOM      8  C   UNL     1      10.800  14.675  17.836  0.00  0.00    +0.000 C 
ATOM      9  C   UNL     1      10.046  13.663  18.697  0.00  0.00    +0.000 C 
ATOM     10  C   UNL     1      10.688  13.451  20.098  0.00  0.00    +0.000 C 
ATOM     11  N   UNL     1      11.121  12.039  20.311  0.00  0.00    +0.000 NA
ATOM     12  C   UNL     1       9.929  11.165  20.237  0.00  0.00    +0.000 C 
ATOM     13  C   UNL     1       9.275  11.222  18.851  0.00  0.00    +0.000 C 
ATOM     14  C   UNL     1       9.977  12.287  17.988  0.00  0.00    +0.000 C 
ATOM     15  C   UNL     1      11.430  11.789  17.836  0.00  0.00    +0.000 C 
ATOM     16  C   UNL     1      12.062  11.656  19.235  0.00  0.00    +0.000 C 
ATOM     17  O   UNL     1       8.772  14.293  18.820  0.00  0.00    +0.000 OA
ATOM     18  N   UNL     1       5.863  17.334  18.804  0.00  0.00    +0.000 NA
ATOM     19  C   UNL     1       4.541  17.130  18.975  0.00  0.00    +0.000 A 
ATOM     20  H   UNL     1       8.181  17.448  18.457  0.00  0.00    +0.000 HD
ENDROOT
TORSDOF 0
ENDMDL
