MODEL 1
REMARK VINA RESULT:      -8.3      0.000      0.000
REMARK  Name = 
REMARK  7 active torsions:
REMARK  status: ('A' for Active; 'I' for Inactive)
REMARK    1  A    between atoms: C_1  and  C_2
REMARK    2  A    between atoms: C_2  and  C_3
REMARK    3  A    between atoms: C_2  and  C_4
REMARK    4  A    between atoms: N_6  and  C_7
REMARK    5  A    between atoms: C_20  and  O_21
REMARK    6  A    between atoms: O_21  and  C_22
REMARK    7  A    between atoms: C_22  and  C_23
REMARK                            x       y       z     vdW  Elec       q    Type
REMARK                         _______ _______ _______ _____ _____    ______ ____
ROOT
ATOM      1  C   UNL     1       4.205   5.141  16.737  0.00  0.00    +0.000 C 
ATOM      2  C   UNL     1       5.140   4.892  15.600  0.00  0.00    +0.000 A 
ATOM      3  C   UNL     1       4.797   4.373  14.356  0.00  0.00    +0.000 A 
ATOM      4  C   UNL     1       5.816   4.051  13.465  0.00  0.00    +0.000 A 
ATOM      5  C   UNL     1       7.154   4.226  13.835  0.00  0.00    +0.000 A 
ATOM      6  C   UNL     1       7.480   4.807  15.063  0.00  0.00    +0.000 A 
ATOM      7  C   UNL     1       6.458   5.187  15.928  0.00  0.00    +0.000 A 
ATOM      8  C   UNL     1       6.571   5.947  17.245  0.00  0.00    +0.000 C 
ATOM      9  C   UNL     1       7.351   5.090  18.270  0.00  0.00    +0.000 C 
ATOM     10  C   UNL     1       7.766   5.911  19.490  0.00  0.00    +0.000 C 
ATOM     11  N   UNL     1       8.648   7.004  19.096  0.00  0.00    +0.000 NA
ATOM     12  C   UNL     1       7.948   7.939  18.216  0.00  0.00    +0.000 C 
ATOM     13  C   UNL     1       7.329   7.276  16.985  0.00  0.00    +0.000 C 
ATOM     14  C   UNL     1       5.039   6.083  17.685  0.00  0.00    +0.000 C 
ATOM     15  H   UNL     1       9.468   6.627  18.620  0.00  0.00    +0.000 HD
ENDROOT
BRANCH   1  18
ATOM     16  C   UNL     1       2.487   3.520  17.526  0.00  0.00    +0.000 C 
ATOM     17  O   UNL     1       1.552   4.297  17.356  0.00  0.00    +0.000 OA
ATOM     18  N   UNL     1       3.800   3.868  17.330  0.00  0.00    +0.000 N 
ATOM     19  H   UNL     1       4.484   3.123  17.297  0.00  0.00    +0.000 HD
BRANCH  16  21
ATOM     20  C   UNL     1       3.506   1.442  18.552  0.00  0.00    +0.000 C 
ATOM     21  C   UNL     1       2.239   2.094  18.007  0.00  0.00    +0.000 C 
ATOM     22  C   UNL     1       1.107   2.050  19.026  0.00  0.00    +0.000 C 
ENDBRANCH  16  21
ENDBRANCH   1  18
BRANCH  14  23
ATOM     23  O   UNL     1       4.503   7.433  17.622  0.00  0.00    +0.000 OA
BRANCH  23  24
ATOM     24  C   UNL     1       3.091   7.393  17.313  0.00  0.00    +0.000 C 
BRANCH  24  25
ATOM     25  C   UNL     1       2.206   8.091  18.299  0.00  0.00    +0.000 A 
ATOM     26  C   UNL     1       1.556   9.285  18.012  0.00  0.00    +0.000 A 
ATOM     27  C   UNL     1       0.866   9.945  19.029  0.00  0.00    +0.000 A 
ATOM     28  C   UNL     1       0.859   9.384  20.300  0.00  0.00    +0.000 A 
ATOM     29  N   UNL     1       1.466   8.222  20.613  0.00  0.00    +0.000 NA
ATOM     30  C   UNL     1       2.124   7.610  19.604  0.00  0.00    +0.000 A 
ENDBRANCH  24  25
ENDBRANCH  23  24
ENDBRANCH  14  23
TORSDOF 5
ENDMDL
MODEL 2
REMARK VINA RESULT:      -7.5      0.944      1.372
REMARK  Name = 
REMARK  7 active torsions:
REMARK  status: ('A' for Active; 'I' for Inactive)
REMARK    1  A    between atoms: C_1  and  C_2
REMARK    2  A    between atoms: C_2  and  C_3
REMARK    3  A    between atoms: C_2  and  C_4
REMARK    4  A    between atoms: N_6  and  C_7
REMARK    5  A    between atoms: C_20  and  O_21
REMARK    6  A    between atoms: O_21  and  C_22
REMARK    7  A    between atoms: C_22  and  C_23
REMARK                            x       y       z     vdW  Elec       q    Type
REMARK                         _______ _______ _______ _____ _____    ______ ____
ROOT
ATOM      1  C   UNL     1       4.243   5.033  16.857  0.00  0.00    +0.000 C 
ATOM      2  C   UNL     1       5.147   4.824  15.688  0.00  0.00    +0.000 A 
ATOM      3  C   UNL     1       4.790   4.263  14.466  0.00  0.00    +0.000 A 
ATOM      4  C   UNL     1       5.793   3.990  13.541  0.00  0.00    +0.000 A 
ATOM      5  C   UNL     1       7.129   4.255  13.855  0.00  0.00    +0.000 A 
ATOM      6  C   UNL     1       7.465   4.877  15.060  0.00  0.00    +0.000 A 
ATOM      7  C   UNL     1       6.455   5.207  15.959  0.00  0.00    +0.000 A 
ATOM      8  C   UNL     1       6.570   5.996  17.259  0.00  0.00    +0.000 C 
ATOM      9  C   UNL     1       7.441   5.208  18.265  0.00  0.00    +0.000 C 
ATOM     10  C   UNL     1       7.850   6.074  19.455  0.00  0.00    +0.000 C 
ATOM     11  N   UNL     1       8.645   7.214  19.010  0.00  0.00    +0.000 NA
ATOM     12  C   UNL     1       7.854   8.088  18.145  0.00  0.00    +0.000 C 
ATOM     13  C   UNL     1       7.232   7.365  16.949  0.00  0.00    +0.000 C 
ATOM     14  C   UNL     1       5.050   6.043  17.757  0.00  0.00    +0.000 C 
ATOM     15  H   UNL     1       9.468   6.881  18.508  0.00  0.00    +0.000 HD
ENDROOT
BRANCH   1  18
ATOM     16  C   UNL     1       3.671   3.616  18.823  0.00  0.00    +0.000 C 
ATOM     17  O   UNL     1       3.797   4.533  19.629  0.00  0.00    +0.000 OA
ATOM     18  N   UNL     1       3.942   3.748  17.484  0.00  0.00    +0.000 N 
ATOM     19  H   UNL     1       3.625   3.014  16.865  0.00  0.00    +0.000 HD
BRANCH  16  21
ATOM     20  C   UNL     1       1.707   2.136  19.426  0.00  0.00    +0.000 C 
ATOM     21  C   UNL     1       3.224   2.231  19.280  0.00  0.00    +0.000 C 
ATOM     22  C   UNL     1       3.764   1.149  18.355  0.00  0.00    +0.000 C 
ENDBRANCH  16  21
ENDBRANCH   1  18
BRANCH  14  23
ATOM     23  O   UNL     1       4.428   7.355  17.694  0.00  0.00    +0.000 OA
BRANCH  23  24
ATOM     24  C   UNL     1       2.988   7.221  17.670  0.00  0.00    +0.000 C 
BRANCH  24  25
ATOM     25  C   UNL     1       2.257   8.048  18.683  0.00  0.00    +0.000 A 
ATOM     26  C   UNL     1       2.007   7.606  19.976  0.00  0.00    +0.000 A 
ATOM     27  C   UNL     1       1.198   8.373  20.814  0.00  0.00    +0.000 A 
ATOM     28  C   UNL     1       0.662   9.556  20.318  0.00  0.00    +0.000 A 
ATOM     29  N   UNL     1       0.893  10.024  19.076  0.00  0.00    +0.000 NA
ATOM     30  C   UNL     1       1.682   9.255  18.292  0.00  0.00    +0.000 A 
ENDBRANCH  24  25
ENDBRANCH  23  24
ENDBRANCH  14  23
TORSDOF 5
ENDMDL
MODEL 3
REMARK VINA RESULT:      -7.5      1.719      4.480
REMARK  Name = 
REMARK  7 active torsions:
REMARK  status: ('A' for Active; 'I' for Inactive)
REMARK    1  A    between atoms: C_1  and  C_2
REMARK    2  A    between atoms: C_2  and  C_3
REMARK    3  A    between atoms: C_2  and  C_4
REMARK    4  A    between atoms: N_6  and  C_7
REMARK    5  A    between atoms: C_20  and  O_21
REMARK    6  A    between atoms: O_21  and  C_22
REMARK    7  A    between atoms: C_22  and  C_23
REMARK                            x       y       z     vdW  Elec       q    Type
REMARK                         _______ _______ _______ _____ _____    ______ ____
ROOT
ATOM      1  C   UNL     1       4.549   5.495  16.710  0.00  0.00    +0.000 C 
ATOM      2  C   UNL     1       5.670   5.787  17.651  0.00  0.00    +0.000 A 
ATOM      3  C   UNL     1       6.770   6.598  17.388  0.00  0.00    +0.000 A 
ATOM      4  C   UNL     1       7.807   6.634  18.315  0.00  0.00    +0.000 A 
ATOM      5  C   UNL     1       7.744   5.848  19.471  0.00  0.00    +0.000 A 
ATOM      6  C   UNL     1       6.605   5.088  19.750  0.00  0.00    +0.000 A 
ATOM      7  C   UNL     1       5.542   5.102  18.852  0.00  0.00    +0.000 A 
ATOM      8  C   UNL     1       4.166   4.462  19.011  0.00  0.00    +0.000 C 
ATOM      9  C   UNL     1       4.316   2.924  19.073  0.00  0.00    +0.000 C 
ATOM     10  C   UNL     1       3.027   2.251  19.540  0.00  0.00    +0.000 C 
ATOM     11  N   UNL     1       2.675   2.696  20.885  0.00  0.00    +0.000 NA
ATOM     12  C   UNL     1       2.393   4.130  20.896  0.00  0.00    +0.000 C 
ATOM     13  C   UNL     1       3.528   4.982  20.326  0.00  0.00    +0.000 C 
ATOM     14  C   UNL     1       3.439   4.896  17.653  0.00  0.00    +0.000 C 
ATOM     15  H   UNL     1       3.442   2.488  21.525  0.00  0.00    +0.000 HD
ENDROOT
BRANCH   1  18
ATOM     16  C   UNL     1       5.629   5.047  14.511  0.00  0.00    +0.000 C 
ATOM     17  O   UNL     1       5.714   6.235  14.215  0.00  0.00    +0.000 OA
ATOM     18  N   UNL     1       5.013   4.599  15.654  0.00  0.00    +0.000 N 
ATOM     19  H   UNL     1       5.162   3.634  15.920  0.00  0.00    +0.000 HD
BRANCH  16  21
ATOM     20  C   UNL     1       5.135   3.425  12.631  0.00  0.00    +0.000 C 
ATOM     21  C   UNL     1       6.191   3.970  13.589  0.00  0.00    +0.000 C 
ATOM     22  C   UNL     1       7.416   4.478  12.839  0.00  0.00    +0.000 C 
ENDBRANCH  16  21
ENDBRANCH   1  18
BRANCH  14  23
ATOM     23  O   UNL     1       2.366   5.863  17.818  0.00  0.00    +0.000 OA
BRANCH  23  24
ATOM     24  C   UNL     1       2.895   7.207  17.749  0.00  0.00    +0.000 C 
BRANCH  24  25
ATOM     25  C   UNL     1       2.076   8.248  18.447  0.00  0.00    +0.000 A 
ATOM     26  C   UNL     1       1.731   9.456  17.855  0.00  0.00    +0.000 A 
ATOM     27  C   UNL     1       1.089  10.431  18.619  0.00  0.00    +0.000 A 
ATOM     28  C   UNL     1       0.821  10.157  19.955  0.00  0.00    +0.000 A 
ATOM     29  N   UNL     1       1.128   8.993  20.561  0.00  0.00    +0.000 NA
ATOM     30  C   UNL     1       1.749   8.072  19.790  0.00  0.00    +0.000 A 
ENDBRANCH  24  25
ENDBRANCH  23  24
ENDBRANCH  14  23
TORSDOF 5
ENDMDL
MODEL 4
REMARK VINA RESULT:      -7.1      1.958      6.767
REMARK  Name = 
REMARK  7 active torsions:
REMARK  status: ('A' for Active; 'I' for Inactive)
REMARK    1  A    between atoms: C_1  and  C_2
REMARK    2  A    between atoms: C_2  and  C_3
REMARK    3  A    between atoms: C_2  and  C_4
REMARK    4  A    between atoms: N_6  and  C_7
REMARK    5  A    between atoms: C_20  and  O_21
REMARK    6  A    between atoms: O_21  and  C_22
REMARK    7  A    between atoms: C_22  and  C_23
REMARK                            x       y       z     vdW  Elec       q    Type
REMARK                         _______ _______ _______ _____ _____    ______ ____
ROOT
ATOM      1  C   UNL     1       4.905   6.110  17.052  0.00  0.00    +0.000 C 
ATOM      2  C   UNL     1       3.723   6.860  17.572  0.00  0.00    +0.000 A 
ATOM      3  C   UNL     1       3.463   8.213  17.383  0.00  0.00    +0.000 A 
ATOM      4  C   UNL     1       2.401   8.790  18.073  0.00  0.00    +0.000 A 
ATOM      5  C   UNL     1       1.635   8.020  18.954  0.00  0.00    +0.000 A 
ATOM      6  C   UNL     1       1.869   6.648  19.084  0.00  0.00    +0.000 A 
ATOM      7  C   UNL     1       2.892   6.060  18.346  0.00  0.00    +0.000 A 
ATOM      8  C   UNL     1       3.240   4.580  18.230  0.00  0.00    +0.000 C 
ATOM      9  C   UNL     1       3.698   4.048  19.609  0.00  0.00    +0.000 C 
ATOM     10  C   UNL     1       3.759   2.522  19.632  0.00  0.00    +0.000 C 
ATOM     11  N   UNL     1       2.439   1.953  19.378  0.00  0.00    +0.000 NA
ATOM     12  C   UNL     1       1.976   2.305  18.037  0.00  0.00    +0.000 C 
ATOM     13  C   UNL     1       1.976   3.809  17.764  0.00  0.00    +0.000 C 
ATOM     14  C   UNL     1       4.469   4.605  17.207  0.00  0.00    +0.000 C 
ATOM     15  H   UNL     1       1.779   2.298  20.075  0.00  0.00    +0.000 HD
ENDROOT
BRANCH   1  18
ATOM     16  C   UNL     1       7.018   5.577  18.256  0.00  0.00    +0.000 C 
ATOM     17  O   UNL     1       6.847   4.363  18.195  0.00  0.00    +0.000 OA
ATOM     18  N   UNL     1       6.099   6.490  17.803  0.00  0.00    +0.000 N 
ATOM     19  H   UNL     1       6.399   7.452  17.707  0.00  0.00    +0.000 HD
BRANCH  16  21
ATOM     20  C   UNL     1       8.356   7.674  18.732  0.00  0.00    +0.000 C 
ATOM     21  C   UNL     1       8.282   6.156  18.882  0.00  0.00    +0.000 C 
ATOM     22  C   UNL     1       8.413   5.734  20.340  0.00  0.00    +0.000 C 
ENDBRANCH  16  21
ENDBRANCH   1  18
BRANCH  14  23
ATOM     23  O   UNL     1       4.184   4.044  15.896  0.00  0.00    +0.000 OA
BRANCH  23  24
ATOM     24  C   UNL     1       5.326   3.300  15.415  0.00  0.00    +0.000 C 
BRANCH  24  25
ATOM     25  C   UNL     1       6.095   3.962  14.314  0.00  0.00    +0.000 A 
ATOM     26  C   UNL     1       6.012   3.554  12.988  0.00  0.00    +0.000 A 
ATOM     27  C   UNL     1       6.866   4.125  12.044  0.00  0.00    +0.000 A 
ATOM     28  C   UNL     1       7.778   5.084  12.469  0.00  0.00    +0.000 A 
ATOM     29  N   UNL     1       7.879   5.515  13.742  0.00  0.00    +0.000 NA
ATOM     30  C   UNL     1       7.037   4.940  14.628  0.00  0.00    +0.000 A 
ENDBRANCH  24  25
ENDBRANCH  23  24
ENDBRANCH  14  23
TORSDOF 5
ENDMDL
MODEL 5
REMARK VINA RESULT:      -7.0      2.035      7.004
REMARK  Name = 
REMARK  7 active torsions:
REMARK  status: ('A' for Active; 'I' for Inactive)
REMARK    1  A    between atoms: C_1  and  C_2
REMARK    2  A    between atoms: C_2  and  C_3
REMARK    3  A    between atoms: C_2  and  C_4
REMARK    4  A    between atoms: N_6  and  C_7
REMARK    5  A    between atoms: C_20  and  O_21
REMARK    6  A    between atoms: O_21  and  C_22
REMARK    7  A    between atoms: C_22  and  C_23
REMARK                            x       y       z     vdW  Elec       q    Type
REMARK                         _______ _______ _______ _____ _____    ______ ____
ROOT
ATOM      1  C   UNL     1       4.879   6.506  17.053  0.00  0.00    +0.000 C 
ATOM      2  C   UNL     1       3.628   7.062  17.650  0.00  0.00    +0.000 A 
ATOM      3  C   UNL     1       3.155   8.361  17.498  0.00  0.00    +0.000 A 
ATOM      4  C   UNL     1       2.059   8.763  18.255  0.00  0.00    +0.000 A 
ATOM      5  C   UNL     1       1.471   7.878  19.164  0.00  0.00    +0.000 A 
ATOM      6  C   UNL     1       1.918   6.558  19.259  0.00  0.00    +0.000 A 
ATOM      7  C   UNL     1       2.974   6.139  18.456  0.00  0.00    +0.000 A 
ATOM      8  C   UNL     1       3.537   4.730  18.297  0.00  0.00    +0.000 C 
ATOM      9  C   UNL     1       4.149   4.264  19.639  0.00  0.00    +0.000 C 
ATOM     10  C   UNL     1       4.443   2.765  19.634  0.00  0.00    +0.000 C 
ATOM     11  N   UNL     1       3.213   2.003  19.445  0.00  0.00    +0.000 NA
ATOM     12  C   UNL     1       2.625   2.290  18.137  0.00  0.00    +0.000 C 
ATOM     13  C   UNL     1       2.380   3.779  17.889  0.00  0.00    +0.000 C 
ATOM     14  C   UNL     1       4.687   4.950  17.207  0.00  0.00    +0.000 C 
ATOM     15  H   UNL     1       2.548   2.238  20.183  0.00  0.00    +0.000 HD
ENDROOT
BRANCH   1  18
ATOM     16  C   UNL     1       7.300   7.073  17.193  0.00  0.00    +0.000 C 
ATOM     17  O   UNL     1       7.582   6.500  16.144  0.00  0.00    +0.000 OA
ATOM     18  N   UNL     1       6.042   7.058  17.743  0.00  0.00    +0.000 N 
ATOM     19  H   UNL     1       5.848   7.712  18.490  0.00  0.00    +0.000 HD
BRANCH  16  21
ATOM     20  C   UNL     1       8.099   9.331  18.014  0.00  0.00    +0.000 C 
ATOM     21  C   UNL     1       8.365   7.828  17.981  0.00  0.00    +0.000 C 
ATOM     22  C   UNL     1       8.513   7.257  19.385  0.00  0.00    +0.000 C 
ENDBRANCH  16  21
ENDBRANCH   1  18
BRANCH  14  23
ATOM     23  O   UNL     1       4.416   4.362  15.906  0.00  0.00    +0.000 OA
BRANCH  23  24
ATOM     24  C   UNL     1       5.552   3.583  15.467  0.00  0.00    +0.000 C 
BRANCH  24  25
ATOM     25  C   UNL     1       6.097   3.958  14.124  0.00  0.00    +0.000 A 
ATOM     26  C   UNL     1       5.741   3.295  12.955  0.00  0.00    +0.000 A 
ATOM     27  C   UNL     1       6.399   3.608  11.766  0.00  0.00    +0.000 A 
ATOM     28  C   UNL     1       7.398   4.575  11.795  0.00  0.00    +0.000 A 
ATOM     29  N   UNL     1       7.761   5.248  12.904  0.00  0.00    +0.000 NA
ATOM     30  C   UNL     1       7.102   4.919  14.037  0.00  0.00    +0.000 A 
ENDBRANCH  24  25
ENDBRANCH  23  24
ENDBRANCH  14  23
TORSDOF 5
ENDMDL
MODEL 6
REMARK VINA RESULT:      -7.0      1.825      5.963
REMARK  Name = 
REMARK  7 active torsions:
REMARK  status: ('A' for Active; 'I' for Inactive)
REMARK    1  A    between atoms: C_1  and  C_2
REMARK    2  A    between atoms: C_2  and  C_3
REMARK    3  A    between atoms: C_2  and  C_4
REMARK    4  A    between atoms: N_6  and  C_7
REMARK    5  A    between atoms: C_20  and  O_21
REMARK    6  A    between atoms: O_21  and  C_22
REMARK    7  A    between atoms: C_22  and  C_23
REMARK                            x       y       z     vdW  Elec       q    Type
REMARK                         _______ _______ _______ _____ _____    ______ ____
ROOT
ATOM      1  C   UNL     1       3.172   6.206  17.639  0.00  0.00    +0.000 C 
ATOM      2  C   UNL     1       2.879   4.799  18.041  0.00  0.00    +0.000 A 
ATOM      3  C   UNL     1       1.633   4.181  18.012  0.00  0.00    +0.000 A 
ATOM      4  C   UNL     1       1.503   2.915  18.575  0.00  0.00    +0.000 A 
ATOM      5  C   UNL     1       2.605   2.299  19.179  0.00  0.00    +0.000 A 
ATOM      6  C   UNL     1       3.863   2.906  19.145  0.00  0.00    +0.000 A 
ATOM      7  C   UNL     1       4.004   4.144  18.525  0.00  0.00    +0.000 A 
ATOM      8  C   UNL     1       5.288   4.923  18.257  0.00  0.00    +0.000 C 
ATOM      9  C   UNL     1       5.935   5.331  19.602  0.00  0.00    +0.000 C 
ATOM     10  C   UNL     1       7.364   5.833  19.409  0.00  0.00    +0.000 C 
ATOM     11  N   UNL     1       8.203   4.783  18.840  0.00  0.00    +0.000 NA
ATOM     12  C   UNL     1       7.735   4.419  17.503  0.00  0.00    +0.000 C 
ATOM     13  C   UNL     1       6.261   4.013  17.460  0.00  0.00    +0.000 C 
ATOM     14  C   UNL     1       4.740   6.214  17.488  0.00  0.00    +0.000 C 
ATOM     15  H   UNL     1       8.187   3.965  19.448  0.00  0.00    +0.000 HD
ENDROOT
BRANCH   1  18
ATOM     16  C   UNL     1       2.167   8.376  18.332  0.00  0.00    +0.000 C 
ATOM     17  O   UNL     1       2.279   8.881  17.218  0.00  0.00    +0.000 OA
ATOM     18  N   UNL     1       2.642   7.126  18.642  0.00  0.00    +0.000 N 
ATOM     19  H   UNL     1       2.336   6.709  19.512  0.00  0.00    +0.000 HD
BRANCH  16  21
ATOM     20  C   UNL     1       0.222   9.839  19.030  0.00  0.00    +0.000 C 
ATOM     21  C   UNL     1       1.506   9.142  19.473  0.00  0.00    +0.000 C 
ATOM     22  C   UNL     1       1.262   8.234  20.671  0.00  0.00    +0.000 C 
ENDBRANCH  16  21
ENDBRANCH   1  18
BRANCH  14  23
ATOM     23  O   UNL     1       5.092   6.281  16.079  0.00  0.00    +0.000 OA
BRANCH  23  24
ATOM     24  C   UNL     1       4.838   5.008  15.443  0.00  0.00    +0.000 C 
BRANCH  24  25
ATOM     25  C   UNL     1       5.650   4.741  14.213  0.00  0.00    +0.000 A 
ATOM     26  C   UNL     1       5.306   3.771  13.280  0.00  0.00    +0.000 A 
ATOM     27  C   UNL     1       6.187   3.484  12.238  0.00  0.00    +0.000 A 
ATOM     28  C   UNL     1       7.389   4.180  12.174  0.00  0.00    +0.000 A 
ATOM     29  N   UNL     1       7.752   5.136  13.052  0.00  0.00    +0.000 NA
ATOM     30  C   UNL     1       6.874   5.388  14.048  0.00  0.00    +0.000 A 
ENDBRANCH  24  25
ENDBRANCH  23  24
ENDBRANCH  14  23
TORSDOF 5
ENDMDL
MODEL 7
REMARK VINA RESULT:      -6.9      1.753      4.471
REMARK  Name = 
REMARK  7 active torsions:
REMARK  status: ('A' for Active; 'I' for Inactive)
REMARK    1  A    between atoms: C_1  and  C_2
REMARK    2  A    between atoms: C_2  and  C_3
REMARK    3  A    between atoms: C_2  and  C_4
REMARK    4  A    between atoms: N_6  and  C_7
REMARK    5  A    between atoms: C_20  and  O_21
REMARK    6  A    between atoms: O_21  and  C_22
REMARK    7  A    between atoms: C_22  and  C_23
REMARK                            x       y       z     vdW  Elec       q    Type
REMARK                         _______ _______ _______ _____ _____    ______ ____
ROOT
ATOM      1  C   UNL     1       4.792   6.277  16.496  0.00  0.00    +0.000 C 
ATOM      2  C   UNL     1       5.913   6.409  17.473  0.00  0.00    +0.000 A 
ATOM      3  C   UNL     1       6.960   7.322  17.400  0.00  0.00    +0.000 A 
ATOM      4  C   UNL     1       8.011   7.203  18.304  0.00  0.00    +0.000 A 
ATOM      5  C   UNL     1       8.014   6.167  19.244  0.00  0.00    +0.000 A 
ATOM      6  C   UNL     1       6.926   5.297  19.345  0.00  0.00    +0.000 A 
ATOM      7  C   UNL     1       5.846   5.456  18.481  0.00  0.00    +0.000 A 
ATOM      8  C   UNL     1       4.512   4.717  18.493  0.00  0.00    +0.000 C 
ATOM      9  C   UNL     1       4.749   3.218  18.194  0.00  0.00    +0.000 C 
ATOM     10  C   UNL     1       3.509   2.380  18.498  0.00  0.00    +0.000 C 
ATOM     11  N   UNL     1       3.159   2.477  19.911  0.00  0.00    +0.000 NA
ATOM     12  C   UNL     1       2.796   3.851  20.258  0.00  0.00    +0.000 C 
ATOM     13  C   UNL     1       3.871   4.878  19.897  0.00  0.00    +0.000 C 
ATOM     14  C   UNL     1       3.735   5.411  17.279  0.00  0.00    +0.000 C 
ATOM     15  H   UNL     1       3.949   2.172  20.481  0.00  0.00    +0.000 HD
ENDROOT
BRANCH   1  18
ATOM     16  C   UNL     1       6.269   4.723  15.228  0.00  0.00    +0.000 C 
ATOM     17  O   UNL     1       6.912   4.391  16.219  0.00  0.00    +0.000 OA
ATOM     18  N   UNL     1       5.286   5.681  15.256  0.00  0.00    +0.000 N 
ATOM     19  H   UNL     1       4.674   5.752  14.453  0.00  0.00    +0.000 HD
BRANCH  16  21
ATOM     20  C   UNL     1       5.269   3.787  13.098  0.00  0.00    +0.000 C 
ATOM     21  C   UNL     1       6.551   4.097  13.867  0.00  0.00    +0.000 C 
ATOM     22  C   UNL     1       7.494   4.969  13.049  0.00  0.00    +0.000 C 
ENDBRANCH  16  21
ENDBRANCH   1  18
BRANCH  14  23
ATOM     23  O   UNL     1       2.614   6.248  17.670  0.00  0.00    +0.000 OA
BRANCH  23  24
ATOM     24  C   UNL     1       3.007   7.639  17.666  0.00  0.00    +0.000 C 
BRANCH  24  25
ATOM     25  C   UNL     1       2.182   8.534  18.539  0.00  0.00    +0.000 A 
ATOM     26  C   UNL     1       1.816   8.192  19.834  0.00  0.00    +0.000 A 
ATOM     27  C   UNL     1       0.929   9.013  20.531  0.00  0.00    +0.000 A 
ATOM     28  C   UNL     1       0.437  10.148  19.896  0.00  0.00    +0.000 A 
ATOM     29  N   UNL     1       0.779  10.519  18.648  0.00  0.00    +0.000 NA
ATOM     30  C   UNL     1       1.640   9.700  18.003  0.00  0.00    +0.000 A 
ENDBRANCH  24  25
ENDBRANCH  23  24
ENDBRANCH  14  23
TORSDOF 5
ENDMDL
MODEL 8
REMARK VINA RESULT:      -6.8      7.830     10.678
REMARK  Name = 
REMARK  7 active torsions:
REMARK  status: ('A' for Active; 'I' for Inactive)
REMARK    1  A    between atoms: C_1  and  C_2
REMARK    2  A    between atoms: C_2  and  C_3
REMARK    3  A    between atoms: C_2  and  C_4
REMARK    4  A    between atoms: N_6  and  C_7
REMARK    5  A    between atoms: C_20  and  O_21
REMARK    6  A    between atoms: O_21  and  C_22
REMARK    7  A    between atoms: C_22  and  C_23
REMARK                            x       y       z     vdW  Elec       q    Type
REMARK                         _______ _______ _______ _____ _____    ______ ____
ROOT
ATOM      1  C   UNL     1      -1.015  11.970  19.775  0.00  0.00    +0.000 C 
ATOM      2  C   UNL     1      -0.604  11.041  20.869  0.00  0.00    +0.000 A 
ATOM      3  C   UNL     1       0.142   9.877  20.719  0.00  0.00    +0.000 A 
ATOM      4  C   UNL     1       0.298   9.039  21.819  0.00  0.00    +0.000 A 
ATOM      5  C   UNL     1      -0.309   9.359  23.037  0.00  0.00    +0.000 A 
ATOM      6  C   UNL     1      -1.003  10.563  23.189  0.00  0.00    +0.000 A 
ATOM      7  C   UNL     1      -1.105  11.430  22.105  0.00  0.00    +0.000 A 
ATOM      8  C   UNL     1      -1.694  12.836  22.076  0.00  0.00    +0.000 C 
ATOM      9  C   UNL     1      -3.209  12.769  22.382  0.00  0.00    +0.000 C 
ATOM     10  C   UNL     1      -3.787  14.152  22.674  0.00  0.00    +0.000 C 
ATOM     11  N   UNL     1      -3.145  14.738  23.846  0.00  0.00    +0.000 NA
ATOM     12  C   UNL     1      -1.720  14.955  23.599  0.00  0.00    +0.000 C 
ATOM     13  C   UNL     1      -0.977  13.695  23.152  0.00  0.00    +0.000 C 
ATOM     14  C   UNL     1      -1.453  13.267  20.554  0.00  0.00    +0.000 C 
ATOM     15  H   UNL     1      -3.268  14.120  24.649  0.00  0.00    +0.000 HD
ENDROOT
BRANCH   1  18
ATOM     16  C   UNL     1      -1.796  10.478  17.941  0.00  0.00    +0.000 C 
ATOM     17  O   UNL     1      -0.664  10.259  17.521  0.00  0.00    +0.000 OA
ATOM     18  N   UNL     1      -2.063  11.348  18.968  0.00  0.00    +0.000 N 
ATOM     19  H   UNL     1      -2.986  11.320  19.382  0.00  0.00    +0.000 HD
BRANCH  16  21
ATOM     20  C   UNL     1      -4.323  10.415  17.781  0.00  0.00    +0.000 C 
ATOM     21  C   UNL     1      -3.008   9.801  17.308  0.00  0.00    +0.000 C 
ATOM     22  C   UNL     1      -2.905   9.806  15.789  0.00  0.00    +0.000 C 
ENDBRANCH  16  21
ENDBRANCH   1  18
BRANCH  14  23
ATOM     23  O   UNL     1      -0.456  14.308  20.365  0.00  0.00    +0.000 OA
BRANCH  23  24
ATOM     24  C   UNL     1      -1.095  15.540  19.960  0.00  0.00    +0.000 C 
BRANCH  24  25
ATOM     25  C   UNL     1      -0.262  16.431  19.092  0.00  0.00    +0.000 A 
ATOM     26  C   UNL     1      -0.813  17.312  18.169  0.00  0.00    +0.000 A 
ATOM     27  C   UNL     1       0.030  18.002  17.299  0.00  0.00    +0.000 A 
ATOM     28  C   UNL     1       1.400  17.778  17.383  0.00  0.00    +0.000 A 
ATOM     29  N   UNL     1       1.971  16.943  18.272  0.00  0.00    +0.000 NA
ATOM     30  C   UNL     1       1.125  16.291  19.099  0.00  0.00    +0.000 A 
ENDBRANCH  24  25
ENDBRANCH  23  24
ENDBRANCH  14  23
TORSDOF 5
ENDMDL
MODEL 9
REMARK VINA RESULT:      -6.8      7.960     10.638
REMARK  Name = 
REMARK  7 active torsions:
REMARK  status: ('A' for Active; 'I' for Inactive)
REMARK    1  A    between atoms: C_1  and  C_2
REMARK    2  A    between atoms: C_2  and  C_3
REMARK    3  A    between atoms: C_2  and  C_4
REMARK    4  A    between atoms: N_6  and  C_7
REMARK    5  A    between atoms: C_20  and  O_21
REMARK    6  A    between atoms: O_21  and  C_22
REMARK    7  A    between atoms: C_22  and  C_23
REMARK                            x       y       z     vdW  Elec       q    Type
REMARK                         _______ _______ _______ _____ _____    ______ ____
ROOT
ATOM      1  C   UNL     1      -1.533  12.258  19.915  0.00  0.00    +0.000 C 
ATOM      2  C   UNL     1      -0.921  11.261  20.843  0.00  0.00    +0.000 A 
ATOM      3  C   UNL     1      -0.126  10.181  20.475  0.00  0.00    +0.000 A 
ATOM      4  C   UNL     1       0.229   9.254  21.450  0.00  0.00    +0.000 A 
ATOM      5  C   UNL     1      -0.231   9.403  22.762  0.00  0.00    +0.000 A 
ATOM      6  C   UNL     1      -0.976  10.527  23.129  0.00  0.00    +0.000 A 
ATOM      7  C   UNL     1      -1.278  11.486  22.167  0.00  0.00    +0.000 A 
ATOM      8  C   UNL     1      -1.956  12.837  22.363  0.00  0.00    +0.000 C 
ATOM      9  C   UNL     1      -3.409  12.620  22.847  0.00  0.00    +0.000 C 
ATOM     10  C   UNL     1      -4.033  13.918  23.357  0.00  0.00    +0.000 C 
ATOM     11  N   UNL     1      -3.281  14.435  24.496  0.00  0.00    +0.000 NA
ATOM     12  C   UNL     1      -1.919  14.787  24.097  0.00  0.00    +0.000 C 
ATOM     13  C   UNL     1      -1.161  13.640  23.427  0.00  0.00    +0.000 C 
ATOM     14  C   UNL     1      -1.948  13.434  20.878  0.00  0.00    +0.000 C 
ATOM     15  H   UNL     1      -3.255  13.733  25.236  0.00  0.00    +0.000 HD
ENDROOT
BRANCH   1  18
ATOM     16  C   UNL     1      -2.610  11.435  17.826  0.00  0.00    +0.000 C 
ATOM     17  O   UNL     1      -1.731  11.881  17.096  0.00  0.00    +0.000 OA
ATOM     18  N   UNL     1      -2.636  11.638  19.184  0.00  0.00    +0.000 N 
ATOM     19  H   UNL     1      -3.274  11.076  19.732  0.00  0.00    +0.000 HD
BRANCH  16  21
ATOM     20  C   UNL     1      -5.126  11.183  17.692  0.00  0.00    +0.000 C 
ATOM     21  C   UNL     1      -3.773  10.633  17.249  0.00  0.00    +0.000 C 
ATOM     22  C   UNL     1      -3.676  10.545  15.732  0.00  0.00    +0.000 C 
ENDBRANCH  16  21
ENDBRANCH   1  18
BRANCH  14  23
ATOM     23  O   UNL     1      -1.056  14.563  20.679  0.00  0.00    +0.000 OA
BRANCH  23  24
ATOM     24  C   UNL     1      -0.256  14.361  19.491  0.00  0.00    +0.000 C 
BRANCH  24  25
ATOM     25  C   UNL     1       1.225  14.391  19.712  0.00  0.00    +0.000 A 
ATOM     26  C   UNL     1       1.841  13.737  20.772  0.00  0.00    +0.000 A 
ATOM     27  C   UNL     1       3.205  13.930  20.991  0.00  0.00    +0.000 A 
ATOM     28  C   UNL     1       3.901  14.779  20.138  0.00  0.00    +0.000 A 
ATOM     29  N   UNL     1       3.342  15.419  19.093  0.00  0.00    +0.000 NA
ATOM     30  C   UNL     1       2.019  15.209  18.911  0.00  0.00    +0.000 A 
ENDBRANCH  24  25
ENDBRANCH  23  24
ENDBRANCH  14  23
TORSDOF 5
ENDMDL
