MODEL 1
REMARK VINA RESULT:      -8.1      0.000      0.000
REMARK  Name = 
REMARK  9 active torsions:
REMARK  status: ('A' for Active; 'I' for Inactive)
REMARK    1  A    between atoms: C_1  and  O_2
REMARK    2  A    between atoms: O_2  and  C_3
REMARK    3  A    between atoms: C_6  and  C_7
REMARK    4  A    between atoms: C_7  and  O_8
REMARK    5  A    between atoms: C_7  and  C_9
REMARK    6  A    between atoms: C_9  and  N_10
REMARK    7  A    between atoms: C_12  and  C_13
REMARK    8  A    between atoms: C_21  and  C_22
REMARK    9  A    between atoms: C_22  and  O_23
REMARK                            x       y       z     vdW  Elec       q    Type
REMARK                         _______ _______ _______ _____ _____    ______ ____
ROOT
ATOM      1  N   UNL     1       3.645   4.171  18.221  0.00  0.00    +0.000 N 
ATOM      2  N   UNL     1       3.176   5.388  17.882  0.00  0.00    +0.000 NA
ATOM      3  C   UNL     1       2.720   5.919  19.025  0.00  0.00    +0.000 A 
ATOM      4  C   UNL     1       2.836   4.984  20.082  0.00  0.00    +0.000 A 
ATOM      5  C   UNL     1       3.422   3.858  19.540  0.00  0.00    +0.000 A 
ENDROOT
BRANCH   3   6
ATOM      6  C   UNL     1       2.183   7.281  19.079  0.00  0.00    +0.000 A 
ATOM      7  C   UNL     1       2.197   8.098  17.940  0.00  0.00    +0.000 A 
ATOM      8  C   UNL     1       1.689   9.400  17.987  0.00  0.00    +0.000 A 
ATOM      9  C   UNL     1       1.170   9.895  19.181  0.00  0.00    +0.000 A 
ATOM     10 CL   UNL     1       0.550  11.499  19.246  0.00  0.00    +0.000 Cl
ATOM     11  C   UNL     1       1.153   9.101  20.325  0.00  0.00    +0.000 A 
ATOM     12  C   UNL     1       1.656   7.796  20.275  0.00  0.00    +0.000 A 
ENDBRANCH   3   6
BRANCH   1  13
ATOM     13  C   UNL     1       4.221   3.335  17.190  0.00  0.00    +0.000 C 
BRANCH  13  14
ATOM     14  C   UNL     1       5.193   4.067  16.256  0.00  0.00    +0.000 C 
BRANCH  14  18
ATOM     15  C   UNL     1       7.776   6.954  18.221  0.00  0.00    +0.000 A 
ATOM     16  C   UNL     1       6.915   7.340  17.194  0.00  0.00    +0.000 A 
ATOM     17  C   UNL     1       6.081   6.403  16.574  0.00  0.00    +0.000 A 
ATOM     18  C   UNL     1       6.109   5.054  16.959  0.00  0.00    +0.000 A 
ATOM     19  C   UNL     1       6.987   4.673  17.982  0.00  0.00    +0.000 A 
ATOM     20  C   UNL     1       7.817   5.614  18.607  0.00  0.00    +0.000 A 
BRANCH  15  22
ATOM     21  C   UNL     1       8.369   9.243  18.153  0.00  0.00    +0.000 C 
ATOM     22  O   UNL     1       8.547   7.957  18.738  0.00  0.00    +0.000 OA
ENDBRANCH  15  22
ENDBRANCH  14  18
BRANCH  14  23
ATOM     23  O   UNL     1       5.995   3.096  15.563  0.00  0.00    +0.000 OA
ATOM     24  H   UNL     1       5.921   2.251  16.031  0.00  0.00    +0.000 HD
ENDBRANCH  14  23
ENDBRANCH  13  14
ENDBRANCH   1  13
BRANCH   5  25
ATOM     25  C   UNL     1       3.788   2.573  20.167  0.00  0.00    +0.000 C 
BRANCH  25  26
ATOM     26  O   UNL     1       5.190   2.417  20.024  0.00  0.00    +0.000 OA
ATOM     27  H   UNL     1       5.505   1.968  20.828  0.00  0.00    +0.000 HD
ENDBRANCH  25  26
ENDBRANCH   5  25
TORSDOF 8
ENDMDL
MODEL 2
REMARK VINA RESULT:      -7.9      2.044      2.738
REMARK  Name = 
REMARK  9 active torsions:
REMARK  status: ('A' for Active; 'I' for Inactive)
REMARK    1  A    between atoms: C_1  and  O_2
REMARK    2  A    between atoms: O_2  and  C_3
REMARK    3  A    between atoms: C_6  and  C_7
REMARK    4  A    between atoms: C_7  and  O_8
REMARK    5  A    between atoms: C_7  and  C_9
REMARK    6  A    between atoms: C_9  and  N_10
REMARK    7  A    between atoms: C_12  and  C_13
REMARK    8  A    between atoms: C_21  and  C_22
REMARK    9  A    between atoms: C_22  and  O_23
REMARK                            x       y       z     vdW  Elec       q    Type
REMARK                         _______ _______ _______ _____ _____    ______ ____
ROOT
ATOM      1  N   UNL     1       3.329   4.801  19.804  0.00  0.00    +0.000 N 
ATOM      2  N   UNL     1       3.220   6.015  19.229  0.00  0.00    +0.000 NA
ATOM      3  C   UNL     1       2.207   6.615  19.869  0.00  0.00    +0.000 A 
ATOM      4  C   UNL     1       1.622   5.728  20.805  0.00  0.00    +0.000 A 
ATOM      5  C   UNL     1       2.351   4.559  20.738  0.00  0.00    +0.000 A 
ENDROOT
BRANCH   3   6
ATOM      6  C   UNL     1       1.818   7.995  19.568  0.00  0.00    +0.000 A 
ATOM      7  C   UNL     1       2.107   8.560  18.317  0.00  0.00    +0.000 A 
ATOM      8  C   UNL     1       1.741   9.877  18.026  0.00  0.00    +0.000 A 
ATOM      9  C   UNL     1       1.090  10.642  18.991  0.00  0.00    +0.000 A 
ATOM     10 CL   UNL     1       0.645  12.267  18.640  0.00  0.00    +0.000 Cl
ATOM     11  C   UNL     1       0.800  10.101  20.241  0.00  0.00    +0.000 A 
ATOM     12  C   UNL     1       1.161   8.780  20.529  0.00  0.00    +0.000 A 
ENDBRANCH   3   6
BRANCH   1  13
ATOM     13  C   UNL     1       4.356   3.897  19.333  0.00  0.00    +0.000 C 
BRANCH  13  14
ATOM     14  C   UNL     1       4.135   3.383  17.905  0.00  0.00    +0.000 C 
BRANCH  14  18
ATOM     15  C   UNL     1       6.990   4.980  15.047  0.00  0.00    +0.000 A 
ATOM     16  C   UNL     1       7.273   4.959  16.413  0.00  0.00    +0.000 A 
ATOM     17  C   UNL     1       6.349   4.435  17.323  0.00  0.00    +0.000 A 
ATOM     18  C   UNL     1       5.113   3.938  16.883  0.00  0.00    +0.000 A 
ATOM     19  C   UNL     1       4.832   3.976  15.511  0.00  0.00    +0.000 A 
ATOM     20  C   UNL     1       5.761   4.495  14.599  0.00  0.00    +0.000 A 
BRANCH  15  22
ATOM     21  C   UNL     1       7.868   5.252  12.867  0.00  0.00    +0.000 C 
ATOM     22  O   UNL     1       7.966   5.527  14.261  0.00  0.00    +0.000 OA
ENDBRANCH  15  22
ENDBRANCH  14  18
BRANCH  14  23
ATOM     23  O   UNL     1       4.225   1.948  17.906  0.00  0.00    +0.000 OA
ATOM     24  H   UNL     1       3.353   1.589  18.128  0.00  0.00    +0.000 HD
ENDBRANCH  14  23
ENDBRANCH  13  14
ENDBRANCH   1  13
BRANCH   5  25
ATOM     25  C   UNL     1       2.203   3.294  21.485  0.00  0.00    +0.000 C 
BRANCH  25  26
ATOM     26  O   UNL     1       1.405   2.428  20.696  0.00  0.00    +0.000 OA
ATOM     27  H   UNL     1       0.587   2.913  20.488  0.00  0.00    +0.000 HD
ENDBRANCH  25  26
ENDBRANCH   5  25
TORSDOF 8
ENDMDL
MODEL 3
REMARK VINA RESULT:      -7.9      0.926      1.644
REMARK  Name = 
REMARK  9 active torsions:
REMARK  status: ('A' for Active; 'I' for Inactive)
REMARK    1  A    between atoms: C_1  and  O_2
REMARK    2  A    between atoms: O_2  and  C_3
REMARK    3  A    between atoms: C_6  and  C_7
REMARK    4  A    between atoms: C_7  and  O_8
REMARK    5  A    between atoms: C_7  and  C_9
REMARK    6  A    between atoms: C_9  and  N_10
REMARK    7  A    between atoms: C_12  and  C_13
REMARK    8  A    between atoms: C_21  and  C_22
REMARK    9  A    between atoms: C_22  and  O_23
REMARK                            x       y       z     vdW  Elec       q    Type
REMARK                         _______ _______ _______ _____ _____    ______ ____
ROOT
ATOM      1  N   UNL     1       3.507   4.360  18.996  0.00  0.00    +0.000 N 
ATOM      2  N   UNL     1       3.235   5.589  18.514  0.00  0.00    +0.000 NA
ATOM      3  C   UNL     1       2.455   6.162  19.440  0.00  0.00    +0.000 A 
ATOM      4  C   UNL     1       2.172   5.246  20.482  0.00  0.00    +0.000 A 
ATOM      5  C   UNL     1       2.849   4.085  20.169  0.00  0.00    +0.000 A 
ENDROOT
BRANCH   3   6
ATOM      6  C   UNL     1       1.995   7.547  19.307  0.00  0.00    +0.000 A 
ATOM      7  C   UNL     1       1.401   8.208  20.392  0.00  0.00    +0.000 A 
ATOM      8  C   UNL     1       0.958   9.528  20.270  0.00  0.00    +0.000 A 
ATOM      9  C   UNL     1       1.099  10.194  19.054  0.00  0.00    +0.000 A 
ATOM     10 CL   UNL     1       0.549  11.816  18.896  0.00  0.00    +0.000 Cl
ATOM     11  C   UNL     1       1.681   9.552  17.963  0.00  0.00    +0.000 A 
ATOM     12  C   UNL     1       2.130   8.233  18.089  0.00  0.00    +0.000 A 
ENDBRANCH   3   6
BRANCH   1  13
ATOM     13  C   UNL     1       4.350   3.478  18.217  0.00  0.00    +0.000 C 
BRANCH  13  14
ATOM     14  C   UNL     1       5.046   4.157  17.032  0.00  0.00    +0.000 C 
BRANCH  14  18
ATOM     15  C   UNL     1       7.830   7.278  18.206  0.00  0.00    +0.000 A 
ATOM     16  C   UNL     1       7.835   6.033  18.836  0.00  0.00    +0.000 A 
ATOM     17  C   UNL     1       6.939   5.033  18.444  0.00  0.00    +0.000 A 
ATOM     18  C   UNL     1       6.005   5.268  17.424  0.00  0.00    +0.000 A 
ATOM     19  C   UNL     1       5.998   6.525  16.805  0.00  0.00    +0.000 A 
ATOM     20  C   UNL     1       6.901   7.525  17.195  0.00  0.00    +0.000 A 
BRANCH  15  22
ATOM     21  C   UNL     1       8.532   9.534  18.320  0.00  0.00    +0.000 C 
ATOM     22  O   UNL     1       8.744   8.174  18.686  0.00  0.00    +0.000 OA
ENDBRANCH  15  22
ENDBRANCH  14  18
BRANCH  14  23
ATOM     23  O   UNL     1       5.763   3.164  16.279  0.00  0.00    +0.000 OA
ATOM     24  H   UNL     1       6.535   2.889  16.798  0.00  0.00    +0.000 HD
ENDBRANCH  14  23
ENDBRANCH  13  14
ENDBRANCH   1  13
BRANCH   5  25
ATOM     25  C   UNL     1       2.927   2.798  20.890  0.00  0.00    +0.000 C 
BRANCH  25  26
ATOM     26  O   UNL     1       2.445   3.020  22.205  0.00  0.00    +0.000 OA
ATOM     27  H   UNL     1       2.792   3.884  22.488  0.00  0.00    +0.000 HD
ENDBRANCH  25  26
ENDBRANCH   5  25
TORSDOF 8
ENDMDL
MODEL 4
REMARK VINA RESULT:      -7.9      1.930      2.646
REMARK  Name = 
REMARK  9 active torsions:
REMARK  status: ('A' for Active; 'I' for Inactive)
REMARK    1  A    between atoms: C_1  and  O_2
REMARK    2  A    between atoms: O_2  and  C_3
REMARK    3  A    between atoms: C_6  and  C_7
REMARK    4  A    between atoms: C_7  and  O_8
REMARK    5  A    between atoms: C_7  and  C_9
REMARK    6  A    between atoms: C_9  and  N_10
REMARK    7  A    between atoms: C_12  and  C_13
REMARK    8  A    between atoms: C_21  and  C_22
REMARK    9  A    between atoms: C_22  and  O_23
REMARK                            x       y       z     vdW  Elec       q    Type
REMARK                         _______ _______ _______ _____ _____    ______ ____
ROOT
ATOM      1  N   UNL     1       3.222   4.717  19.710  0.00  0.00    +0.000 N 
ATOM      2  N   UNL     1       3.186   5.983  19.248  0.00  0.00    +0.000 NA
ATOM      3  C   UNL     1       2.104   6.531  19.817  0.00  0.00    +0.000 A 
ATOM      4  C   UNL     1       1.409   5.567  20.586  0.00  0.00    +0.000 A 
ATOM      5  C   UNL     1       2.138   4.400  20.493  0.00  0.00    +0.000 A 
ENDROOT
BRANCH   3   6
ATOM      6  C   UNL     1       1.757   7.939  19.608  0.00  0.00    +0.000 A 
ATOM      7  C   UNL     1       2.010   8.560  18.377  0.00  0.00    +0.000 A 
ATOM      8  C   UNL     1       1.685   9.905  18.173  0.00  0.00    +0.000 A 
ATOM      9  C   UNL     1       1.110  10.640  19.207  0.00  0.00    +0.000 A 
ATOM     10 CL   UNL     1       0.714  12.296  18.964  0.00  0.00    +0.000 Cl
ATOM     11  C   UNL     1       0.856  10.043  20.440  0.00  0.00    +0.000 A 
ATOM     12  C   UNL     1       1.177   8.695  20.640  0.00  0.00    +0.000 A 
ENDBRANCH   3   6
BRANCH   1  13
ATOM     13  C   UNL     1       4.297   3.848  19.280  0.00  0.00    +0.000 C 
BRANCH  13  14
ATOM     14  C   UNL     1       4.189   3.391  17.820  0.00  0.00    +0.000 C 
BRANCH  14  18
ATOM     15  C   UNL     1       7.108   5.117  15.106  0.00  0.00    +0.000 A 
ATOM     16  C   UNL     1       6.273   4.077  14.699  0.00  0.00    +0.000 A 
ATOM     17  C   UNL     1       5.330   3.534  15.579  0.00  0.00    +0.000 A 
ATOM     18  C   UNL     1       5.220   4.011  16.893  0.00  0.00    +0.000 A 
ATOM     19  C   UNL     1       6.073   5.048  17.298  0.00  0.00    +0.000 A 
ATOM     20  C   UNL     1       7.012   5.595  16.413  0.00  0.00    +0.000 A 
BRANCH  15  22
ATOM     21  C   UNL     1       7.732   5.136  12.824  0.00  0.00    +0.000 C 
ATOM     22  O   UNL     1       7.993   5.554  14.160  0.00  0.00    +0.000 OA
ENDBRANCH  15  22
ENDBRANCH  14  18
BRANCH  14  23
ATOM     23  O   UNL     1       4.316   1.959  17.769  0.00  0.00    +0.000 OA
ATOM     24  H   UNL     1       4.199   1.612  18.666  0.00  0.00    +0.000 HD
ENDBRANCH  14  23
ENDBRANCH  13  14
ENDBRANCH   1  13
BRANCH   5  25
ATOM     25  C   UNL     1       1.899   3.070  21.089  0.00  0.00    +0.000 C 
BRANCH  25  26
ATOM     26  O   UNL     1       2.408   3.102  22.412  0.00  0.00    +0.000 OA
ATOM     27  H   UNL     1       3.126   3.759  22.420  0.00  0.00    +0.000 HD
ENDBRANCH  25  26
ENDBRANCH   5  25
TORSDOF 8
ENDMDL
MODEL 5
REMARK VINA RESULT:      -7.9      1.978      3.082
REMARK  Name = 
REMARK  9 active torsions:
REMARK  status: ('A' for Active; 'I' for Inactive)
REMARK    1  A    between atoms: C_1  and  O_2
REMARK    2  A    between atoms: O_2  and  C_3
REMARK    3  A    between atoms: C_6  and  C_7
REMARK    4  A    between atoms: C_7  and  O_8
REMARK    5  A    between atoms: C_7  and  C_9
REMARK    6  A    between atoms: C_9  and  N_10
REMARK    7  A    between atoms: C_12  and  C_13
REMARK    8  A    between atoms: C_21  and  C_22
REMARK    9  A    between atoms: C_22  and  O_23
REMARK                            x       y       z     vdW  Elec       q    Type
REMARK                         _______ _______ _______ _____ _____    ______ ____
ROOT
ATOM      1  N   UNL     1       2.910   4.915  19.525  0.00  0.00    +0.000 N 
ATOM      2  N   UNL     1       2.784   6.109  18.912  0.00  0.00    +0.000 NA
ATOM      3  C   UNL     1       2.046   6.854  19.746  0.00  0.00    +0.000 A 
ATOM      4  C   UNL     1       1.638   6.085  20.863  0.00  0.00    +0.000 A 
ATOM      5  C   UNL     1       2.194   4.834  20.695  0.00  0.00    +0.000 A 
ENDROOT
BRANCH   3   6
ATOM      6  C   UNL     1       1.742   8.258  19.458  0.00  0.00    +0.000 A 
ATOM      7  C   UNL     1       2.079   8.819  18.217  0.00  0.00    +0.000 A 
ATOM      8  C   UNL     1       1.794  10.159  17.937  0.00  0.00    +0.000 A 
ATOM      9  C   UNL     1       1.177  10.950  18.904  0.00  0.00    +0.000 A 
ATOM     10 CL   UNL     1       0.831  12.601  18.567  0.00  0.00    +0.000 Cl
ATOM     11  C   UNL     1       0.840  10.412  20.144  0.00  0.00    +0.000 A 
ATOM     12  C   UNL     1       1.120   9.069  20.420  0.00  0.00    +0.000 A 
ENDBRANCH   3   6
BRANCH   1  13
ATOM     13  C   UNL     1       3.673   3.874  18.872  0.00  0.00    +0.000 C 
BRANCH  13  14
ATOM     14  C   UNL     1       5.181   4.145  18.808  0.00  0.00    +0.000 C 
BRANCH  14  18
ATOM     15  C   UNL     1       6.653   4.664  14.755  0.00  0.00    +0.000 A 
ATOM     16  C   UNL     1       5.350   4.230  14.998  0.00  0.00    +0.000 A 
ATOM     17  C   UNL     1       4.884   4.075  16.308  0.00  0.00    +0.000 A 
ATOM     18  C   UNL     1       5.724   4.333  17.402  0.00  0.00    +0.000 A 
ATOM     19  C   UNL     1       7.036   4.756  17.148  0.00  0.00    +0.000 A 
ATOM     20  C   UNL     1       7.499   4.918  15.835  0.00  0.00    +0.000 A 
BRANCH  15  22
ATOM     21  C   UNL     1       6.557   3.702  12.596  0.00  0.00    +0.000 C 
ATOM     22  O   UNL     1       6.993   4.767  13.435  0.00  0.00    +0.000 OA
ENDBRANCH  15  22
ENDBRANCH  14  18
BRANCH  14  23
ATOM     23  O   UNL     1       5.477   5.320  19.584  0.00  0.00    +0.000 OA
ATOM     24  H   UNL     1       4.782   5.426  20.251  0.00  0.00    +0.000 HD
ENDBRANCH  14  23
ENDBRANCH  13  14
ENDBRANCH   1  13
BRANCH   5  25
ATOM     25  C   UNL     1       2.114   3.628  21.544  0.00  0.00    +0.000 C 
BRANCH  25  26
ATOM     26  O   UNL     1       0.924   2.943  21.193  0.00  0.00    +0.000 OA
ATOM     27  H   UNL     1       1.186   2.208  20.611  0.00  0.00    +0.000 HD
ENDBRANCH  25  26
ENDBRANCH   5  25
TORSDOF 8
ENDMDL
MODEL 6
REMARK VINA RESULT:      -7.9      1.433      2.174
REMARK  Name = 
REMARK  9 active torsions:
REMARK  status: ('A' for Active; 'I' for Inactive)
REMARK    1  A    between atoms: C_1  and  O_2
REMARK    2  A    between atoms: O_2  and  C_3
REMARK    3  A    between atoms: C_6  and  C_7
REMARK    4  A    between atoms: C_7  and  O_8
REMARK    5  A    between atoms: C_7  and  C_9
REMARK    6  A    between atoms: C_9  and  N_10
REMARK    7  A    between atoms: C_12  and  C_13
REMARK    8  A    between atoms: C_21  and  C_22
REMARK    9  A    between atoms: C_22  and  O_23
REMARK                            x       y       z     vdW  Elec       q    Type
REMARK                         _______ _______ _______ _____ _____    ______ ____
ROOT
ATOM      1  N   UNL     1       2.400   4.078  19.097  0.00  0.00    +0.000 N 
ATOM      2  N   UNL     1       2.376   5.309  18.547  0.00  0.00    +0.000 NA
ATOM      3  C   UNL     1       1.900   6.111  19.508  0.00  0.00    +0.000 A 
ATOM      4  C   UNL     1       1.546   5.355  20.652  0.00  0.00    +0.000 A 
ATOM      5  C   UNL     1       1.863   4.044  20.361  0.00  0.00    +0.000 A 
ENDROOT
BRANCH   3   6
ATOM      6  C   UNL     1       1.784   7.559  19.313  0.00  0.00    +0.000 A 
ATOM      7  C   UNL     1       1.276   8.377  20.332  0.00  0.00    +0.000 A 
ATOM      8  C   UNL     1       1.161   9.759  20.150  0.00  0.00    +0.000 A 
ATOM      9  C   UNL     1       1.547  10.329  18.939  0.00  0.00    +0.000 A 
ATOM     10 CL   UNL     1       1.400  12.028  18.707  0.00  0.00    +0.000 Cl
ATOM     11  C   UNL     1       2.049   9.533  17.913  0.00  0.00    +0.000 A 
ATOM     12  C   UNL     1       2.169   8.151  18.099  0.00  0.00    +0.000 A 
ENDBRANCH   3   6
BRANCH   1  13
ATOM     13  C   UNL     1       2.880   2.969  18.301  0.00  0.00    +0.000 C 
BRANCH  13  14
ATOM     14  C   UNL     1       4.405   2.804  18.309  0.00  0.00    +0.000 C 
BRANCH  14  18
ATOM     15  C   UNL     1       6.620   6.294  16.975  0.00  0.00    +0.000 A 
ATOM     16  C   UNL     1       6.663   5.879  18.306  0.00  0.00    +0.000 A 
ATOM     17  C   UNL     1       5.952   4.748  18.722  0.00  0.00    +0.000 A 
ATOM     18  C   UNL     1       5.167   4.022  17.815  0.00  0.00    +0.000 A 
ATOM     19  C   UNL     1       5.118   4.454  16.483  0.00  0.00    +0.000 A 
ATOM     20  C   UNL     1       5.836   5.584  16.065  0.00  0.00    +0.000 A 
BRANCH  15  22
ATOM     21  C   UNL     1       7.861   8.123  17.820  0.00  0.00    +0.000 C 
ATOM     22  O   UNL     1       7.347   7.418  16.695  0.00  0.00    +0.000 OA
ENDBRANCH  15  22
ENDBRANCH  14  18
BRANCH  14  23
ATOM     23  O   UNL     1       4.834   2.494  19.646  0.00  0.00    +0.000 OA
ATOM     24  H   UNL     1       4.403   3.113  20.254  0.00  0.00    +0.000 HD
ENDBRANCH  14  23
ENDBRANCH  13  14
ENDBRANCH   1  13
BRANCH   5  25
ATOM     25  C   UNL     1       1.719   2.821  21.175  0.00  0.00    +0.000 C 
BRANCH  25  26
ATOM     26  O   UNL     1       2.902   2.683  21.944  0.00  0.00    +0.000 OA
ATOM     27  H   UNL     1       2.867   3.365  22.637  0.00  0.00    +0.000 HD
ENDBRANCH  25  26
ENDBRANCH   5  25
TORSDOF 8
ENDMDL
MODEL 7
REMARK VINA RESULT:      -7.8      2.070      2.900
REMARK  Name = 
REMARK  9 active torsions:
REMARK  status: ('A' for Active; 'I' for Inactive)
REMARK    1  A    between atoms: C_1  and  O_2
REMARK    2  A    between atoms: O_2  and  C_3
REMARK    3  A    between atoms: C_6  and  C_7
REMARK    4  A    between atoms: C_7  and  O_8
REMARK    5  A    between atoms: C_7  and  C_9
REMARK    6  A    between atoms: C_9  and  N_10
REMARK    7  A    between atoms: C_12  and  C_13
REMARK    8  A    between atoms: C_21  and  C_22
REMARK    9  A    between atoms: C_22  and  O_23
REMARK                            x       y       z     vdW  Elec       q    Type
REMARK                         _______ _______ _______ _____ _____    ______ ____
ROOT
ATOM      1  N   UNL     1       3.267   4.721  19.733  0.00  0.00    +0.000 N 
ATOM      2  N   UNL     1       3.206   6.012  19.353  0.00  0.00    +0.000 NA
ATOM      3  C   UNL     1       2.102   6.497  19.936  0.00  0.00    +0.000 A 
ATOM      4  C   UNL     1       1.418   5.468  20.629  0.00  0.00    +0.000 A 
ATOM      5  C   UNL     1       2.179   4.328  20.474  0.00  0.00    +0.000 A 
ENDROOT
BRANCH   3   6
ATOM      6  C   UNL     1       1.723   7.907  19.812  0.00  0.00    +0.000 A 
ATOM      7  C   UNL     1       1.211   8.606  20.914  0.00  0.00    +0.000 A 
ATOM      8  C   UNL     1       0.845   9.951  20.801  0.00  0.00    +0.000 A 
ATOM      9  C   UNL     1       0.983  10.603  19.577  0.00  0.00    +0.000 A 
ATOM     10 CL   UNL     1       0.527  12.256  19.431  0.00  0.00    +0.000 Cl
ATOM     11  C   UNL     1       1.485   9.924  18.470  0.00  0.00    +0.000 A 
ATOM     12  C   UNL     1       1.856   8.580  18.586  0.00  0.00    +0.000 A 
ENDBRANCH   3   6
BRANCH   1  13
ATOM     13  C   UNL     1       4.370   3.908  19.267  0.00  0.00    +0.000 C 
BRANCH  13  14
ATOM     14  C   UNL     1       4.187   3.353  17.850  0.00  0.00    +0.000 C 
BRANCH  14  18
ATOM     15  C   UNL     1       6.991   5.013  14.978  0.00  0.00    +0.000 A 
ATOM     16  C   UNL     1       7.313   4.928  16.333  0.00  0.00    +0.000 A 
ATOM     17  C   UNL     1       6.405   4.383  17.247  0.00  0.00    +0.000 A 
ATOM     18  C   UNL     1       5.147   3.932  16.824  0.00  0.00    +0.000 A 
ATOM     19  C   UNL     1       4.826   4.033  15.463  0.00  0.00    +0.000 A 
ATOM     20  C   UNL     1       5.740   4.573  14.547  0.00  0.00    +0.000 A 
BRANCH  15  22
ATOM     21  C   UNL     1       7.921   5.207  12.811  0.00  0.00    +0.000 C 
ATOM     22  O   UNL     1       7.956   5.573  14.187  0.00  0.00    +0.000 OA
ENDBRANCH  15  22
ENDBRANCH  14  18
BRANCH  14  23
ATOM     23  O   UNL     1       4.345   1.924  17.884  0.00  0.00    +0.000 OA
ATOM     24  H   UNL     1       3.484   1.519  17.700  0.00  0.00    +0.000 HD
ENDBRANCH  14  23
ENDBRANCH  13  14
ENDBRANCH   1  13
BRANCH   5  25
ATOM     25  C   UNL     1       1.962   2.957  20.979  0.00  0.00    +0.000 C 
BRANCH  25  26
ATOM     26  O   UNL     1       2.425   2.922  22.319  0.00  0.00    +0.000 OA
ATOM     27  H   UNL     1       1.808   2.355  22.813  0.00  0.00    +0.000 HD
ENDBRANCH  25  26
ENDBRANCH   5  25
TORSDOF 8
ENDMDL
MODEL 8
REMARK VINA RESULT:      -7.8      1.525      1.988
REMARK  Name = 
REMARK  9 active torsions:
REMARK  status: ('A' for Active; 'I' for Inactive)
REMARK    1  A    between atoms: C_1  and  O_2
REMARK    2  A    between atoms: O_2  and  C_3
REMARK    3  A    between atoms: C_6  and  C_7
REMARK    4  A    between atoms: C_7  and  O_8
REMARK    5  A    between atoms: C_7  and  C_9
REMARK    6  A    between atoms: C_9  and  N_10
REMARK    7  A    between atoms: C_12  and  C_13
REMARK    8  A    between atoms: C_21  and  C_22
REMARK    9  A    between atoms: C_22  and  O_23
REMARK                            x       y       z     vdW  Elec       q    Type
REMARK                         _______ _______ _______ _____ _____    ______ ____
ROOT
ATOM      1  N   UNL     1       2.134   3.937  19.189  0.00  0.00    +0.000 N 
ATOM      2  N   UNL     1       2.091   5.145  18.593  0.00  0.00    +0.000 NA
ATOM      3  C   UNL     1       1.818   6.011  19.577  0.00  0.00    +0.000 A 
ATOM      4  C   UNL     1       1.609   5.322  20.796  0.00  0.00    +0.000 A 
ATOM      5  C   UNL     1       1.804   3.984  20.522  0.00  0.00    +0.000 A 
ENDROOT
BRANCH   3   6
ATOM      6  C   UNL     1       1.752   7.455  19.334  0.00  0.00    +0.000 A 
ATOM      7  C   UNL     1       2.183   7.991  18.112  0.00  0.00    +0.000 A 
ATOM      8  C   UNL     1       2.126   9.368  17.876  0.00  0.00    +0.000 A 
ATOM      9  C   UNL     1       1.643  10.219  18.868  0.00  0.00    +0.000 A 
ATOM     10 CL   UNL     1       1.577  11.915  18.584  0.00  0.00    +0.000 Cl
ATOM     11  C   UNL     1       1.216   9.706  20.090  0.00  0.00    +0.000 A 
ATOM     12  C   UNL     1       1.268   8.327  20.323  0.00  0.00    +0.000 A 
ENDBRANCH   3   6
BRANCH   1  13
ATOM     13  C   UNL     1       2.421   2.771  18.382  0.00  0.00    +0.000 C 
BRANCH  13  14
ATOM     14  C   UNL     1       3.917   2.506  18.170  0.00  0.00    +0.000 C 
BRANCH  14  18
ATOM     15  C   UNL     1       6.201   6.045  17.111  0.00  0.00    +0.000 A 
ATOM     16  C   UNL     1       5.425   5.378  16.163  0.00  0.00    +0.000 A 
ATOM     17  C   UNL     1       4.687   4.244  16.517  0.00  0.00    +0.000 A 
ATOM     18  C   UNL     1       4.728   3.743  17.827  0.00  0.00    +0.000 A 
ATOM     19  C   UNL     1       5.521   4.412  18.770  0.00  0.00    +0.000 A 
ATOM     20  C   UNL     1       6.254   5.552  18.415  0.00  0.00    +0.000 A 
BRANCH  15  22
ATOM     21  C   UNL     1       7.670   7.834  17.599  0.00  0.00    +0.000 C 
ATOM     22  O   UNL     1       6.884   7.132  16.641  0.00  0.00    +0.000 OA
ENDBRANCH  15  22
ENDBRANCH  14  18
BRANCH  14  23
ATOM     23  O   UNL     1       4.458   1.907  19.360  0.00  0.00    +0.000 OA
ATOM     24  H   UNL     1       4.325   0.948  19.305  0.00  0.00    +0.000 HD
ENDBRANCH  14  23
ENDBRANCH  13  14
ENDBRANCH   1  13
BRANCH   5  25
ATOM     25  C   UNL     1       1.725   2.804  21.406  0.00  0.00    +0.000 C 
BRANCH  25  26
ATOM     26  O   UNL     1       3.035   2.540  21.878  0.00  0.00    +0.000 OA
ATOM     27  H   UNL     1       3.141   3.040  22.706  0.00  0.00    +0.000 HD
ENDBRANCH  25  26
ENDBRANCH   5  25
TORSDOF 8
ENDMDL
MODEL 9
REMARK VINA RESULT:      -7.8      1.940      3.179
REMARK  Name = 
REMARK  9 active torsions:
REMARK  status: ('A' for Active; 'I' for Inactive)
REMARK    1  A    between atoms: C_1  and  O_2
REMARK    2  A    between atoms: O_2  and  C_3
REMARK    3  A    between atoms: C_6  and  C_7
REMARK    4  A    between atoms: C_7  and  O_8
REMARK    5  A    between atoms: C_7  and  C_9
REMARK    6  A    between atoms: C_9  and  N_10
REMARK    7  A    between atoms: C_12  and  C_13
REMARK    8  A    between atoms: C_21  and  C_22
REMARK    9  A    between atoms: C_22  and  O_23
REMARK                            x       y       z     vdW  Elec       q    Type
REMARK                         _______ _______ _______ _____ _____    ______ ____
ROOT
ATOM      1  N   UNL     1       3.271   4.536  19.689  0.00  0.00    +0.000 N 
ATOM      2  N   UNL     1       3.145   5.739  19.094  0.00  0.00    +0.000 NA
ATOM      3  C   UNL     1       2.233   6.395  19.825  0.00  0.00    +0.000 A 
ATOM      4  C   UNL     1       1.724   5.557  20.847  0.00  0.00    +0.000 A 
ATOM      5  C   UNL     1       2.397   4.358  20.733  0.00  0.00    +0.000 A 
ENDROOT
BRANCH   3   6
ATOM      6  C   UNL     1       1.865   7.782  19.528  0.00  0.00    +0.000 A 
ATOM      7  C   UNL     1       1.239   8.576  20.500  0.00  0.00    +0.000 A 
ATOM      8  C   UNL     1       0.884   9.899  20.221  0.00  0.00    +0.000 A 
ATOM      9  C   UNL     1       1.146  10.434  18.962  0.00  0.00    +0.000 A 
ATOM     10 CL   UNL     1       0.703  12.059  18.612  0.00  0.00    +0.000 Cl
ATOM     11  C   UNL     1       1.761   9.659  17.982  0.00  0.00    +0.000 A 
ATOM     12  C   UNL     1       2.123   8.337  18.264  0.00  0.00    +0.000 A 
ENDBRANCH   3   6
BRANCH   1  13
ATOM     13  C   UNL     1       4.204   3.579  19.134  0.00  0.00    +0.000 C 
BRANCH  13  14
ATOM     14  C   UNL     1       5.618   4.132  18.917  0.00  0.00    +0.000 C 
BRANCH  14  18
ATOM     15  C   UNL     1       6.609   4.695  14.725  0.00  0.00    +0.000 A 
ATOM     16  C   UNL     1       5.319   4.338  15.119  0.00  0.00    +0.000 A 
ATOM     17  C   UNL     1       5.009   4.168  16.473  0.00  0.00    +0.000 A 
ATOM     18  C   UNL     1       5.994   4.333  17.459  0.00  0.00    +0.000 A 
ATOM     19  C   UNL     1       7.290   4.678  17.053  0.00  0.00    +0.000 A 
ATOM     20  C   UNL     1       7.597   4.855  15.697  0.00  0.00    +0.000 A 
BRANCH  15  22
ATOM     21  C   UNL     1       6.500   3.662  12.600  0.00  0.00    +0.000 C 
ATOM     22  O   UNL     1       6.789   4.820  13.376  0.00  0.00    +0.000 OA
ENDBRANCH  15  22
ENDBRANCH  14  18
BRANCH  14  23
ATOM     23  O   UNL     1       5.738   5.389  19.607  0.00  0.00    +0.000 OA
ATOM     24  H   UNL     1       6.660   5.680  19.548  0.00  0.00    +0.000 HD
ENDBRANCH  14  23
ENDBRANCH  13  14
ENDBRANCH   1  13
BRANCH   5  25
ATOM     25  C   UNL     1       2.286   3.119  21.529  0.00  0.00    +0.000 C 
BRANCH  25  26
ATOM     26  O   UNL     1       0.913   2.770  21.580  0.00  0.00    +0.000 OA
ATOM     27  H   UNL     1       0.478   3.237  20.845  0.00  0.00    +0.000 HD
ENDBRANCH  25  26
ENDBRANCH   5  25
TORSDOF 8
ENDMDL
