MODEL 1
REMARK VINA RESULT:      -8.5      0.000      0.000
REMARK  Name = 
REMARK  4 active torsions:
REMARK  status: ('A' for Active; 'I' for Inactive)
REMARK    1  A    between atoms: N_5  and  C_6
REMARK    2  A    between atoms: C_9  and  N_10
REMARK    3  A    between atoms: N_13  and  C_14
REMARK    4  A    between atoms: N_26  and  C_27
REMARK                            x       y       z     vdW  Elec       q    Type
REMARK                         _______ _______ _______ _____ _____    ______ ____
ROOT
ATOM      1  N   UNL     1      -5.641  13.462  24.066  0.00  0.00    +0.000 N 
ATOM      2  C   UNL     1      -4.550  13.088  23.363  0.00  0.00    +0.000 A 
ATOM      3  N   UNL     1      -3.485  12.551  23.880  0.00  0.00    +0.000 NA
ATOM      4  C   UNL     1      -2.709  12.279  22.801  0.00  0.00    +0.000 A 
ATOM      5  N   UNL     1      -1.558  11.654  23.128  0.00  0.00    +0.000 N 
ATOM      6  N   UNL     1      -3.240  12.622  21.613  0.00  0.00    +0.000 NA
ATOM      7  N   UNL     1      -4.426  13.181  21.976  0.00  0.00    +0.000 N 
ATOM      8  H   UNL     1      -5.818  12.969  24.933  0.00  0.00    +0.000 HD
ATOM      9  H   UNL     1      -6.480  13.716  23.542  0.00  0.00    +0.000 HD
ATOM     10  H   UNL     1      -1.476  11.491  24.125  0.00  0.00    +0.000 HD
ENDROOT
BRANCH   7  11
ATOM     11  C   UNL     1      -5.404  13.751  21.101  0.00  0.00    +0.000 A 
ATOM     12  N   UNL     1      -5.865  15.002  21.446  0.00  0.00    +0.000 NA
ATOM     13  C   UNL     1      -6.725  15.642  20.656  0.00  0.00    +0.000 A 
ATOM     14  N   UNL     1      -7.200  15.210  19.502  0.00  0.00    +0.000 NA
ATOM     15  C   UNL     1      -6.871  13.932  19.208  0.00  0.00    +0.000 A 
ATOM     16  C   UNL     1      -7.442  13.235  18.109  0.00  0.00    +0.000 A 
ATOM     17  C   UNL     1      -7.185  11.889  18.180  0.00  0.00    +0.000 A 
ATOM     18  S   UNL     1      -5.990  11.538  19.360  0.00  0.00    +0.000 S 
ATOM     19  C   UNL     1      -6.005  13.146  19.987  0.00  0.00    +0.000 A 
ENDBRANCH   7  11
BRANCH   5  20
ATOM     20  C   UNL     1      -0.692  10.848  22.381  0.00  0.00    +0.000 A 
ATOM     21  C   UNL     1      -0.252   9.616  22.899  0.00  0.00    +0.000 A 
ATOM     22  C   UNL     1       0.562   8.764  22.147  0.00  0.00    +0.000 A 
ATOM     23  C   UNL     1       0.964   9.117  20.851  0.00  0.00    +0.000 A 
ATOM     24  C   UNL     1       0.585  10.377  20.381  0.00  0.00    +0.000 A 
ATOM     25  C   UNL     1      -0.217  11.232  21.131  0.00  0.00    +0.000 A 
BRANCH  23  26
ATOM     26  N   UNL     1       1.704   8.286  20.045  0.00  0.00    +0.000 N 
ATOM     27  C   UNL     1       2.117   6.961  20.530  0.00  0.00    +0.000 C 
ATOM     28  C   UNL     1       1.929   5.892  19.435  0.00  0.00    +0.000 C 
ATOM     29  N   UNL     1       2.527   6.233  18.116  0.00  0.00    +0.000 NA
ATOM     30  C   UNL     1       1.946   7.546  17.714  0.00  0.00    +0.000 C 
ATOM     31  C   UNL     1       2.167   8.702  18.722  0.00  0.00    +0.000 C 
BRANCH  29  32
ATOM     32  C   UNL     1       3.997   6.267  18.164  0.00  0.00    +0.000 C 
ATOM     33  C   UNL     1       4.652   6.662  16.813  0.00  0.00    +0.000 C 
ATOM     34  C   UNL     1       5.650   5.521  16.556  0.00  0.00    +0.000 C 
ATOM     35  C   UNL     1       4.865   4.252  16.179  0.00  0.00    +0.000 C 
ATOM     36  C   UNL     1       4.268   3.804  17.518  0.00  0.00    +0.000 C 
ATOM     37  C   UNL     1       4.709   4.919  18.480  0.00  0.00    +0.000 C 
ATOM     38  C   UNL     1       6.127   5.200  17.969  0.00  0.00    +0.000 C 
ENDBRANCH  29  32
ENDBRANCH  23  26
ENDBRANCH   5  20
TORSDOF 4
ENDMDL
MODEL 2
REMARK VINA RESULT:      -8.1      2.728     11.695
REMARK  Name = 
REMARK  4 active torsions:
REMARK  status: ('A' for Active; 'I' for Inactive)
REMARK    1  A    between atoms: N_5  and  C_6
REMARK    2  A    between atoms: C_9  and  N_10
REMARK    3  A    between atoms: N_13  and  C_14
REMARK    4  A    between atoms: N_26  and  C_27
REMARK                            x       y       z     vdW  Elec       q    Type
REMARK                         _______ _______ _______ _____ _____    ______ ____
ROOT
ATOM      1  N   UNL     1       4.455   6.272  16.454  0.00  0.00    +0.000 N 
ATOM      2  C   UNL     1       3.723   6.990  17.333  0.00  0.00    +0.000 A 
ATOM      3  N   UNL     1       3.291   8.199  17.121  0.00  0.00    +0.000 NA
ATOM      4  C   UNL     1       2.553   8.471  18.227  0.00  0.00    +0.000 A 
ATOM      5  N   UNL     1       1.960   9.682  18.174  0.00  0.00    +0.000 N 
ATOM      6  N   UNL     1       2.496   7.480  19.135  0.00  0.00    +0.000 NA
ATOM      7  N   UNL     1       3.286   6.525  18.573  0.00  0.00    +0.000 N 
ATOM      8  H   UNL     1       4.340   6.494  15.472  0.00  0.00    +0.000 HD
ATOM      9  H   UNL     1       4.597   5.280  16.653  0.00  0.00    +0.000 HD
ATOM     10  H   UNL     1       2.165  10.177  17.314  0.00  0.00    +0.000 HD
ENDROOT
BRANCH   7  11
ATOM     11  C   UNL     1       3.607   5.247  19.130  0.00  0.00    +0.000 A 
ATOM     12  N   UNL     1       4.831   4.725  18.775  0.00  0.00    +0.000 NA
ATOM     13  C   UNL     1       5.247   3.573  19.297  0.00  0.00    +0.000 A 
ATOM     14  N   UNL     1       4.603   2.838  20.185  0.00  0.00    +0.000 NA
ATOM     15  C   UNL     1       3.343   3.255  20.446  0.00  0.00    +0.000 A 
ATOM     16  C   UNL     1       2.436   2.489  21.225  0.00  0.00    +0.000 A 
ATOM     17  C   UNL     1       1.153   2.963  21.113  0.00  0.00    +0.000 A 
ATOM     18  S   UNL     1       1.116   4.504  20.361  0.00  0.00    +0.000 S 
ATOM     19  C   UNL     1       2.783   4.432  19.922  0.00  0.00    +0.000 A 
ENDBRANCH   7  11
BRANCH   5  20
ATOM     20  C   UNL     1       0.839  10.199  18.834  0.00  0.00    +0.000 A 
ATOM     21  C   UNL     1       0.944  10.631  20.169  0.00  0.00    +0.000 A 
ATOM     22  C   UNL     1      -0.143  11.209  20.831  0.00  0.00    +0.000 A 
ATOM     23  C   UNL     1      -1.373  11.375  20.177  0.00  0.00    +0.000 A 
ATOM     24  C   UNL     1      -1.485  10.870  18.879  0.00  0.00    +0.000 A 
ATOM     25  C   UNL     1      -0.408  10.284  18.222  0.00  0.00    +0.000 A 
BRANCH  23  26
ATOM     26  N   UNL     1      -2.450  12.001  20.758  0.00  0.00    +0.000 N 
ATOM     27  C   UNL     1      -2.463  12.257  22.205  0.00  0.00    +0.000 C 
ATOM     28  C   UNL     1      -2.993  13.674  22.507  0.00  0.00    +0.000 C 
ATOM     29  N   UNL     1      -4.285  14.013  21.851  0.00  0.00    +0.000 NA
ATOM     30  C   UNL     1      -4.088  13.795  20.389  0.00  0.00    +0.000 C 
ATOM     31  C   UNL     1      -3.638  12.367  19.989  0.00  0.00    +0.000 C 
BRANCH  29  32
ATOM     32  C   UNL     1      -5.405  13.222  22.385  0.00  0.00    +0.000 C 
ATOM     33  C   UNL     1      -6.705  13.346  21.547  0.00  0.00    +0.000 C 
ATOM     34  C   UNL     1      -7.761  13.752  22.588  0.00  0.00    +0.000 C 
ATOM     35  C   UNL     1      -7.505  15.210  23.008  0.00  0.00    +0.000 C 
ATOM     36  C   UNL     1      -6.262  15.101  23.899  0.00  0.00    +0.000 C 
ATOM     37  C   UNL     1      -5.906  13.608  23.808  0.00  0.00    +0.000 C 
ATOM     38  C   UNL     1      -7.302  12.975  23.818  0.00  0.00    +0.000 C 
ENDBRANCH  29  32
ENDBRANCH  23  26
ENDBRANCH   5  20
TORSDOF 4
ENDMDL
MODEL 3
REMARK VINA RESULT:      -8.1      0.671      1.067
REMARK  Name = 
REMARK  4 active torsions:
REMARK  status: ('A' for Active; 'I' for Inactive)
REMARK    1  A    between atoms: N_5  and  C_6
REMARK    2  A    between atoms: C_9  and  N_10
REMARK    3  A    between atoms: N_13  and  C_14
REMARK    4  A    between atoms: N_26  and  C_27
REMARK                            x       y       z     vdW  Elec       q    Type
REMARK                         _______ _______ _______ _____ _____    ______ ____
ROOT
ATOM      1  N   UNL     1      -5.143  14.016  24.157  0.00  0.00    +0.000 N 
ATOM      2  C   UNL     1      -4.133  13.500  23.425  0.00  0.00    +0.000 A 
ATOM      3  N   UNL     1      -3.174  12.763  23.903  0.00  0.00    +0.000 NA
ATOM      4  C   UNL     1      -2.457  12.420  22.803  0.00  0.00    +0.000 A 
ATOM      5  N   UNL     1      -1.429  11.593  23.087  0.00  0.00    +0.000 N 
ATOM      6  N   UNL     1      -2.924  12.909  21.641  0.00  0.00    +0.000 NA
ATOM      7  N   UNL     1      -3.998  13.642  22.043  0.00  0.00    +0.000 N 
ATOM      8  H   UNL     1      -5.400  13.516  25.001  0.00  0.00    +0.000 HD
ATOM      9  H   UNL     1      -5.928  14.435  23.656  0.00  0.00    +0.000 HD
ATOM     10  H   UNL     1      -1.374  11.368  24.073  0.00  0.00    +0.000 HD
ENDROOT
BRANCH   7  11
ATOM     11  C   UNL     1      -4.867  14.414  21.209  0.00  0.00    +0.000 A 
ATOM     12  N   UNL     1      -4.812  15.778  21.381  0.00  0.00    +0.000 NA
ATOM     13  C   UNL     1      -5.533  16.583  20.603  0.00  0.00    +0.000 A 
ATOM     14  N   UNL     1      -6.322  16.212  19.611  0.00  0.00    +0.000 NA
ATOM     15  C   UNL     1      -6.499  14.876  19.509  0.00  0.00    +0.000 A 
ATOM     16  C   UNL     1      -7.456  14.302  18.629  0.00  0.00    +0.000 A 
ATOM     17  C   UNL     1      -7.657  12.972  18.905  0.00  0.00    +0.000 A 
ATOM     18  S   UNL     1      -6.461  12.363  19.973  0.00  0.00    +0.000 S 
ATOM     19  C   UNL     1      -5.824  13.932  20.302  0.00  0.00    +0.000 A 
ENDBRANCH   7  11
BRANCH   5  20
ATOM     20  C   UNL     1      -0.713  10.692  22.290  0.00  0.00    +0.000 A 
ATOM     21  C   UNL     1      -0.205  11.101  21.044  0.00  0.00    +0.000 A 
ATOM     22  C   UNL     1       0.567  10.240  20.259  0.00  0.00    +0.000 A 
ATOM     23  C   UNL     1       0.856   8.939  20.696  0.00  0.00    +0.000 A 
ATOM     24  C   UNL     1       0.279   8.521  21.897  0.00  0.00    +0.000 A 
ATOM     25  C   UNL     1      -0.498   9.372  22.676  0.00  0.00    +0.000 A 
BRANCH  23  26
ATOM     26  N   UNL     1       1.667   8.078  19.995  0.00  0.00    +0.000 N 
ATOM     27  C   UNL     1       2.052   6.786  20.580  0.00  0.00    +0.000 C 
ATOM     28  C   UNL     1       1.964   5.660  19.530  0.00  0.00    +0.000 C 
ATOM     29  N   UNL     1       2.663   5.942  18.247  0.00  0.00    +0.000 NA
ATOM     30  C   UNL     1       2.103   7.225  17.732  0.00  0.00    +0.000 C 
ATOM     31  C   UNL     1       2.231   8.434  18.694  0.00  0.00    +0.000 C 
BRANCH  29  32
ATOM     32  C   UNL     1       4.124   5.999  18.410  0.00  0.00    +0.000 C 
ATOM     33  C   UNL     1       4.874   6.441  17.125  0.00  0.00    +0.000 C 
ATOM     34  C   UNL     1       5.910   5.325  16.917  0.00  0.00    +0.000 C 
ATOM     35  C   UNL     1       5.180   4.054  16.447  0.00  0.00    +0.000 C 
ATOM     36  C   UNL     1       4.489   3.559  17.723  0.00  0.00    +0.000 C 
ATOM     37  C   UNL     1       4.834   4.655  18.746  0.00  0.00    +0.000 C 
ATOM     38  C   UNL     1       6.281   4.972  18.355  0.00  0.00    +0.000 C 
ENDBRANCH  29  32
ENDBRANCH  23  26
ENDBRANCH   5  20
TORSDOF 4
ENDMDL
MODEL 4
REMARK VINA RESULT:      -8.0      2.915     11.729
REMARK  Name = 
REMARK  4 active torsions:
REMARK  status: ('A' for Active; 'I' for Inactive)
REMARK    1  A    between atoms: N_5  and  C_6
REMARK    2  A    between atoms: C_9  and  N_10
REMARK    3  A    between atoms: N_13  and  C_14
REMARK    4  A    between atoms: N_26  and  C_27
REMARK                            x       y       z     vdW  Elec       q    Type
REMARK                         _______ _______ _______ _____ _____    ______ ____
ROOT
ATOM      1  N   UNL     1       4.850   5.923  16.404  0.00  0.00    +0.000 N 
ATOM      2  C   UNL     1       3.952   6.600  17.152  0.00  0.00    +0.000 A 
ATOM      3  N   UNL     1       3.766   7.887  17.100  0.00  0.00    +0.000 NA
ATOM      4  C   UNL     1       2.731   8.093  17.953  0.00  0.00    +0.000 A 
ATOM      5  N   UNL     1       2.342   9.385  17.999  0.00  0.00    +0.000 N 
ATOM      6  N   UNL     1       2.248   6.986  18.546  0.00  0.00    +0.000 NA
ATOM      7  N   UNL     1       3.062   6.014  18.053  0.00  0.00    +0.000 N 
ATOM      8  H   UNL     1       5.106   6.334  15.513  0.00  0.00    +0.000 HD
ATOM      9  H   UNL     1       4.795   4.904  16.403  0.00  0.00    +0.000 HD
ATOM     10  H   UNL     1       2.888   9.976  17.384  0.00  0.00    +0.000 HD
ENDROOT
BRANCH   7  11
ATOM     11  C   UNL     1       3.018   4.620  18.371  0.00  0.00    +0.000 A 
ATOM     12  N   UNL     1       3.218   3.754  17.320  0.00  0.00    +0.000 NA
ATOM     13  C   UNL     1       3.263   2.440  17.531  0.00  0.00    +0.000 A 
ATOM     14  N   UNL     1       3.158   1.830  18.697  0.00  0.00    +0.000 NA
ATOM     15  C   UNL     1       2.825   2.645  19.724  0.00  0.00    +0.000 A 
ATOM     16  C   UNL     1       2.483   2.144  21.009  0.00  0.00    +0.000 A 
ATOM     17  C   UNL     1       1.909   3.117  21.790  0.00  0.00    +0.000 A 
ATOM     18  S   UNL     1       2.105   4.675  21.099  0.00  0.00    +0.000 S 
ATOM     19  C   UNL     1       2.709   4.040  19.612  0.00  0.00    +0.000 A 
ENDBRANCH   7  11
BRANCH   5  20
ATOM     20  C   UNL     1       1.133   9.979  18.379  0.00  0.00    +0.000 A 
ATOM     21  C   UNL     1       1.106  10.909  19.435  0.00  0.00    +0.000 A 
ATOM     22  C   UNL     1      -0.076  11.564  19.792  0.00  0.00    +0.000 A 
ATOM     23  C   UNL     1      -1.272  11.310  19.104  0.00  0.00    +0.000 A 
ATOM     24  C   UNL     1      -1.246  10.327  18.111  0.00  0.00    +0.000 A 
ATOM     25  C   UNL     1      -0.073   9.666  17.760  0.00  0.00    +0.000 A 
BRANCH  23  26
ATOM     26  N   UNL     1      -2.444  11.977  19.369  0.00  0.00    +0.000 N 
ATOM     27  C   UNL     1      -3.591  11.846  18.460  0.00  0.00    +0.000 C 
ATOM     28  C   UNL     1      -4.903  11.674  19.252  0.00  0.00    +0.000 C 
ATOM     29  N   UNL     1      -5.128  12.686  20.319  0.00  0.00    +0.000 NA
ATOM     30  C   UNL     1      -3.933  12.636  21.209  0.00  0.00    +0.000 C 
ATOM     31  C   UNL     1      -2.575  12.887  20.506  0.00  0.00    +0.000 C 
BRANCH  29  32
ATOM     32  C   UNL     1      -5.357  14.032  19.771  0.00  0.00    +0.000 C 
ATOM     33  C   UNL     1      -5.406  15.142  20.855  0.00  0.00    +0.000 C 
ATOM     34  C   UNL     1      -6.739  15.853  20.575  0.00  0.00    +0.000 C 
ATOM     35  C   UNL     1      -7.892  14.929  21.004  0.00  0.00    +0.000 C 
ATOM     36  C   UNL     1      -7.909  13.861  19.903  0.00  0.00    +0.000 C 
ATOM     37  C   UNL     1      -6.707  14.254  19.028  0.00  0.00    +0.000 C 
ATOM     38  C   UNL     1      -6.817  15.782  19.053  0.00  0.00    +0.000 C 
ENDBRANCH  29  32
ENDBRANCH  23  26
ENDBRANCH   5  20
TORSDOF 4
ENDMDL
MODEL 5
REMARK VINA RESULT:      -7.7      1.907      3.105
REMARK  Name = 
REMARK  4 active torsions:
REMARK  status: ('A' for Active; 'I' for Inactive)
REMARK    1  A    between atoms: N_5  and  C_6
REMARK    2  A    between atoms: C_9  and  N_10
REMARK    3  A    between atoms: N_13  and  C_14
REMARK    4  A    between atoms: N_26  and  C_27
REMARK                            x       y       z     vdW  Elec       q    Type
REMARK                         _______ _______ _______ _____ _____    ______ ____
ROOT
ATOM      1  N   UNL     1      -2.844  15.567  21.985  0.00  0.00    +0.000 N 
ATOM      2  C   UNL     1      -2.412  14.449  21.363  0.00  0.00    +0.000 A 
ATOM      3  N   UNL     1      -1.282  14.345  20.727  0.00  0.00    +0.000 NA
ATOM      4  C   UNL     1      -1.248  13.043  20.348  0.00  0.00    +0.000 A 
ATOM      5  N   UNL     1      -0.105  12.714  19.710  0.00  0.00    +0.000 N 
ATOM      6  N   UNL     1      -2.313  12.311  20.720  0.00  0.00    +0.000 NA
ATOM      7  N   UNL     1      -3.091  13.230  21.353  0.00  0.00    +0.000 N 
ATOM      8  H   UNL     1      -2.134  16.211  22.314  0.00  0.00    +0.000 HD
ATOM      9  H   UNL     1      -3.661  15.487  22.591  0.00  0.00    +0.000 HD
ATOM     10  H   UNL     1       0.533  13.498  19.629  0.00  0.00    +0.000 HD
ENDROOT
BRANCH   7  11
ATOM     11  C   UNL     1      -4.378  13.003  21.936  0.00  0.00    +0.000 A 
ATOM     12  N   UNL     1      -4.454  13.145  23.303  0.00  0.00    +0.000 NA
ATOM     13  C   UNL     1      -5.624  13.022  23.928  0.00  0.00    +0.000 A 
ATOM     14  N   UNL     1      -6.794  12.791  23.360  0.00  0.00    +0.000 NA
ATOM     15  C   UNL     1      -6.727  12.513  22.038  0.00  0.00    +0.000 A 
ATOM     16  C   UNL     1      -7.852  12.056  21.302  0.00  0.00    +0.000 A 
ATOM     17  C   UNL     1      -7.483  11.569  20.072  0.00  0.00    +0.000 A 
ATOM     18  S   UNL     1      -5.862  11.982  19.694  0.00  0.00    +0.000 S 
ATOM     19  C   UNL     1      -5.543  12.572  21.283  0.00  0.00    +0.000 A 
ENDBRANCH   7  11
BRANCH   5  20
ATOM     20  C   UNL     1       0.533  11.483  19.517  0.00  0.00    +0.000 A 
ATOM     21  C   UNL     1       0.513  10.512  20.536  0.00  0.00    +0.000 A 
ATOM     22  C   UNL     1       1.087   9.252  20.345  0.00  0.00    +0.000 A 
ATOM     23  C   UNL     1       1.701   8.922  19.128  0.00  0.00    +0.000 A 
ATOM     24  C   UNL     1       1.783   9.922  18.156  0.00  0.00    +0.000 A 
ATOM     25  C   UNL     1       1.222  11.181  18.347  0.00  0.00    +0.000 A 
BRANCH  23  26
ATOM     26  N   UNL     1       2.217   7.675  18.865  0.00  0.00    +0.000 N 
ATOM     27  C   UNL     1       2.961   7.430  17.621  0.00  0.00    +0.000 C 
ATOM     28  C   UNL     1       4.223   6.586  17.892  0.00  0.00    +0.000 C 
ATOM     29  N   UNL     1       3.989   5.344  18.676  0.00  0.00    +0.000 NA
ATOM     30  C   UNL     1       3.319   5.761  19.942  0.00  0.00    +0.000 C 
ATOM     31  C   UNL     1       1.993   6.541  19.760  0.00  0.00    +0.000 C 
BRANCH  29  32
ATOM     32  C   UNL     1       3.198   4.354  17.928  0.00  0.00    +0.000 C 
ATOM     33  C   UNL     1       1.794   4.095  18.538  0.00  0.00    +0.000 C 
ATOM     34  C   UNL     1       1.756   2.568  18.705  0.00  0.00    +0.000 C 
ATOM     35  C   UNL     1       2.691   2.174  19.863  0.00  0.00    +0.000 C 
ATOM     36  C   UNL     1       4.087   2.353  19.256  0.00  0.00    +0.000 C 
ATOM     37  C   UNL     1       3.784   2.913  17.857  0.00  0.00    +0.000 C 
ATOM     38  C   UNL     1       2.540   2.100  17.482  0.00  0.00    +0.000 C 
ENDBRANCH  29  32
ENDBRANCH  23  26
ENDBRANCH   5  20
TORSDOF 4
ENDMDL
MODEL 6
REMARK VINA RESULT:      -7.7      2.137      3.267
REMARK  Name = 
REMARK  4 active torsions:
REMARK  status: ('A' for Active; 'I' for Inactive)
REMARK    1  A    between atoms: N_5  and  C_6
REMARK    2  A    between atoms: C_9  and  N_10
REMARK    3  A    between atoms: N_13  and  C_14
REMARK    4  A    between atoms: N_26  and  C_27
REMARK                            x       y       z     vdW  Elec       q    Type
REMARK                         _______ _______ _______ _____ _____    ______ ____
ROOT
ATOM      1  N   UNL     1      -3.557  15.389  21.539  0.00  0.00    +0.000 N 
ATOM      2  C   UNL     1      -2.973  14.352  20.903  0.00  0.00    +0.000 A 
ATOM      3  N   UNL     1      -1.709  14.285  20.603  0.00  0.00    +0.000 NA
ATOM      4  C   UNL     1      -1.576  13.050  20.055  0.00  0.00    +0.000 A 
ATOM      5  N   UNL     1      -0.301  12.761  19.723  0.00  0.00    +0.000 N 
ATOM      6  N   UNL     1      -2.708  12.326  19.997  0.00  0.00    +0.000 NA
ATOM      7  N   UNL     1      -3.629  13.182  20.517  0.00  0.00    +0.000 N 
ATOM      8  H   UNL     1      -2.967  15.944  22.149  0.00  0.00    +0.000 HD
ATOM      9  H   UNL     1      -4.515  15.264  21.872  0.00  0.00    +0.000 HD
ATOM     10  H   UNL     1       0.338  13.515  19.945  0.00  0.00    +0.000 HD
ENDROOT
BRANCH   7  11
ATOM     11  C   UNL     1      -5.030  12.938  20.672  0.00  0.00    +0.000 A 
ATOM     12  N   UNL     1      -5.777  12.955  19.516  0.00  0.00    +0.000 NA
ATOM     13  C   UNL     1      -7.078  12.671  19.552  0.00  0.00    +0.000 A 
ATOM     14  N   UNL     1      -7.775  12.331  20.620  0.00  0.00    +0.000 NA
ATOM     15  C   UNL     1      -7.099  12.440  21.786  0.00  0.00    +0.000 A 
ATOM     16  C   UNL     1      -7.735  12.301  23.049  0.00  0.00    +0.000 A 
ATOM     17  C   UNL     1      -6.925  12.733  24.069  0.00  0.00    +0.000 A 
ATOM     18  S   UNL     1      -5.312  12.970  23.535  0.00  0.00    +0.000 S 
ATOM     19  C   UNL     1      -5.736  12.771  21.874  0.00  0.00    +0.000 A 
ENDBRANCH   7  11
BRANCH   5  20
ATOM     20  C   UNL     1       0.357  11.540  19.533  0.00  0.00    +0.000 A 
ATOM     21  C   UNL     1       0.336  10.563  20.546  0.00  0.00    +0.000 A 
ATOM     22  C   UNL     1       0.930   9.312  20.357  0.00  0.00    +0.000 A 
ATOM     23  C   UNL     1       1.568   8.997  19.147  0.00  0.00    +0.000 A 
ATOM     24  C   UNL     1       1.650  10.005  18.183  0.00  0.00    +0.000 A 
ATOM     25  C   UNL     1       1.068  11.254  18.372  0.00  0.00    +0.000 A 
BRANCH  23  26
ATOM     26  N   UNL     1       2.106   7.760  18.886  0.00  0.00    +0.000 N 
ATOM     27  C   UNL     1       2.812   7.514  17.621  0.00  0.00    +0.000 C 
ATOM     28  C   UNL     1       4.103   6.705  17.861  0.00  0.00    +0.000 C 
ATOM     29  N   UNL     1       3.927   5.469  18.671  0.00  0.00    +0.000 NA
ATOM     30  C   UNL     1       3.290   5.890  19.952  0.00  0.00    +0.000 C 
ATOM     31  C   UNL     1       1.940   6.635  19.804  0.00  0.00    +0.000 C 
BRANCH  29  32
ATOM     32  C   UNL     1       3.136   4.449  17.965  0.00  0.00    +0.000 C 
ATOM     33  C   UNL     1       1.771   4.148  18.639  0.00  0.00    +0.000 C 
ATOM     34  C   UNL     1       1.791   2.621  18.816  0.00  0.00    +0.000 C 
ATOM     35  C   UNL     1       2.790   2.266  19.932  0.00  0.00    +0.000 C 
ATOM     36  C   UNL     1       4.151   2.488  19.261  0.00  0.00    +0.000 C 
ATOM     37  C   UNL     1       3.765   3.028  17.874  0.00  0.00    +0.000 C 
ATOM     38  C   UNL     1       2.534   2.172  17.561  0.00  0.00    +0.000 C 
ENDBRANCH  29  32
ENDBRANCH  23  26
ENDBRANCH   5  20
TORSDOF 4
ENDMDL
MODEL 7
REMARK VINA RESULT:      -7.7      2.941     11.637
REMARK  Name = 
REMARK  4 active torsions:
REMARK  status: ('A' for Active; 'I' for Inactive)
REMARK    1  A    between atoms: N_5  and  C_6
REMARK    2  A    between atoms: C_9  and  N_10
REMARK    3  A    between atoms: N_13  and  C_14
REMARK    4  A    between atoms: N_26  and  C_27
REMARK                            x       y       z     vdW  Elec       q    Type
REMARK                         _______ _______ _______ _____ _____    ______ ____
ROOT
ATOM      1  N   UNL     1       4.732   5.737  16.350  0.00  0.00    +0.000 N 
ATOM      2  C   UNL     1       3.873   6.460  17.100  0.00  0.00    +0.000 A 
ATOM      3  N   UNL     1       3.719   7.749  17.015  0.00  0.00    +0.000 NA
ATOM      4  C   UNL     1       2.714   8.008  17.888  0.00  0.00    +0.000 A 
ATOM      5  N   UNL     1       2.359   9.310  17.905  0.00  0.00    +0.000 N 
ATOM      6  N   UNL     1       2.218   6.932  18.526  0.00  0.00    +0.000 NA
ATOM      7  N   UNL     1       2.993   5.924  18.042  0.00  0.00    +0.000 N 
ATOM      8  H   UNL     1       4.974   6.114  15.441  0.00  0.00    +0.000 HD
ATOM      9  H   UNL     1       4.650   4.720  16.381  0.00  0.00    +0.000 HD
ATOM     10  H   UNL     1       2.904   9.868  17.258  0.00  0.00    +0.000 HD
ENDROOT
BRANCH   7  11
ATOM     11  C   UNL     1       2.921   4.542  18.403  0.00  0.00    +0.000 A 
ATOM     12  N   UNL     1       3.058   3.641  17.372  0.00  0.00    +0.000 NA
ATOM     13  C   UNL     1       3.074   2.332  17.620  0.00  0.00    +0.000 A 
ATOM     14  N   UNL     1       2.994   1.760  18.807  0.00  0.00    +0.000 NA
ATOM     15  C   UNL     1       2.722   2.613  19.820  0.00  0.00    +0.000 A 
ATOM     16  C   UNL     1       2.413   2.161  21.131  0.00  0.00    +0.000 A 
ATOM     17  C   UNL     1       1.897   3.172  21.903  0.00  0.00    +0.000 A 
ATOM     18  S   UNL     1       2.111   4.702  21.159  0.00  0.00    +0.000 S 
ATOM     19  C   UNL     1       2.642   4.008  19.671  0.00  0.00    +0.000 A 
ENDBRANCH   7  11
BRANCH   5  20
ATOM     20  C   UNL     1       1.177   9.948  18.299  0.00  0.00    +0.000 A 
ATOM     21  C   UNL     1      -0.050   9.579  17.717  0.00  0.00    +0.000 A 
ATOM     22  C   UNL     1      -1.252  10.155  18.138  0.00  0.00    +0.000 A 
ATOM     23  C   UNL     1      -1.266  11.121  19.155  0.00  0.00    +0.000 A 
ATOM     24  C   UNL     1      -0.033  11.534  19.667  0.00  0.00    +0.000 A 
ATOM     25  C   UNL     1       1.165  10.970  19.243  0.00  0.00    +0.000 A 
BRANCH  23  26
ATOM     26  N   UNL     1      -2.426  11.666  19.653  0.00  0.00    +0.000 N 
ATOM     27  C   UNL     1      -2.416  12.372  20.941  0.00  0.00    +0.000 C 
ATOM     28  C   UNL     1      -3.248  13.669  20.864  0.00  0.00    +0.000 C 
ATOM     29  N   UNL     1      -4.619  13.502  20.309  0.00  0.00    +0.000 NA
ATOM     30  C   UNL     1      -4.460  12.865  18.971  0.00  0.00    +0.000 C 
ATOM     31  C   UNL     1      -3.709  11.509  18.970  0.00  0.00    +0.000 C 
BRANCH  29  32
ATOM     32  C   UNL     1      -5.487  12.716  21.200  0.00  0.00    +0.000 C 
ATOM     33  C   UNL     1      -6.849  12.336  20.558  0.00  0.00    +0.000 C 
ATOM     34  C   UNL     1      -7.877  12.834  21.586  0.00  0.00    +0.000 C 
ATOM     35  C   UNL     1      -7.915  14.372  21.542  0.00  0.00    +0.000 C 
ATOM     36  C   UNL     1      -6.608  14.771  22.238  0.00  0.00    +0.000 C 
ATOM     37  C   UNL     1      -5.940  13.414  22.515  0.00  0.00    +0.000 C 
ATOM     38  C   UNL     1      -7.156  12.566  22.904  0.00  0.00    +0.000 C 
ENDBRANCH  29  32
ENDBRANCH  23  26
ENDBRANCH   5  20
TORSDOF 4
ENDMDL
MODEL 8
REMARK VINA RESULT:      -7.7      2.268      2.898
REMARK  Name = 
REMARK  4 active torsions:
REMARK  status: ('A' for Active; 'I' for Inactive)
REMARK    1  A    between atoms: N_5  and  C_6
REMARK    2  A    between atoms: C_9  and  N_10
REMARK    3  A    between atoms: N_13  and  C_14
REMARK    4  A    between atoms: N_26  and  C_27
REMARK                            x       y       z     vdW  Elec       q    Type
REMARK                         _______ _______ _______ _____ _____    ______ ____
ROOT
ATOM      1  N   UNL     1      -5.090  13.611  23.948  0.00  0.00    +0.000 N 
ATOM      2  C   UNL     1      -3.919  13.165  23.445  0.00  0.00    +0.000 A 
ATOM      3  N   UNL     1      -3.330  12.063  23.808  0.00  0.00    +0.000 NA
ATOM      4  C   UNL     1      -2.249  11.996  22.990  0.00  0.00    +0.000 A 
ATOM      5  N   UNL     1      -1.524  10.872  23.173  0.00  0.00    +0.000 N 
ATOM      6  N   UNL     1      -2.127  13.013  22.117  0.00  0.00    +0.000 NA
ATOM      7  N   UNL     1      -3.194  13.796  22.433  0.00  0.00    +0.000 N 
ATOM      8  H   UNL     1      -5.728  12.913  24.312  0.00  0.00    +0.000 HD
ATOM      9  H   UNL     1      -5.542  14.396  23.475  0.00  0.00    +0.000 HD
ATOM     10  H   UNL     1      -1.917  10.271  23.888  0.00  0.00    +0.000 HD
ENDROOT
BRANCH   7  11
ATOM     11  C   UNL     1      -3.546  15.044  21.828  0.00  0.00    +0.000 A 
ATOM     12  N   UNL     1      -4.716  15.053  21.102  0.00  0.00    +0.000 NA
ATOM     13  C   UNL     1      -5.161  16.186  20.560  0.00  0.00    +0.000 A 
ATOM     14  N   UNL     1      -4.598  17.376  20.660  0.00  0.00    +0.000 NA
ATOM     15  C   UNL     1      -3.382  17.369  21.251  0.00  0.00    +0.000 A 
ATOM     16  C   UNL     1      -2.545  18.518  21.278  0.00  0.00    +0.000 A 
ATOM     17  C   UNL     1      -1.267  18.198  21.664  0.00  0.00    +0.000 A 
ATOM     18  S   UNL     1      -1.183  16.611  22.309  0.00  0.00    +0.000 S 
ATOM     19  C   UNL     1      -2.793  16.229  21.822  0.00  0.00    +0.000 A 
ENDBRANCH   7  11
BRANCH   5  20
ATOM     20  C   UNL     1      -0.628  10.197  22.337  0.00  0.00    +0.000 A 
ATOM     21  C   UNL     1       0.428   9.449  22.893  0.00  0.00    +0.000 A 
ATOM     22  C   UNL     1       1.298   8.714  22.083  0.00  0.00    +0.000 A 
ATOM     23  C   UNL     1       1.141   8.703  20.689  0.00  0.00    +0.000 A 
ATOM     24  C   UNL     1       0.139   9.512  20.148  0.00  0.00    +0.000 A 
ATOM     25  C   UNL     1      -0.722  10.253  20.950  0.00  0.00    +0.000 A 
BRANCH  23  26
ATOM     26  N   UNL     1       1.925   7.942  19.855  0.00  0.00    +0.000 N 
ATOM     27  C   UNL     1       2.410   6.626  20.294  0.00  0.00    +0.000 C 
ATOM     28  C   UNL     1       2.280   5.587  19.161  0.00  0.00    +0.000 C 
ATOM     29  N   UNL     1       2.857   6.007  17.856  0.00  0.00    +0.000 NA
ATOM     30  C   UNL     1       2.204   7.299  17.500  0.00  0.00    +0.000 C 
ATOM     31  C   UNL     1       2.363   8.429  18.548  0.00  0.00    +0.000 C 
BRANCH  29  32
ATOM     32  C   UNL     1       4.323   6.119  17.906  0.00  0.00    +0.000 C 
ATOM     33  C   UNL     1       4.938   6.765  16.636  0.00  0.00    +0.000 C 
ATOM     34  C   UNL     1       5.998   5.743  16.195  0.00  0.00    +0.000 C 
ATOM     35  C   UNL     1       5.284   4.507  15.619  0.00  0.00    +0.000 C 
ATOM     36  C   UNL     1       4.729   3.814  16.868  0.00  0.00    +0.000 C 
ATOM     37  C   UNL     1       5.116   4.782  17.998  0.00  0.00    +0.000 C 
ATOM     38  C   UNL     1       6.509   5.225  17.537  0.00  0.00    +0.000 C 
ENDBRANCH  29  32
ENDBRANCH  23  26
ENDBRANCH   5  20
TORSDOF 4
ENDMDL
MODEL 9
REMARK VINA RESULT:      -7.6      4.410     11.780
REMARK  Name = 
REMARK  4 active torsions:
REMARK  status: ('A' for Active; 'I' for Inactive)
REMARK    1  A    between atoms: N_5  and  C_6
REMARK    2  A    between atoms: C_9  and  N_10
REMARK    3  A    between atoms: N_13  and  C_14
REMARK    4  A    between atoms: N_26  and  C_27
REMARK                            x       y       z     vdW  Elec       q    Type
REMARK                         _______ _______ _______ _____ _____    ______ ____
ROOT
ATOM      1  N   UNL     1       4.573   3.123  20.340  0.00  0.00    +0.000 N 
ATOM      2  C   UNL     1       3.993   4.280  19.955  0.00  0.00    +0.000 A 
ATOM      3  N   UNL     1       2.911   4.775  20.480  0.00  0.00    +0.000 NA
ATOM      4  C   UNL     1       2.761   5.962  19.838  0.00  0.00    +0.000 A 
ATOM      5  N   UNL     1       1.704   6.670  20.290  0.00  0.00    +0.000 N 
ATOM      6  N   UNL     1       3.708   6.242  18.924  0.00  0.00    +0.000 NA
ATOM      7  N   UNL     1       4.495   5.134  18.972  0.00  0.00    +0.000 N 
ATOM      8  H   UNL     1       4.417   2.828  21.297  0.00  0.00    +0.000 HD
ATOM      9  H   UNL     1       5.505   2.914  19.977  0.00  0.00    +0.000 HD
ATOM     10  H   UNL     1       1.209   6.193  21.035  0.00  0.00    +0.000 HD
ENDROOT
BRANCH   7  11
ATOM     11  C   UNL     1       5.656   4.876  18.177  0.00  0.00    +0.000 A 
ATOM     12  N   UNL     1       6.865   4.952  18.831  0.00  0.00    +0.000 NA
ATOM     13  C   UNL     1       7.996   4.661  18.191  0.00  0.00    +0.000 A 
ATOM     14  N   UNL     1       8.104   4.260  16.937  0.00  0.00    +0.000 NA
ATOM     15  C   UNL     1       6.950   4.309  16.234  0.00  0.00    +0.000 A 
ATOM     16  C   UNL     1       6.908   4.098  14.830  0.00  0.00    +0.000 A 
ATOM     17  C   UNL     1       5.699   4.478  14.302  0.00  0.00    +0.000 A 
ATOM     18  S   UNL     1       4.534   4.751  15.531  0.00  0.00    +0.000 S 
ATOM     19  C   UNL     1       5.705   4.640  16.794  0.00  0.00    +0.000 A 
ENDBRANCH   7  11
BRANCH   5  20
ATOM     20  C   UNL     1       1.411   8.037  20.240  0.00  0.00    +0.000 A 
ATOM     21  C   UNL     1       1.072   8.729  21.418  0.00  0.00    +0.000 A 
ATOM     22  C   UNL     1       0.837  10.106  21.406  0.00  0.00    +0.000 A 
ATOM     23  C   UNL     1       0.933  10.839  20.214  0.00  0.00    +0.000 A 
ATOM     24  C   UNL     1       1.192  10.126  19.040  0.00  0.00    +0.000 A 
ATOM     25  C   UNL     1       1.416   8.753  19.048  0.00  0.00    +0.000 A 
BRANCH  23  26
ATOM     26  N   UNL     1       0.780  12.204  20.160  0.00  0.00    +0.000 N 
ATOM     27  C   UNL     1      -0.450  12.789  19.610  0.00  0.00    +0.000 C 
ATOM     28  C   UNL     1      -0.937  13.965  20.481  0.00  0.00    +0.000 C 
ATOM     29  N   UNL     1       0.099  14.988  20.789  0.00  0.00    +0.000 NA
ATOM     30  C   UNL     1       1.236  14.262  21.424  0.00  0.00    +0.000 C 
ATOM     31  C   UNL     1       1.844  13.117  20.575  0.00  0.00    +0.000 C 
BRANCH  29  32
ATOM     32  C   UNL     1       0.515  15.736  19.592  0.00  0.00    +0.000 C 
ATOM     33  C   UNL     1       1.570  16.836  19.887  0.00  0.00    +0.000 C 
ATOM     34  C   UNL     1       0.944  18.100  19.275  0.00  0.00    +0.000 C 
ATOM     35  C   UNL     1      -0.240  18.541  20.155  0.00  0.00    +0.000 C 
ATOM     36  C   UNL     1      -1.321  17.506  19.824  0.00  0.00    +0.000 C 
ATOM     37  C   UNL     1      -0.596  16.548  18.864  0.00  0.00    +0.000 C 
ATOM     38  C   UNL     1       0.240  17.536  18.045  0.00  0.00    +0.000 C 
ENDBRANCH  29  32
ENDBRANCH  23  26
ENDBRANCH   5  20
TORSDOF 4
ENDMDL
