MODEL 1
REMARK VINA RESULT:      -6.1      0.000      0.000
REMARK  Name = 
REMARK  6 active torsions:
REMARK  status: ('A' for Active; 'I' for Inactive)
REMARK    1  A    between atoms: C_7  and  S_8
REMARK    2  A    between atoms: S_8  and  C_9
REMARK    3  A    between atoms: C_9  and  C_10
REMARK    4  A    between atoms: C_10  and  C_11
REMARK    5  A    between atoms: C_11  and  C_12
REMARK    6  A    between atoms: C_12  and  N_13
REMARK                            x       y       z     vdW  Elec       q    Type
REMARK                         _______ _______ _______ _____ _____    ______ ____
ROOT
ATOM      1 CL   UNL     1       8.205   7.764  18.278  0.00  0.00    +0.000 Cl
ATOM      2  C   UNL     1       6.918   6.689  17.887  0.00  0.00    +0.000 A 
ATOM      3  C   UNL     1       6.159   6.922  16.745  0.00  0.00    +0.000 A 
ATOM      4  C   UNL     1       5.108   6.066  16.406  0.00  0.00    +0.000 A 
ATOM      5  C   UNL     1       4.846   4.970  17.248  0.00  0.00    +0.000 A 
ATOM      6  S   UNL     1       3.636   3.760  17.095  0.00  0.00    +0.000 S 
ATOM      7  C   UNL     1       4.192   3.017  18.537  0.00  0.00    +0.000 A 
ATOM      8  N   UNL     1       5.212   3.595  19.126  0.00  0.00    +0.000 NA
ATOM      9  C   UNL     1       5.598   4.718  18.399  0.00  0.00    +0.000 A 
ATOM     10  C   UNL     1       6.654   5.596  18.720  0.00  0.00    +0.000 A 
ENDROOT
BRANCH   7  11
ATOM     11  S   UNL     1       3.413   1.572  19.149  0.00  0.00    +0.000 S 
BRANCH  11  12
ATOM     12  C   UNL     1       1.769   2.173  19.627  0.00  0.00    +0.000 C 
BRANCH  12  13
ATOM     13  C   UNL     1       1.933   3.274  20.681  0.00  0.00    +0.000 C 
BRANCH  13  14
ATOM     14  C   UNL     1       1.455   4.635  20.166  0.00  0.00    +0.000 C 
BRANCH  14  15
ATOM     15  C   UNL     1       2.446   5.748  20.521  0.00  0.00    +0.000 C 
BRANCH  15  16
ATOM     16  N   UNL     1       2.132   7.000  19.861  0.00  0.00    +0.000 N 
ATOM     17  C   UNL     1       2.443   7.335  18.573  0.00  0.00    +0.000 A 
ATOM     18  C   UNL     1       1.970   8.617  18.418  0.00  0.00    +0.000 A 
ATOM     19  N   UNL     1       1.392   9.065  19.575  0.00  0.00    +0.000 NA
ATOM     20  C   UNL     1       1.508   8.073  20.429  0.00  0.00    +0.000 A 
ENDBRANCH  15  16
ENDBRANCH  14  15
ENDBRANCH  13  14
ENDBRANCH  12  13
ENDBRANCH  11  12
ENDBRANCH   7  11
TORSDOF 6
ENDMDL
MODEL 2
REMARK VINA RESULT:      -6.0      0.945      1.172
REMARK  Name = 
REMARK  6 active torsions:
REMARK  status: ('A' for Active; 'I' for Inactive)
REMARK    1  A    between atoms: C_7  and  S_8
REMARK    2  A    between atoms: S_8  and  C_9
REMARK    3  A    between atoms: C_9  and  C_10
REMARK    4  A    between atoms: C_10  and  C_11
REMARK    5  A    between atoms: C_11  and  C_12
REMARK    6  A    between atoms: C_12  and  N_13
REMARK                            x       y       z     vdW  Elec       q    Type
REMARK                         _______ _______ _______ _____ _____    ______ ____
ROOT
ATOM      1 CL   UNL     1       8.526   8.234  18.356  0.00  0.00    +0.000 Cl
ATOM      2  C   UNL     1       7.443   6.986  17.872  0.00  0.00    +0.000 A 
ATOM      3  C   UNL     1       7.059   6.897  16.538  0.00  0.00    +0.000 A 
ATOM      4  C   UNL     1       6.180   5.895  16.119  0.00  0.00    +0.000 A 
ATOM      5  C   UNL     1       5.702   4.987  17.081  0.00  0.00    +0.000 A 
ATOM      6  S   UNL     1       4.623   3.666  16.872  0.00  0.00    +0.000 S 
ATOM      7  C   UNL     1       4.735   3.305  18.544  0.00  0.00    +0.000 A 
ATOM      8  N   UNL     1       5.516   4.088  19.251  0.00  0.00    +0.000 NA
ATOM      9  C   UNL     1       6.076   5.059  18.426  0.00  0.00    +0.000 A 
ATOM     10  C   UNL     1       6.966   6.079  18.824  0.00  0.00    +0.000 A 
ENDROOT
BRANCH   7  11
ATOM     11  S   UNL     1       3.842   1.961  19.225  0.00  0.00    +0.000 S 
BRANCH  11  12
ATOM     12  C   UNL     1       2.116   2.426  18.913  0.00  0.00    +0.000 C 
BRANCH  12  13
ATOM     13  C   UNL     1       1.398   2.587  20.258  0.00  0.00    +0.000 C 
BRANCH  13  14
ATOM     14  C   UNL     1       0.945   4.031  20.495  0.00  0.00    +0.000 C 
BRANCH  14  15
ATOM     15  C   UNL     1       2.123   4.934  20.870  0.00  0.00    +0.000 C 
BRANCH  15  16
ATOM     16  N   UNL     1       2.132   6.174  20.119  0.00  0.00    +0.000 N 
ATOM     17  C   UNL     1       1.672   7.385  20.554  0.00  0.00    +0.000 A 
ATOM     18  C   UNL     1       1.864   8.237  19.492  0.00  0.00    +0.000 A 
ATOM     19  N   UNL     1       2.417   7.574  18.429  0.00  0.00    +0.000 NA
ATOM     20  C   UNL     1       2.562   6.331  18.833  0.00  0.00    +0.000 A 
ENDBRANCH  15  16
ENDBRANCH  14  15
ENDBRANCH  13  14
ENDBRANCH  12  13
ENDBRANCH  11  12
ENDBRANCH   7  11
TORSDOF 6
ENDMDL
MODEL 3
REMARK VINA RESULT:      -5.8      3.027      5.810
REMARK  Name = 
REMARK  6 active torsions:
REMARK  status: ('A' for Active; 'I' for Inactive)
REMARK    1  A    between atoms: C_7  and  S_8
REMARK    2  A    between atoms: S_8  and  C_9
REMARK    3  A    between atoms: C_9  and  C_10
REMARK    4  A    between atoms: C_10  and  C_11
REMARK    5  A    between atoms: C_11  and  C_12
REMARK    6  A    between atoms: C_12  and  N_13
REMARK                            x       y       z     vdW  Elec       q    Type
REMARK                         _______ _______ _______ _____ _____    ______ ____
ROOT
ATOM      1 CL   UNL     1      -0.834  11.343  19.945  0.00  0.00    +0.000 Cl
ATOM      2  C   UNL     1       0.230   9.993  19.860  0.00  0.00    +0.000 A 
ATOM      3  C   UNL     1       0.300   9.111  20.934  0.00  0.00    +0.000 A 
ATOM      4  C   UNL     1       1.157   8.008  20.891  0.00  0.00    +0.000 A 
ATOM      5  C   UNL     1       1.939   7.820  19.737  0.00  0.00    +0.000 A 
ATOM      6  S   UNL     1       3.071   6.573  19.396  0.00  0.00    +0.000 S 
ATOM      7  C   UNL     1       3.391   7.278  17.867  0.00  0.00    +0.000 A 
ATOM      8  N   UNL     1       2.720   8.369  17.583  0.00  0.00    +0.000 NA
ATOM      9  C   UNL     1       1.883   8.694  18.648  0.00  0.00    +0.000 A 
ATOM     10  C   UNL     1       1.010   9.799  18.714  0.00  0.00    +0.000 A 
ENDROOT
BRANCH   7  11
ATOM     11  S   UNL     1       4.555   6.549  16.778  0.00  0.00    +0.000 S 
BRANCH  11  12
ATOM     12  C   UNL     1       5.015   5.023  17.646  0.00  0.00    +0.000 C 
BRANCH  12  13
ATOM     13  C   UNL     1       4.561   3.823  16.807  0.00  0.00    +0.000 C 
BRANCH  13  14
ATOM     14  C   UNL     1       3.709   2.845  17.622  0.00  0.00    +0.000 C 
BRANCH  14  15
ATOM     15  C   UNL     1       4.110   2.850  19.100  0.00  0.00    +0.000 C 
BRANCH  15  16
ATOM     16  N   UNL     1       2.961   2.870  19.985  0.00  0.00    +0.000 N 
ATOM     17  C   UNL     1       1.666   3.109  19.622  0.00  0.00    +0.000 A 
ATOM     18  C   UNL     1       0.954   3.052  20.798  0.00  0.00    +0.000 A 
ATOM     19  N   UNL     1       1.783   2.795  21.856  0.00  0.00    +0.000 NA
ATOM     20  C   UNL     1       2.987   2.695  21.338  0.00  0.00    +0.000 A 
ENDBRANCH  15  16
ENDBRANCH  14  15
ENDBRANCH  13  14
ENDBRANCH  12  13
ENDBRANCH  11  12
ENDBRANCH   7  11
TORSDOF 6
ENDMDL
MODEL 4
REMARK VINA RESULT:      -5.7      4.802      6.917
REMARK  Name = 
REMARK  6 active torsions:
REMARK  status: ('A' for Active; 'I' for Inactive)
REMARK    1  A    between atoms: C_7  and  S_8
REMARK    2  A    between atoms: S_8  and  C_9
REMARK    3  A    between atoms: C_9  and  C_10
REMARK    4  A    between atoms: C_10  and  C_11
REMARK    5  A    between atoms: C_11  and  C_12
REMARK    6  A    between atoms: C_12  and  N_13
REMARK                            x       y       z     vdW  Elec       q    Type
REMARK                         _______ _______ _______ _____ _____    ______ ____
ROOT
ATOM      1 CL   UNL     1       1.227   2.584  21.544  0.00  0.00    +0.000 Cl
ATOM      2  C   UNL     1       2.057   3.666  20.493  0.00  0.00    +0.000 A 
ATOM      3  C   UNL     1       1.367   4.740  19.939  0.00  0.00    +0.000 A 
ATOM      4  C   UNL     1       2.016   5.632  19.081  0.00  0.00    +0.000 A 
ATOM      5  C   UNL     1       3.377   5.411  18.799  0.00  0.00    +0.000 A 
ATOM      6  S   UNL     1       4.430   6.323  17.794  0.00  0.00    +0.000 S 
ATOM      7  C   UNL     1       5.713   5.245  18.154  0.00  0.00    +0.000 A 
ATOM      8  N   UNL     1       5.424   4.257  18.968  0.00  0.00    +0.000 NA
ATOM      9  C   UNL     1       4.087   4.338  19.346  0.00  0.00    +0.000 A 
ATOM     10  C   UNL     1       3.410   3.453  20.210  0.00  0.00    +0.000 A 
ENDROOT
BRANCH   7  11
ATOM     11  S   UNL     1       7.301   5.488  17.453  0.00  0.00    +0.000 S 
BRANCH  11  12
ATOM     12  C   UNL     1       8.024   6.759  18.528  0.00  0.00    +0.000 C 
BRANCH  12  13
ATOM     13  C   UNL     1       7.958   8.110  17.807  0.00  0.00    +0.000 C 
BRANCH  13  14
ATOM     14  C   UNL     1       8.705   9.205  18.575  0.00  0.00    +0.000 C 
BRANCH  14  15
ATOM     15  C   UNL     1       8.291  10.602  18.104  0.00  0.00    +0.000 C 
BRANCH  15  16
ATOM     16  N   UNL     1       9.225  11.628  18.526  0.00  0.00    +0.000 N 
ATOM     17  C   UNL     1       9.705  12.650  17.756  0.00  0.00    +0.000 A 
ATOM     18  C   UNL     1      10.571  13.333  18.577  0.00  0.00    +0.000 A 
ATOM     19  N   UNL     1      10.632  12.749  19.814  0.00  0.00    +0.000 NA
ATOM     20  C   UNL     1       9.816  11.721  19.753  0.00  0.00    +0.000 A 
ENDBRANCH  15  16
ENDBRANCH  14  15
ENDBRANCH  13  14
ENDBRANCH  12  13
ENDBRANCH  11  12
ENDBRANCH   7  11
TORSDOF 6
ENDMDL
MODEL 5
REMARK VINA RESULT:      -5.6      3.565      4.884
REMARK  Name = 
REMARK  6 active torsions:
REMARK  status: ('A' for Active; 'I' for Inactive)
REMARK    1  A    between atoms: C_7  and  S_8
REMARK    2  A    between atoms: S_8  and  C_9
REMARK    3  A    between atoms: C_9  and  C_10
REMARK    4  A    between atoms: C_10  and  C_11
REMARK    5  A    between atoms: C_11  and  C_12
REMARK    6  A    between atoms: C_12  and  N_13
REMARK                            x       y       z     vdW  Elec       q    Type
REMARK                         _______ _______ _______ _____ _____    ______ ____
ROOT
ATOM      1 CL   UNL     1       5.679   2.447  11.293  0.00  0.00    +0.000 Cl
ATOM      2  C   UNL     1       6.093   3.421  12.651  0.00  0.00    +0.000 A 
ATOM      3  C   UNL     1       7.194   4.268  12.572  0.00  0.00    +0.000 A 
ATOM      4  C   UNL     1       7.553   5.068  13.660  0.00  0.00    +0.000 A 
ATOM      5  C   UNL     1       6.771   4.991  14.827  0.00  0.00    +0.000 A 
ATOM      6  S   UNL     1       6.961   5.840  16.308  0.00  0.00    +0.000 S 
ATOM      7  C   UNL     1       5.589   5.036  16.949  0.00  0.00    +0.000 A 
ATOM      8  N   UNL     1       4.993   4.185  16.147  0.00  0.00    +0.000 NA
ATOM      9  C   UNL     1       5.661   4.147  14.926  0.00  0.00    +0.000 A 
ATOM     10  C   UNL     1       5.318   3.350  13.814  0.00  0.00    +0.000 A 
ENDROOT
BRANCH   7  11
ATOM     11  S   UNL     1       5.050   5.365  18.584  0.00  0.00    +0.000 S 
BRANCH  11  12
ATOM     12  C   UNL     1       3.572   6.384  18.322  0.00  0.00    +0.000 C 
BRANCH  12  13
ATOM     13  C   UNL     1       2.345   5.613  18.823  0.00  0.00    +0.000 C 
BRANCH  13  14
ATOM     14  C   UNL     1       1.787   4.669  17.754  0.00  0.00    +0.000 C 
BRANCH  14  15
ATOM     15  C   UNL     1       2.056   3.203  18.106  0.00  0.00    +0.000 C 
BRANCH  15  16
ATOM     16  N   UNL     1       2.057   2.969  19.537  0.00  0.00    +0.000 N 
ATOM     17  C   UNL     1       3.150   2.697  20.311  0.00  0.00    +0.000 A 
ATOM     18  C   UNL     1       2.649   2.525  21.580  0.00  0.00    +0.000 A 
ATOM     19  N   UNL     1       1.288   2.677  21.591  0.00  0.00    +0.000 NA
ATOM     20  C   UNL     1       0.958   2.938  20.346  0.00  0.00    +0.000 A 
ENDBRANCH  15  16
ENDBRANCH  14  15
ENDBRANCH  13  14
ENDBRANCH  12  13
ENDBRANCH  11  12
ENDBRANCH   7  11
TORSDOF 6
ENDMDL
MODEL 6
REMARK VINA RESULT:      -5.6      2.012      2.409
REMARK  Name = 
REMARK  6 active torsions:
REMARK  status: ('A' for Active; 'I' for Inactive)
REMARK    1  A    between atoms: C_7  and  S_8
REMARK    2  A    between atoms: S_8  and  C_9
REMARK    3  A    between atoms: C_9  and  C_10
REMARK    4  A    between atoms: C_10  and  C_11
REMARK    5  A    between atoms: C_11  and  C_12
REMARK    6  A    between atoms: C_12  and  N_13
REMARK                            x       y       z     vdW  Elec       q    Type
REMARK                         _______ _______ _______ _____ _____    ______ ____
ROOT
ATOM      1 CL   UNL     1       7.207   4.752  13.284  0.00  0.00    +0.000 Cl
ATOM      2  C   UNL     1       6.693   4.669  14.925  0.00  0.00    +0.000 A 
ATOM      3  C   UNL     1       7.448   5.302  15.908  0.00  0.00    +0.000 A 
ATOM      4  C   UNL     1       7.055   5.249  17.247  0.00  0.00    +0.000 A 
ATOM      5  C   UNL     1       5.881   4.542  17.567  0.00  0.00    +0.000 A 
ATOM      6  S   UNL     1       5.154   4.303  19.105  0.00  0.00    +0.000 S 
ATOM      7  C   UNL     1       3.903   3.386  18.375  0.00  0.00    +0.000 A 
ATOM      8  N   UNL     1       3.978   3.244  17.072  0.00  0.00    +0.000 NA
ATOM      9  C   UNL     1       5.109   3.900  16.595  0.00  0.00    +0.000 A 
ATOM     10  C   UNL     1       5.526   3.970  15.249  0.00  0.00    +0.000 A 
ENDROOT
BRANCH   7  11
ATOM     11  S   UNL     1       2.620   2.698  19.350  0.00  0.00    +0.000 S 
BRANCH  11  12
ATOM     12  C   UNL     1       2.612   3.768  20.816  0.00  0.00    +0.000 C 
BRANCH  12  13
ATOM     13  C   UNL     1       1.447   4.758  20.698  0.00  0.00    +0.000 C 
BRANCH  13  14
ATOM     14  C   UNL     1       1.937   6.205  20.585  0.00  0.00    +0.000 C 
BRANCH  14  15
ATOM     15  C   UNL     1       2.165   6.607  19.125  0.00  0.00    +0.000 C 
BRANCH  15  16
ATOM     16  N   UNL     1       1.894   8.011  18.889  0.00  0.00    +0.000 N 
ATOM     17  C   UNL     1       2.345   8.755  17.834  0.00  0.00    +0.000 A 
ATOM     18  C   UNL     1       1.856  10.020  18.061  0.00  0.00    +0.000 A 
ATOM     19  N   UNL     1       1.133  10.062  19.222  0.00  0.00    +0.000 NA
ATOM     20  C   UNL     1       1.177   8.840  19.703  0.00  0.00    +0.000 A 
ENDBRANCH  15  16
ENDBRANCH  14  15
ENDBRANCH  13  14
ENDBRANCH  12  13
ENDBRANCH  11  12
ENDBRANCH   7  11
TORSDOF 6
ENDMDL
MODEL 7
REMARK VINA RESULT:      -5.6      3.103      5.894
REMARK  Name = 
REMARK  6 active torsions:
REMARK  status: ('A' for Active; 'I' for Inactive)
REMARK    1  A    between atoms: C_7  and  S_8
REMARK    2  A    between atoms: S_8  and  C_9
REMARK    3  A    between atoms: C_9  and  C_10
REMARK    4  A    between atoms: C_10  and  C_11
REMARK    5  A    between atoms: C_11  and  C_12
REMARK    6  A    between atoms: C_12  and  N_13
REMARK                            x       y       z     vdW  Elec       q    Type
REMARK                         _______ _______ _______ _____ _____    ______ ____
ROOT
ATOM      1 CL   UNL     1      -0.281   9.414  23.565  0.00  0.00    +0.000 Cl
ATOM      2  C   UNL     1       0.303   9.311  21.949  0.00  0.00    +0.000 A 
ATOM      3  C   UNL     1      -0.090  10.271  21.020  0.00  0.00    +0.000 A 
ATOM      4  C   UNL     1       0.368  10.210  19.702  0.00  0.00    +0.000 A 
ATOM      5  C   UNL     1       1.230   9.157  19.346  0.00  0.00    +0.000 A 
ATOM      6  S   UNL     1       1.947   8.821  17.822  0.00  0.00    +0.000 S 
ATOM      7  C   UNL     1       2.719   7.441  18.485  0.00  0.00    +0.000 A 
ATOM      8  N   UNL     1       2.490   7.208  19.756  0.00  0.00    +0.000 NA
ATOM      9  C   UNL     1       1.636   8.184  20.264  0.00  0.00    +0.000 A 
ATOM     10  C   UNL     1       1.162   8.267  21.590  0.00  0.00    +0.000 A 
ENDROOT
BRANCH   7  11
ATOM     11  S   UNL     1       3.745   6.431  17.486  0.00  0.00    +0.000 S 
BRANCH  11  12
ATOM     12  C   UNL     1       4.815   5.617  18.705  0.00  0.00    +0.000 C 
BRANCH  12  13
ATOM     13  C   UNL     1       5.354   4.316  18.098  0.00  0.00    +0.000 C 
BRANCH  13  14
ATOM     14  C   UNL     1       4.953   3.090  18.926  0.00  0.00    +0.000 C 
BRANCH  14  15
ATOM     15  C   UNL     1       3.570   2.572  18.525  0.00  0.00    +0.000 C 
BRANCH  15  16
ATOM     16  N   UNL     1       2.531   3.002  19.441  0.00  0.00    +0.000 N 
ATOM     17  C   UNL     1       1.445   3.769  19.127  0.00  0.00    +0.000 A 
ATOM     18  C   UNL     1       0.774   3.933  20.317  0.00  0.00    +0.000 A 
ATOM     19  N   UNL     1       1.428   3.295  21.336  0.00  0.00    +0.000 NA
ATOM     20  C   UNL     1       2.486   2.747  20.781  0.00  0.00    +0.000 A 
ENDBRANCH  15  16
ENDBRANCH  14  15
ENDBRANCH  13  14
ENDBRANCH  12  13
ENDBRANCH  11  12
ENDBRANCH   7  11
TORSDOF 6
ENDMDL
MODEL 8
REMARK VINA RESULT:      -5.5      2.560      4.369
REMARK  Name = 
REMARK  6 active torsions:
REMARK  status: ('A' for Active; 'I' for Inactive)
REMARK    1  A    between atoms: C_7  and  S_8
REMARK    2  A    between atoms: S_8  and  C_9
REMARK    3  A    between atoms: C_9  and  C_10
REMARK    4  A    between atoms: C_10  and  C_11
REMARK    5  A    between atoms: C_11  and  C_12
REMARK    6  A    between atoms: C_12  and  N_13
REMARK                            x       y       z     vdW  Elec       q    Type
REMARK                         _______ _______ _______ _____ _____    ______ ____
ROOT
ATOM      1 CL   UNL     1       7.050   4.788  13.339  0.00  0.00    +0.000 Cl
ATOM      2  C   UNL     1       6.586   4.930  14.992  0.00  0.00    +0.000 A 
ATOM      3  C   UNL     1       7.417   4.410  15.979  0.00  0.00    +0.000 A 
ATOM      4  C   UNL     1       7.064   4.509  17.327  0.00  0.00    +0.000 A 
ATOM      5  C   UNL     1       5.853   5.147  17.651  0.00  0.00    +0.000 A 
ATOM      6  S   UNL     1       5.158   5.417  19.199  0.00  0.00    +0.000 S 
ATOM      7  C   UNL     1       3.818   6.195  18.466  0.00  0.00    +0.000 A 
ATOM      8  N   UNL     1       3.843   6.274  17.156  0.00  0.00    +0.000 NA
ATOM      9  C   UNL     1       5.004   5.676  16.674  0.00  0.00    +0.000 A 
ATOM     10  C   UNL     1       5.383   5.564  15.320  0.00  0.00    +0.000 A 
ENDROOT
BRANCH   7  11
ATOM     11  S   UNL     1       2.513   6.830  19.447  0.00  0.00    +0.000 S 
BRANCH  11  12
ATOM     12  C   UNL     1       2.185   5.473  20.607  0.00  0.00    +0.000 C 
BRANCH  12  13
ATOM     13  C   UNL     1       0.746   4.986  20.402  0.00  0.00    +0.000 C 
BRANCH  13  14
ATOM     14  C   UNL     1       0.674   3.463  20.252  0.00  0.00    +0.000 C 
BRANCH  14  15
ATOM     15  C   UNL     1       1.749   2.766  21.089  0.00  0.00    +0.000 C 
BRANCH  15  16
ATOM     16  N   UNL     1       2.888   2.350  20.292  0.00  0.00    +0.000 N 
ATOM     17  C   UNL     1       2.877   2.061  18.957  0.00  0.00    +0.000 A 
ATOM     18  C   UNL     1       4.170   1.692  18.666  0.00  0.00    +0.000 A 
ATOM     19  N   UNL     1       4.954   1.743  19.786  0.00  0.00    +0.000 NA
ATOM     20  C   UNL     1       4.155   2.136  20.753  0.00  0.00    +0.000 A 
ENDBRANCH  15  16
ENDBRANCH  14  15
ENDBRANCH  13  14
ENDBRANCH  12  13
ENDBRANCH  11  12
ENDBRANCH   7  11
TORSDOF 6
ENDMDL
MODEL 9
REMARK VINA RESULT:      -5.5      2.887      3.989
REMARK  Name = 
REMARK  6 active torsions:
REMARK  status: ('A' for Active; 'I' for Inactive)
REMARK    1  A    between atoms: C_7  and  S_8
REMARK    2  A    between atoms: S_8  and  C_9
REMARK    3  A    between atoms: C_9  and  C_10
REMARK    4  A    between atoms: C_10  and  C_11
REMARK    5  A    between atoms: C_11  and  C_12
REMARK    6  A    between atoms: C_12  and  N_13
REMARK                            x       y       z     vdW  Elec       q    Type
REMARK                         _______ _______ _______ _____ _____    ______ ____
ROOT
ATOM      1 CL   UNL     1       6.250   3.667  13.152  0.00  0.00    +0.000 Cl
ATOM      2  C   UNL     1       6.100   4.119  14.807  0.00  0.00    +0.000 A 
ATOM      3  C   UNL     1       7.249   4.342  15.559  0.00  0.00    +0.000 A 
ATOM      4  C   UNL     1       7.156   4.708  16.905  0.00  0.00    +0.000 A 
ATOM      5  C   UNL     1       5.874   4.843  17.468  0.00  0.00    +0.000 A 
ATOM      6  S   UNL     1       5.444   5.274  19.075  0.00  0.00    +0.000 S 
ATOM      7  C   UNL     1       3.784   5.137  18.672  0.00  0.00    +0.000 A 
ATOM      8  N   UNL     1       3.518   4.797  17.432  0.00  0.00    +0.000 NA
ATOM      9  C   UNL     1       4.708   4.624  16.729  0.00  0.00    +0.000 A 
ATOM     10  C   UNL     1       4.828   4.257  15.373  0.00  0.00    +0.000 A 
ENDROOT
BRANCH   7  11
ATOM     11  S   UNL     1       2.549   5.441  19.877  0.00  0.00    +0.000 S 
BRANCH  11  12
ATOM     12  C   UNL     1       2.260   7.225  19.715  0.00  0.00    +0.000 C 
BRANCH  12  13
ATOM     13  C   UNL     1       2.650   7.661  18.298  0.00  0.00    +0.000 C 
BRANCH  13  14
ATOM     14  C   UNL     1       1.644   8.656  17.709  0.00  0.00    +0.000 C 
BRANCH  14  15
ATOM     15  C   UNL     1       1.901  10.078  18.214  0.00  0.00    +0.000 C 
BRANCH  15  16
ATOM     16  N   UNL     1       0.702  10.706  18.734  0.00  0.00    +0.000 N 
ATOM     17  C   UNL     1      -0.585  10.311  18.497  0.00  0.00    +0.000 A 
ATOM     18  C   UNL     1      -1.363  11.222  19.173  0.00  0.00    +0.000 A 
ATOM     19  N   UNL     1      -0.584  12.156  19.801  0.00  0.00    +0.000 NA
ATOM     20  C   UNL     1       0.655  11.824  19.515  0.00  0.00    +0.000 A 
ENDBRANCH  15  16
ENDBRANCH  14  15
ENDBRANCH  13  14
ENDBRANCH  12  13
ENDBRANCH  11  12
ENDBRANCH   7  11
TORSDOF 6
ENDMDL
