MODEL 1
REMARK VINA RESULT:      -6.8      0.000      0.000
REMARK  Name = 
REMARK  3 active torsions:
REMARK  status: ('A' for Active; 'I' for Inactive)
REMARK    1  A    between atoms: C_2  and  C_3
REMARK    2  A    between atoms: C_2  and  C_12
REMARK    3  A    between atoms: C_4  and  C_5
REMARK                            x       y       z     vdW  Elec       q    Type
REMARK                         _______ _______ _______ _____ _____    ______ ____
ROOT
ATOM      1  C   UNL     1       6.044   4.764  16.772  0.00  0.00    +0.000 C 
ATOM      2  C   UNL     1       4.795   5.185  17.017  0.00  0.00    +0.000 C 
ENDROOT
BRANCH   2   3
ATOM      3  C   UNL     1       4.036   4.602  18.123  0.00  0.00    +0.000 A 
ATOM      4  C   UNL     1       3.913   3.210  18.222  0.00  0.00    +0.000 A 
ATOM      5  C   UNL     1       3.150   2.639  19.243  0.00  0.00    +0.000 A 
ATOM      6  C   UNL     1       2.508   3.461  20.167  0.00  0.00    +0.000 A 
ATOM      7 BR   UNL     1       1.467   2.689  21.544  0.00  0.00    +0.000 Br
ATOM      8  C   UNL     1       2.623   4.848  20.079  0.00  0.00    +0.000 A 
ATOM      9  C   UNL     1       3.385   5.418  19.055  0.00  0.00    +0.000 A 
ENDBRANCH   2   3
BRANCH   1  11
ATOM     10  O   UNL     1       7.661   6.292  15.954  0.00  0.00    +0.000 OA
ATOM     11  C   UNL     1       6.897   5.360  15.702  0.00  0.00    +0.000 C 
BRANCH  11  12
ATOM     12  C   UNL     1       6.797   4.781  14.371  0.00  0.00    +0.000 A 
ATOM     13  C   UNL     1       5.991   3.769  13.871  0.00  0.00    +0.000 A 
ATOM     14  C   UNL     1       6.291   3.596  12.502  0.00  0.00    +0.000 A 
ATOM     15  C   UNL     1       7.277   4.499  12.185  0.00  0.00    +0.000 A 
ATOM     16  N   UNL     1       7.578   5.210  13.319  0.00  0.00    +0.000 N 
ATOM     17  H   UNL     1       8.273   5.942  13.391  0.00  0.00    +0.000 HD
ENDBRANCH  11  12
ENDBRANCH   1  11
TORSDOF 3
ENDMDL
MODEL 2
REMARK VINA RESULT:      -6.7      0.710      1.547
REMARK  Name = 
REMARK  3 active torsions:
REMARK  status: ('A' for Active; 'I' for Inactive)
REMARK    1  A    between atoms: C_2  and  C_3
REMARK    2  A    between atoms: C_2  and  C_12
REMARK    3  A    between atoms: C_4  and  C_5
REMARK                            x       y       z     vdW  Elec       q    Type
REMARK                         _______ _______ _______ _____ _____    ______ ____
ROOT
ATOM      1  C   UNL     1       5.905   4.559  16.427  0.00  0.00    +0.000 C 
ATOM      2  C   UNL     1       5.039   5.313  17.119  0.00  0.00    +0.000 C 
ENDROOT
BRANCH   2   3
ATOM      3  C   UNL     1       4.176   4.690  18.124  0.00  0.00    +0.000 A 
ATOM      4  C   UNL     1       3.595   5.481  19.124  0.00  0.00    +0.000 A 
ATOM      5  C   UNL     1       2.810   4.896  20.119  0.00  0.00    +0.000 A 
ATOM      6  C   UNL     1       2.606   3.517  20.116  0.00  0.00    +0.000 A 
ATOM      7 BR   UNL     1       1.552   2.722  21.470  0.00  0.00    +0.000 Br
ATOM      8  C   UNL     1       3.179   2.720  19.127  0.00  0.00    +0.000 A 
ATOM      9  C   UNL     1       3.967   3.307  18.131  0.00  0.00    +0.000 A 
ENDBRANCH   2   3
BRANCH   1  11
ATOM     10  O   UNL     1       7.645   6.027  15.765  0.00  0.00    +0.000 OA
ATOM     11  C   UNL     1       6.859   5.139  15.435  0.00  0.00    +0.000 C 
BRANCH  11  12
ATOM     12  C   UNL     1       6.828   4.596  14.086  0.00  0.00    +0.000 A 
ATOM     13  C   UNL     1       7.512   4.959  12.936  0.00  0.00    +0.000 A 
ATOM     14  C   UNL     1       7.115   4.099  11.889  0.00  0.00    +0.000 A 
ATOM     15  C   UNL     1       6.191   3.225  12.411  0.00  0.00    +0.000 A 
ATOM     16  N   UNL     1       6.022   3.533  13.737  0.00  0.00    +0.000 N 
ATOM     17  H   UNL     1       5.397   3.061  14.379  0.00  0.00    +0.000 HD
ENDBRANCH  11  12
ENDBRANCH   1  11
TORSDOF 3
ENDMDL
MODEL 3
REMARK VINA RESULT:      -6.7      1.316      1.525
REMARK  Name = 
REMARK  3 active torsions:
REMARK  status: ('A' for Active; 'I' for Inactive)
REMARK    1  A    between atoms: C_2  and  C_3
REMARK    2  A    between atoms: C_2  and  C_12
REMARK    3  A    between atoms: C_4  and  C_5
REMARK                            x       y       z     vdW  Elec       q    Type
REMARK                         _______ _______ _______ _____ _____    ______ ____
ROOT
ATOM      1  C   UNL     1       5.689   4.033  15.762  0.00  0.00    +0.000 C 
ATOM      2  C   UNL     1       4.770   4.855  16.289  0.00  0.00    +0.000 C 
ENDROOT
BRANCH   2   3
ATOM      3  C   UNL     1       4.109   4.497  17.544  0.00  0.00    +0.000 A 
ATOM      4  C   UNL     1       4.784   3.703  18.480  0.00  0.00    +0.000 A 
ATOM      5  C   UNL     1       4.150   3.310  19.660  0.00  0.00    +0.000 A 
ATOM      6  C   UNL     1       2.838   3.710  19.905  0.00  0.00    +0.000 A 
ATOM      7 BR   UNL     1       1.974   3.170  21.498  0.00  0.00    +0.000 Br
ATOM      8  C   UNL     1       2.155   4.500  18.981  0.00  0.00    +0.000 A 
ATOM      9  C   UNL     1       2.792   4.891  17.798  0.00  0.00    +0.000 A 
ENDBRANCH   2   3
BRANCH   1  11
ATOM     10  O   UNL     1       7.393   5.154  14.555  0.00  0.00    +0.000 OA
ATOM     11  C   UNL     1       6.447   4.367  14.520  0.00  0.00    +0.000 C 
BRANCH  11  12
ATOM     12  C   UNL     1       6.032   3.711  13.290  0.00  0.00    +0.000 A 
ATOM     13  C   UNL     1       4.821   3.712  12.615  0.00  0.00    +0.000 A 
ATOM     14  C   UNL     1       4.952   2.910  11.460  0.00  0.00    +0.000 A 
ATOM     15  C   UNL     1       6.239   2.426  11.447  0.00  0.00    +0.000 A 
ATOM     16  N   UNL     1       6.884   2.913  12.556  0.00  0.00    +0.000 N 
ATOM     17  H   UNL     1       7.844   2.721  12.814  0.00  0.00    +0.000 HD
ENDBRANCH  11  12
ENDBRANCH   1  11
TORSDOF 3
ENDMDL
MODEL 4
REMARK VINA RESULT:      -6.7      1.435      1.739
REMARK  Name = 
REMARK  3 active torsions:
REMARK  status: ('A' for Active; 'I' for Inactive)
REMARK    1  A    between atoms: C_2  and  C_3
REMARK    2  A    between atoms: C_2  and  C_12
REMARK    3  A    between atoms: C_4  and  C_5
REMARK                            x       y       z     vdW  Elec       q    Type
REMARK                         _______ _______ _______ _____ _____    ______ ____
ROOT
ATOM      1  C   UNL     1       5.796   3.954  15.761  0.00  0.00    +0.000 C 
ATOM      2  C   UNL     1       4.549   4.346  16.062  0.00  0.00    +0.000 C 
ENDROOT
BRANCH   2   3
ATOM      3  C   UNL     1       3.967   3.984  17.355  0.00  0.00    +0.000 A 
ATOM      4  C   UNL     1       2.578   3.854  17.477  0.00  0.00    +0.000 A 
ATOM      5  C   UNL     1       2.002   3.559  18.715  0.00  0.00    +0.000 A 
ATOM      6  C   UNL     1       2.817   3.394  19.833  0.00  0.00    +0.000 A 
ATOM      7 BR   UNL     1       2.038   3.005  21.511  0.00  0.00    +0.000 Br
ATOM      8  C   UNL     1       4.201   3.521  19.725  0.00  0.00    +0.000 A 
ATOM      9  C   UNL     1       4.776   3.819  18.484  0.00  0.00    +0.000 A 
ENDBRANCH   2   3
BRANCH   1  11
ATOM     10  O   UNL     1       7.411   5.141  14.496  0.00  0.00    +0.000 OA
ATOM     11  C   UNL     1       6.474   4.343  14.489  0.00  0.00    +0.000 C 
BRANCH  11  12
ATOM     12  C   UNL     1       5.992   3.726  13.263  0.00  0.00    +0.000 A 
ATOM     13  C   UNL     1       4.776   3.824  12.605  0.00  0.00    +0.000 A 
ATOM     14  C   UNL     1       4.828   3.018  11.446  0.00  0.00    +0.000 A 
ATOM     15  C   UNL     1       6.073   2.435  11.414  0.00  0.00    +0.000 A 
ATOM     16  N   UNL     1       6.769   2.866  12.515  0.00  0.00    +0.000 N 
ATOM     17  H   UNL     1       7.714   2.598  12.760  0.00  0.00    +0.000 HD
ENDBRANCH  11  12
ENDBRANCH   1  11
TORSDOF 3
ENDMDL
MODEL 5
REMARK VINA RESULT:      -6.6      0.768      1.019
REMARK  Name = 
REMARK  3 active torsions:
REMARK  status: ('A' for Active; 'I' for Inactive)
REMARK    1  A    between atoms: C_2  and  C_3
REMARK    2  A    between atoms: C_2  and  C_12
REMARK    3  A    between atoms: C_4  and  C_5
REMARK                            x       y       z     vdW  Elec       q    Type
REMARK                         _______ _______ _______ _____ _____    ______ ____
ROOT
ATOM      1  C   UNL     1       6.018   4.535  16.308  0.00  0.00    +0.000 C 
ATOM      2  C   UNL     1       5.008   5.241  16.837  0.00  0.00    +0.000 C 
ENDROOT
BRANCH   2   3
ATOM      3  C   UNL     1       4.179   4.647  17.886  0.00  0.00    +0.000 A 
ATOM      4  C   UNL     1       3.921   3.270  17.869  0.00  0.00    +0.000 A 
ATOM      5  C   UNL     1       3.091   2.695  18.833  0.00  0.00    +0.000 A 
ATOM      6  C   UNL     1       2.517   3.498  19.817  0.00  0.00    +0.000 A 
ATOM      7 BR   UNL     1       1.384   2.722  21.117  0.00  0.00    +0.000 Br
ATOM      8  C   UNL     1       2.765   4.869  19.844  0.00  0.00    +0.000 A 
ATOM      9  C   UNL     1       3.595   5.444  18.876  0.00  0.00    +0.000 A 
ENDBRANCH   2   3
BRANCH   1  11
ATOM     10  O   UNL     1       7.730   6.001  15.576  0.00  0.00    +0.000 OA
ATOM     11  C   UNL     1       6.942   5.103  15.282  0.00  0.00    +0.000 C 
BRANCH  11  12
ATOM     12  C   UNL     1       6.879   4.536  13.943  0.00  0.00    +0.000 A 
ATOM     13  C   UNL     1       7.561   4.859  12.779  0.00  0.00    +0.000 A 
ATOM     14  C   UNL     1       7.127   3.991  11.753  0.00  0.00    +0.000 A 
ATOM     15  C   UNL     1       6.185   3.154  12.301  0.00  0.00    +0.000 A 
ATOM     16  N   UNL     1       6.040   3.490  13.624  0.00  0.00    +0.000 N 
ATOM     17  H   UNL     1       5.409   3.048  14.281  0.00  0.00    +0.000 HD
ENDBRANCH  11  12
ENDBRANCH   1  11
TORSDOF 3
ENDMDL
MODEL 6
REMARK VINA RESULT:      -6.6      1.649      2.145
REMARK  Name = 
REMARK  3 active torsions:
REMARK  status: ('A' for Active; 'I' for Inactive)
REMARK    1  A    between atoms: C_2  and  C_3
REMARK    2  A    between atoms: C_2  and  C_12
REMARK    3  A    between atoms: C_4  and  C_5
REMARK                            x       y       z     vdW  Elec       q    Type
REMARK                         _______ _______ _______ _____ _____    ______ ____
ROOT
ATOM      1  C   UNL     1       5.807   4.957  14.945  0.00  0.00    +0.000 C 
ATOM      2  C   UNL     1       5.308   3.968  15.701  0.00  0.00    +0.000 C 
ENDROOT
BRANCH   2   3
ATOM      3  C   UNL     1       4.518   4.292  16.889  0.00  0.00    +0.000 A 
ATOM      4  C   UNL     1       3.902   3.263  17.613  0.00  0.00    +0.000 A 
ATOM      5  C   UNL     1       3.103   3.558  18.719  0.00  0.00    +0.000 A 
ATOM      6  C   UNL     1       2.918   4.885  19.102  0.00  0.00    +0.000 A 
ATOM      7 BR   UNL     1       1.827   5.287  20.594  0.00  0.00    +0.000 Br
ATOM      8  C   UNL     1       3.524   5.918  18.390  0.00  0.00    +0.000 A 
ATOM      9  C   UNL     1       4.323   5.621  17.281  0.00  0.00    +0.000 A 
ENDBRANCH   2   3
BRANCH   1  11
ATOM     10  O   UNL     1       7.651   5.245  13.483  0.00  0.00    +0.000 OA
ATOM     11  C   UNL     1       6.567   4.697  13.686  0.00  0.00    +0.000 C 
BRANCH  11  12
ATOM     12  C   UNL     1       5.982   3.764  12.736  0.00  0.00    +0.000 A 
ATOM     13  C   UNL     1       4.740   3.743  12.119  0.00  0.00    +0.000 A 
ATOM     14  C   UNL     1       4.679   2.612  11.276  0.00  0.00    +0.000 A 
ATOM     15  C   UNL     1       5.881   1.955  11.392  0.00  0.00    +0.000 A 
ATOM     16  N   UNL     1       6.661   2.656  12.276  0.00  0.00    +0.000 N 
ATOM     17  H   UNL     1       7.600   2.407  12.564  0.00  0.00    +0.000 HD
ENDBRANCH  11  12
ENDBRANCH   1  11
TORSDOF 3
ENDMDL
MODEL 7
REMARK VINA RESULT:      -6.5      6.518      7.993
REMARK  Name = 
REMARK  3 active torsions:
REMARK  status: ('A' for Active; 'I' for Inactive)
REMARK    1  A    between atoms: C_2  and  C_3
REMARK    2  A    between atoms: C_2  and  C_12
REMARK    3  A    between atoms: C_4  and  C_5
REMARK                            x       y       z     vdW  Elec       q    Type
REMARK                         _______ _______ _______ _____ _____    ______ ____
ROOT
ATOM      1  C   UNL     1       8.196   8.508  17.801  0.00  0.00    +0.000 C 
ATOM      2  C   UNL     1       8.808   9.218  18.760  0.00  0.00    +0.000 C 
ENDROOT
BRANCH   2   3
ATOM      3  C   UNL     1       9.163  10.616  18.514  0.00  0.00    +0.000 A 
ATOM      4  C   UNL     1      10.325  11.147  19.088  0.00  0.00    +0.000 A 
ATOM      5  C   UNL     1      10.652  12.492  18.905  0.00  0.00    +0.000 A 
ATOM      6  C   UNL     1       9.815  13.309  18.148  0.00  0.00    +0.000 A 
ATOM      7 BR   UNL     1      10.251  15.133  17.908  0.00  0.00    +0.000 Br
ATOM      8  C   UNL     1       8.655  12.793  17.573  0.00  0.00    +0.000 A 
ATOM      9  C   UNL     1       8.327  11.445  17.759  0.00  0.00    +0.000 A 
ENDBRANCH   2   3
BRANCH   1  11
ATOM     10  O   UNL     1       8.065   6.484  19.025  0.00  0.00    +0.000 OA
ATOM     11  C   UNL     1       7.749   7.099  18.007  0.00  0.00    +0.000 C 
BRANCH  11  12
ATOM     12  C   UNL     1       6.917   6.506  16.972  0.00  0.00    +0.000 A 
ATOM     13  C   UNL     1       5.565   6.639  16.695  0.00  0.00    +0.000 A 
ATOM     14  C   UNL     1       5.259   5.845  15.568  0.00  0.00    +0.000 A 
ATOM     15  C   UNL     1       6.426   5.234  15.174  0.00  0.00    +0.000 A 
ATOM     16  N   UNL     1       7.422   5.637  16.028  0.00  0.00    +0.000 N 
ATOM     17  H   UNL     1       8.391   5.345  15.987  0.00  0.00    +0.000 HD
ENDBRANCH  11  12
ENDBRANCH   1  11
TORSDOF 3
ENDMDL
MODEL 8
REMARK VINA RESULT:      -6.5      3.516      4.512
REMARK  Name = 
REMARK  3 active torsions:
REMARK  status: ('A' for Active; 'I' for Inactive)
REMARK    1  A    between atoms: C_2  and  C_3
REMARK    2  A    between atoms: C_2  and  C_12
REMARK    3  A    between atoms: C_4  and  C_5
REMARK                            x       y       z     vdW  Elec       q    Type
REMARK                         _______ _______ _______ _____ _____    ______ ____
ROOT
ATOM      1  C   UNL     1       4.394   5.650  19.023  0.00  0.00    +0.000 C 
ATOM      2  C   UNL     1       3.341   6.024  18.282  0.00  0.00    +0.000 C 
ENDROOT
BRANCH   2   3
ATOM      3  C   UNL     1       2.550   7.189  18.680  0.00  0.00    +0.000 A 
ATOM      4  C   UNL     1       2.308   8.211  17.753  0.00  0.00    +0.000 A 
ATOM      5  C   UNL     1       1.598   9.353  18.131  0.00  0.00    +0.000 A 
ATOM      6  C   UNL     1       1.131   9.474  19.438  0.00  0.00    +0.000 A 
ATOM      7 BR   UNL     1       0.179  11.025  19.954  0.00  0.00    +0.000 Br
ATOM      8  C   UNL     1       1.366   8.464  20.370  0.00  0.00    +0.000 A 
ATOM      9  C   UNL     1       2.079   7.322  19.990  0.00  0.00    +0.000 A 
ENDBRANCH   2   3
BRANCH   1  11
ATOM     10  O   UNL     1       5.503   3.596  19.430  0.00  0.00    +0.000 OA
ATOM     11  C   UNL     1       5.281   4.512  18.639  0.00  0.00    +0.000 C 
BRANCH  11  12
ATOM     12  C   UNL     1       5.843   4.529  17.297  0.00  0.00    +0.000 A 
ATOM     13  C   UNL     1       6.708   5.418  16.678  0.00  0.00    +0.000 A 
ATOM     14  C   UNL     1       6.944   4.967  15.360  0.00  0.00    +0.000 A 
ATOM     15  C   UNL     1       6.216   3.813  15.191  0.00  0.00    +0.000 A 
ATOM     16  N   UNL     1       5.553   3.556  16.364  0.00  0.00    +0.000 N 
ATOM     17  H   UNL     1       4.934   2.773  16.535  0.00  0.00    +0.000 HD
ENDBRANCH  11  12
ENDBRANCH   1  11
TORSDOF 3
ENDMDL
MODEL 9
REMARK VINA RESULT:      -6.5      2.503      3.063
REMARK  Name = 
REMARK  3 active torsions:
REMARK  status: ('A' for Active; 'I' for Inactive)
REMARK    1  A    between atoms: C_2  and  C_3
REMARK    2  A    between atoms: C_2  and  C_12
REMARK    3  A    between atoms: C_4  and  C_5
REMARK                            x       y       z     vdW  Elec       q    Type
REMARK                         _______ _______ _______ _____ _____    ______ ____
ROOT
ATOM      1  C   UNL     1       5.990   5.890  17.377  0.00  0.00    +0.000 C 
ATOM      2  C   UNL     1       4.735   5.509  17.655  0.00  0.00    +0.000 C 
ENDROOT
BRANCH   2   3
ATOM      3  C   UNL     1       3.780   6.483  18.183  0.00  0.00    +0.000 A 
ATOM      4  C   UNL     1       3.136   6.232  19.401  0.00  0.00    +0.000 A 
ATOM      5  C   UNL     1       2.185   7.127  19.895  0.00  0.00    +0.000 A 
ATOM      6  C   UNL     1       1.877   8.276  19.170  0.00  0.00    +0.000 A 
ATOM      7 BR   UNL     1       0.581   9.484  19.833  0.00  0.00    +0.000 Br
ATOM      8  C   UNL     1       2.510   8.537  17.956  0.00  0.00    +0.000 A 
ATOM      9  C   UNL     1       3.461   7.638  17.462  0.00  0.00    +0.000 A 
ENDBRANCH   2   3
BRANCH   1  11
ATOM     10  O   UNL     1       7.874   4.456  17.471  0.00  0.00    +0.000 OA
ATOM     11  C   UNL     1       6.995   4.965  16.776  0.00  0.00    +0.000 C 
BRANCH  11  12
ATOM     12  C   UNL     1       6.873   4.682  15.354  0.00  0.00    +0.000 A 
ATOM     13  C   UNL     1       6.053   3.804  14.662  0.00  0.00    +0.000 A 
ATOM     14  C   UNL     1       6.333   3.924  13.283  0.00  0.00    +0.000 A 
ATOM     15  C   UNL     1       7.323   4.869  13.151  0.00  0.00    +0.000 A 
ATOM     16  N   UNL     1       7.645   5.320  14.406  0.00  0.00    +0.000 N 
ATOM     17  H   UNL     1       8.347   6.017  14.622  0.00  0.00    +0.000 HD
ENDBRANCH  11  12
ENDBRANCH   1  11
TORSDOF 3
ENDMDL
