MODEL 1
REMARK VINA RESULT:      -7.0      0.000      0.000
REMARK  Name = 
REMARK  12 active torsions:
REMARK  status: ('A' for Active; 'I' for Inactive)
REMARK    1  A    between atoms: C_1  and  N_2
REMARK    2  A    between atoms: N_2  and  C_3
REMARK    3  A    between atoms: N_2  and  C_4
REMARK    4  A    between atoms: C_4  and  C_5
REMARK    5  A    between atoms: C_5  and  C_6
REMARK    6  A    between atoms: C_5  and  C_7
REMARK    7  A    between atoms: C_5  and  O_8
REMARK    8  A    between atoms: O_8  and  C_9
REMARK    9  A    between atoms: C_9  and  C_11
REMARK   10  A    between atoms: C_11  and  O_12
REMARK   11  A    between atoms: C_11  and  C_13
REMARK   12  A    between atoms: C_11  and  C_19
REMARK                            x       y       z     vdW  Elec       q    Type
REMARK                         _______ _______ _______ _____ _____    ______ ____
ROOT
ATOM      1  C   UNL     1       3.333   5.752  19.076  0.00  0.00    +0.000 C 
ENDROOT
BRANCH   1   2
ATOM      2  C   UNL     1       2.536   7.077  19.083  0.00  0.00    +0.000 A 
ATOM      3  C   UNL     1       1.959   7.572  20.277  0.00  0.00    +0.000 A 
ATOM      4  C   UNL     1       1.234   8.763  20.291  0.00  0.00    +0.000 A 
ATOM      5  C   UNL     1       1.068   9.492  19.117  0.00  0.00    +0.000 A 
ATOM      6  C   UNL     1       1.630   9.033  17.926  0.00  0.00    +0.000 A 
ATOM      7  C   UNL     1       2.357   7.837  17.904  0.00  0.00    +0.000 A 
ENDBRANCH   1   2
BRANCH   1   8
ATOM      8  C   UNL     1       2.606   4.617  19.837  0.00  0.00    +0.000 A 
ATOM      9  C   UNL     1       3.355   3.758  20.667  0.00  0.00    +0.000 A 
ATOM     10  C   UNL     1       2.748   2.704  21.360  0.00  0.00    +0.000 A 
ATOM     11  C   UNL     1       1.376   2.491  21.249  0.00  0.00    +0.000 A 
ATOM     12  C   UNL     1       0.606   3.342  20.458  0.00  0.00    +0.000 A 
ATOM     13  C   UNL     1       1.207   4.397  19.766  0.00  0.00    +0.000 A 
ENDBRANCH   1   8
BRANCH   1  14
ATOM     14  C   UNL     1       3.541   5.330  17.614  0.00  0.00    +0.000 C 
ATOM     15  O   UNL     1       2.751   4.539  17.126  0.00  0.00    +0.000 OA
BRANCH  14  16
ATOM     16  O   UNL     1       4.562   5.827  16.843  0.00  0.00    +0.000 OA
BRANCH  16  17
ATOM     17  C   UNL     1       5.678   5.112  16.384  0.00  0.00    +0.000 C 
ATOM     18  C   UNL     1       5.540   4.850  14.873  0.00  0.00    +0.000 C 
ATOM     19  C   UNL     1       5.700   3.737  17.092  0.00  0.00    +0.000 C 
BRANCH  17  20
ATOM     20  C   UNL     1       7.030   5.873  16.626  0.00  0.00    +0.000 C 
BRANCH  20  22
ATOM     21  C   UNL     1       7.875   6.015  18.946  0.00  0.00    +0.000 C 
ATOM     22  N   UNL     1       7.093   6.663  17.886  0.00  0.00    +0.000 NA
ATOM     23  C   UNL     1       7.663   7.992  17.604  0.00  0.00    +0.000 C 
ENDBRANCH  20  22
ENDBRANCH  17  20
ENDBRANCH  16  17
ENDBRANCH  14  16
ENDBRANCH   1  14
BRANCH   1  24
ATOM     24  O   UNL     1       4.581   5.923  19.711  0.00  0.00    +0.000 OA
ATOM     25  H   UNL     1       4.477   6.584  20.446  0.00  0.00    +0.000 HD
ENDBRANCH   1  24
TORSDOF 8
ENDMDL
MODEL 2
REMARK VINA RESULT:      -7.0      0.254      1.018
REMARK  Name = 
REMARK  12 active torsions:
REMARK  status: ('A' for Active; 'I' for Inactive)
REMARK    1  A    between atoms: C_1  and  N_2
REMARK    2  A    between atoms: N_2  and  C_3
REMARK    3  A    between atoms: N_2  and  C_4
REMARK    4  A    between atoms: C_4  and  C_5
REMARK    5  A    between atoms: C_5  and  C_6
REMARK    6  A    between atoms: C_5  and  C_7
REMARK    7  A    between atoms: C_5  and  O_8
REMARK    8  A    between atoms: O_8  and  C_9
REMARK    9  A    between atoms: C_9  and  C_11
REMARK   10  A    between atoms: C_11  and  O_12
REMARK   11  A    between atoms: C_11  and  C_13
REMARK   12  A    between atoms: C_11  and  C_19
REMARK                            x       y       z     vdW  Elec       q    Type
REMARK                         _______ _______ _______ _____ _____    ______ ____
ROOT
ATOM      1  C   UNL     1       3.268   5.801  19.082  0.00  0.00    +0.000 C 
ENDROOT
BRANCH   1   2
ATOM      2  C   UNL     1       2.500   7.143  19.081  0.00  0.00    +0.000 A 
ATOM      3  C   UNL     1       2.410   7.929  17.906  0.00  0.00    +0.000 A 
ATOM      4  C   UNL     1       1.724   9.143  17.898  0.00  0.00    +0.000 A 
ATOM      5  C   UNL     1       1.108   9.603  19.059  0.00  0.00    +0.000 A 
ATOM      6  C   UNL     1       1.174   8.848  20.230  0.00  0.00    +0.000 A 
ATOM      7  C   UNL     1       1.863   7.630  20.246  0.00  0.00    +0.000 A 
ENDBRANCH   1   2
BRANCH   1   8
ATOM      8  C   UNL     1       2.500   4.678  19.818  0.00  0.00    +0.000 A 
ATOM      9  C   UNL     1       3.020   4.169  21.027  0.00  0.00    +0.000 A 
ATOM     10  C   UNL     1       2.374   3.139  21.720  0.00  0.00    +0.000 A 
ATOM     11  C   UNL     1       1.187   2.601  21.229  0.00  0.00    +0.000 A 
ATOM     12  C   UNL     1       0.635   3.103  20.053  0.00  0.00    +0.000 A 
ATOM     13  C   UNL     1       1.275   4.133  19.357  0.00  0.00    +0.000 A 
ENDBRANCH   1   8
BRANCH   1  14
ATOM     14  C   UNL     1       3.498   5.384  17.621  0.00  0.00    +0.000 C 
ATOM     15  O   UNL     1       2.701   4.616  17.110  0.00  0.00    +0.000 OA
BRANCH  14  16
ATOM     16  O   UNL     1       4.548   5.862  16.877  0.00  0.00    +0.000 OA
BRANCH  16  17
ATOM     17  C   UNL     1       5.635   5.115  16.401  0.00  0.00    +0.000 C 
ATOM     18  C   UNL     1       5.494   4.906  14.882  0.00  0.00    +0.000 C 
ATOM     19  C   UNL     1       5.594   3.720  17.067  0.00  0.00    +0.000 C 
BRANCH  17  20
ATOM     20  C   UNL     1       7.016   5.810  16.672  0.00  0.00    +0.000 C 
BRANCH  20  22
ATOM     21  C   UNL     1       7.851   5.969  18.995  0.00  0.00    +0.000 C 
ATOM     22  N   UNL     1       7.084   6.615  17.923  0.00  0.00    +0.000 NA
ATOM     23  C   UNL     1       7.675   7.932  17.627  0.00  0.00    +0.000 C 
ENDBRANCH  20  22
ENDBRANCH  17  20
ENDBRANCH  16  17
ENDBRANCH  14  16
ENDBRANCH   1  14
BRANCH   1  24
ATOM     24  O   UNL     1       4.506   5.941  19.745  0.00  0.00    +0.000 OA
ATOM     25  H   UNL     1       5.133   6.430  19.150  0.00  0.00    +0.000 HD
ENDBRANCH   1  24
TORSDOF 8
ENDMDL
MODEL 3
REMARK VINA RESULT:      -6.8      0.457      1.429
REMARK  Name = 
REMARK  12 active torsions:
REMARK  status: ('A' for Active; 'I' for Inactive)
REMARK    1  A    between atoms: C_1  and  N_2
REMARK    2  A    between atoms: N_2  and  C_3
REMARK    3  A    between atoms: N_2  and  C_4
REMARK    4  A    between atoms: C_4  and  C_5
REMARK    5  A    between atoms: C_5  and  C_6
REMARK    6  A    between atoms: C_5  and  C_7
REMARK    7  A    between atoms: C_5  and  O_8
REMARK    8  A    between atoms: O_8  and  C_9
REMARK    9  A    between atoms: C_9  and  C_11
REMARK   10  A    between atoms: C_11  and  O_12
REMARK   11  A    between atoms: C_11  and  C_13
REMARK   12  A    between atoms: C_11  and  C_19
REMARK                            x       y       z     vdW  Elec       q    Type
REMARK                         _______ _______ _______ _____ _____    ______ ____
ROOT
ATOM      1  C   UNL     1       3.202   5.799  19.158  0.00  0.00    +0.000 C 
ENDROOT
BRANCH   1   2
ATOM      2  C   UNL     1       2.422   7.133  19.217  0.00  0.00    +0.000 A 
ATOM      3  C   UNL     1       2.300   7.956  18.071  0.00  0.00    +0.000 A 
ATOM      4  C   UNL     1       1.603   9.162  18.118  0.00  0.00    +0.000 A 
ATOM      5  C   UNL     1       1.008   9.579  19.306  0.00  0.00    +0.000 A 
ATOM      6  C   UNL     1       1.105   8.786  20.450  0.00  0.00    +0.000 A 
ATOM      7  C   UNL     1       1.805   7.575  20.411  0.00  0.00    +0.000 A 
ENDBRANCH   1   2
BRANCH   1   8
ATOM      8  C   UNL     1       2.497   4.663  19.939  0.00  0.00    +0.000 A 
ATOM      9  C   UNL     1       1.306   4.112  19.423  0.00  0.00    +0.000 A 
ATOM     10  C   UNL     1       0.620   3.098  20.101  0.00  0.00    +0.000 A 
ATOM     11  C   UNL     1       1.114   2.603  21.306  0.00  0.00    +0.000 A 
ATOM     12  C   UNL     1       2.303   3.109  21.825  0.00  0.00    +0.000 A 
ATOM     13  C   UNL     1       2.994   4.120  21.151  0.00  0.00    +0.000 A 
ENDBRANCH   1   8
BRANCH   1  14
ATOM     14  C   UNL     1       3.335   5.392  17.683  0.00  0.00    +0.000 C 
ATOM     15  O   UNL     1       2.381   4.858  17.145  0.00  0.00    +0.000 OA
BRANCH  14  16
ATOM     16  O   UNL     1       4.475   5.629  16.955  0.00  0.00    +0.000 OA
BRANCH  16  17
ATOM     17  C   UNL     1       5.438   4.677  16.590  0.00  0.00    +0.000 C 
ATOM     18  C   UNL     1       5.432   4.495  15.061  0.00  0.00    +0.000 C 
ATOM     19  C   UNL     1       5.045   3.320  17.220  0.00  0.00    +0.000 C 
BRANCH  17  20
ATOM     20  C   UNL     1       6.891   5.082  17.028  0.00  0.00    +0.000 C 
BRANCH  20  22
ATOM     21  C   UNL     1       7.838   5.765  19.208  0.00  0.00    +0.000 C 
ATOM     22  N   UNL     1       6.963   6.127  18.085  0.00  0.00    +0.000 NA
ATOM     23  C   UNL     1       7.431   7.393  17.492  0.00  0.00    +0.000 C 
ENDBRANCH  20  22
ENDBRANCH  17  20
ENDBRANCH  16  17
ENDBRANCH  14  16
ENDBRANCH   1  14
BRANCH   1  24
ATOM     24  O   UNL     1       4.480   5.948  19.736  0.00  0.00    +0.000 OA
ATOM     25  H   UNL     1       4.911   6.757  19.353  0.00  0.00    +0.000 HD
ENDBRANCH   1  24
TORSDOF 8
ENDMDL
MODEL 4
REMARK VINA RESULT:      -6.7      1.238      4.384
REMARK  Name = 
REMARK  12 active torsions:
REMARK  status: ('A' for Active; 'I' for Inactive)
REMARK    1  A    between atoms: C_1  and  N_2
REMARK    2  A    between atoms: N_2  and  C_3
REMARK    3  A    between atoms: N_2  and  C_4
REMARK    4  A    between atoms: C_4  and  C_5
REMARK    5  A    between atoms: C_5  and  C_6
REMARK    6  A    between atoms: C_5  and  C_7
REMARK    7  A    between atoms: C_5  and  O_8
REMARK    8  A    between atoms: O_8  and  C_9
REMARK    9  A    between atoms: C_9  and  C_11
REMARK   10  A    between atoms: C_11  and  O_12
REMARK   11  A    between atoms: C_11  and  C_13
REMARK   12  A    between atoms: C_11  and  C_19
REMARK                            x       y       z     vdW  Elec       q    Type
REMARK                         _______ _______ _______ _____ _____    ______ ____
ROOT
ATOM      1  C   UNL     1       3.274   5.136  18.556  0.00  0.00    +0.000 C 
ENDROOT
BRANCH   1   2
ATOM      2  C   UNL     1       2.553   4.202  19.555  0.00  0.00    +0.000 A 
ATOM      3  C   UNL     1       2.845   4.253  20.940  0.00  0.00    +0.000 A 
ATOM      4  C   UNL     1       2.204   3.411  21.846  0.00  0.00    +0.000 A 
ATOM      5  C   UNL     1       1.253   2.498  21.398  0.00  0.00    +0.000 A 
ATOM      6  C   UNL     1       0.939   2.428  20.041  0.00  0.00    +0.000 A 
ATOM      7  C   UNL     1       1.580   3.269  19.124  0.00  0.00    +0.000 A 
ENDBRANCH   1   2
BRANCH   1   8
ATOM      8  C   UNL     1       2.768   6.597  18.637  0.00  0.00    +0.000 A 
ATOM      9  C   UNL     1       2.182   7.054  19.836  0.00  0.00    +0.000 A 
ATOM     10  C   UNL     1       1.691   8.360  19.953  0.00  0.00    +0.000 A 
ATOM     11  C   UNL     1       1.783   9.242  18.880  0.00  0.00    +0.000 A 
ATOM     12  C   UNL     1       2.382   8.826  17.693  0.00  0.00    +0.000 A 
ATOM     13  C   UNL     1       2.877   7.525  17.571  0.00  0.00    +0.000 A 
ENDBRANCH   1   8
BRANCH   1  14
ATOM     14  C   UNL     1       4.776   5.102  18.873  0.00  0.00    +0.000 C 
ATOM     15  O   UNL     1       5.236   4.090  19.373  0.00  0.00    +0.000 OA
BRANCH  14  16
ATOM     16  O   UNL     1       5.611   6.156  18.592  0.00  0.00    +0.000 OA
BRANCH  16  17
ATOM     17  C   UNL     1       6.628   6.173  17.627  0.00  0.00    +0.000 C 
ATOM     18  C   UNL     1       7.710   5.140  17.997  0.00  0.00    +0.000 C 
ATOM     19  C   UNL     1       7.294   7.569  17.646  0.00  0.00    +0.000 C 
BRANCH  17  20
ATOM     20  C   UNL     1       6.105   5.837  16.185  0.00  0.00    +0.000 C 
BRANCH  20  22
ATOM     21  C   UNL     1       5.767   3.469  15.555  0.00  0.00    +0.000 C 
ATOM     22  N   UNL     1       6.688   4.612  15.572  0.00  0.00    +0.000 NA
ATOM     23  C   UNL     1       7.118   4.911  14.194  0.00  0.00    +0.000 C 
ENDBRANCH  20  22
ENDBRANCH  17  20
ENDBRANCH  16  17
ENDBRANCH  14  16
ENDBRANCH   1  14
BRANCH   1  24
ATOM     24  O   UNL     1       3.049   4.709  17.230  0.00  0.00    +0.000 OA
ATOM     25  H   UNL     1       3.796   5.032  16.660  0.00  0.00    +0.000 HD
ENDBRANCH   1  24
TORSDOF 8
ENDMDL
MODEL 5
REMARK VINA RESULT:      -6.6      1.175      2.190
REMARK  Name = 
REMARK  12 active torsions:
REMARK  status: ('A' for Active; 'I' for Inactive)
REMARK    1  A    between atoms: C_1  and  N_2
REMARK    2  A    between atoms: N_2  and  C_3
REMARK    3  A    between atoms: N_2  and  C_4
REMARK    4  A    between atoms: C_4  and  C_5
REMARK    5  A    between atoms: C_5  and  C_6
REMARK    6  A    between atoms: C_5  and  C_7
REMARK    7  A    between atoms: C_5  and  O_8
REMARK    8  A    between atoms: O_8  and  C_9
REMARK    9  A    between atoms: C_9  and  C_11
REMARK   10  A    between atoms: C_11  and  O_12
REMARK   11  A    between atoms: C_11  and  C_13
REMARK   12  A    between atoms: C_11  and  C_19
REMARK                            x       y       z     vdW  Elec       q    Type
REMARK                         _______ _______ _______ _____ _____    ______ ____
ROOT
ATOM      1  C   UNL     1       3.375   5.720  19.110  0.00  0.00    +0.000 C 
ENDROOT
BRANCH   1   2
ATOM      2  C   UNL     1       2.613   7.061  19.000  0.00  0.00    +0.000 A 
ATOM      3  C   UNL     1       1.933   7.605  20.117  0.00  0.00    +0.000 A 
ATOM      4  C   UNL     1       1.240   8.811  20.025  0.00  0.00    +0.000 A 
ATOM      5  C   UNL     1       1.208   9.507  18.820  0.00  0.00    +0.000 A 
ATOM      6  C   UNL     1       1.874   9.000  17.704  0.00  0.00    +0.000 A 
ATOM      7  C   UNL     1       2.570   7.789  17.788  0.00  0.00    +0.000 A 
ENDBRANCH   1   2
BRANCH   1   8
ATOM      8  C   UNL     1       2.427   4.515  19.324  0.00  0.00    +0.000 A 
ATOM      9  C   UNL     1       2.455   3.830  20.557  0.00  0.00    +0.000 A 
ATOM     10  C   UNL     1       1.633   2.722  20.793  0.00  0.00    +0.000 A 
ATOM     11  C   UNL     1       0.755   2.279  19.806  0.00  0.00    +0.000 A 
ATOM     12  C   UNL     1       0.685   2.953  18.589  0.00  0.00    +0.000 A 
ATOM     13  C   UNL     1       1.502   4.062  18.349  0.00  0.00    +0.000 A 
ENDBRANCH   1   8
BRANCH   1  14
ATOM     14  C   UNL     1       4.167   5.516  17.810  0.00  0.00    +0.000 C 
ATOM     15  O   UNL     1       3.822   4.619  17.060  0.00  0.00    +0.000 OA
BRANCH  14  16
ATOM     16  O   UNL     1       5.226   6.317  17.461  0.00  0.00    +0.000 OA
BRANCH  16  17
ATOM     17  C   UNL     1       6.577   5.943  17.439  0.00  0.00    +0.000 C 
ATOM     18  C   UNL     1       6.966   5.327  18.797  0.00  0.00    +0.000 C 
ATOM     19  C   UNL     1       7.432   7.217  17.246  0.00  0.00    +0.000 C 
BRANCH  17  20
ATOM     20  C   UNL     1       6.899   4.893  16.317  0.00  0.00    +0.000 C 
BRANCH  20  22
ATOM     21  C   UNL     1       7.610   5.402  14.003  0.00  0.00    +0.000 C 
ATOM     22  N   UNL     1       6.487   5.291  14.943  0.00  0.00    +0.000 NA
ATOM     23  C   UNL     1       5.511   4.317  14.423  0.00  0.00    +0.000 C 
ENDBRANCH  20  22
ENDBRANCH  17  20
ENDBRANCH  16  17
ENDBRANCH  14  16
ENDBRANCH   1  14
BRANCH   1  24
ATOM     24  O   UNL     1       4.252   5.739  20.214  0.00  0.00    +0.000 OA
ATOM     25  H   UNL     1       3.742   6.012  21.022  0.00  0.00    +0.000 HD
ENDBRANCH   1  24
TORSDOF 8
ENDMDL
MODEL 6
REMARK VINA RESULT:      -6.6      1.279      4.490
REMARK  Name = 
REMARK  12 active torsions:
REMARK  status: ('A' for Active; 'I' for Inactive)
REMARK    1  A    between atoms: C_1  and  N_2
REMARK    2  A    between atoms: N_2  and  C_3
REMARK    3  A    between atoms: N_2  and  C_4
REMARK    4  A    between atoms: C_4  and  C_5
REMARK    5  A    between atoms: C_5  and  C_6
REMARK    6  A    between atoms: C_5  and  C_7
REMARK    7  A    between atoms: C_5  and  O_8
REMARK    8  A    between atoms: O_8  and  C_9
REMARK    9  A    between atoms: C_9  and  C_11
REMARK   10  A    between atoms: C_11  and  O_12
REMARK   11  A    between atoms: C_11  and  C_13
REMARK   12  A    between atoms: C_11  and  C_19
REMARK                            x       y       z     vdW  Elec       q    Type
REMARK                         _______ _______ _______ _____ _____    ______ ____
ROOT
ATOM      1  C   UNL     1       3.300   5.113  18.588  0.00  0.00    +0.000 C 
ENDROOT
BRANCH   1   2
ATOM      2  C   UNL     1       2.601   4.156  19.582  0.00  0.00    +0.000 A 
ATOM      3  C   UNL     1       1.780   3.099  19.119  0.00  0.00    +0.000 A 
ATOM      4  C   UNL     1       1.143   2.235  20.008  0.00  0.00    +0.000 A 
ATOM      5  C   UNL     1       1.308   2.400  21.381  0.00  0.00    +0.000 A 
ATOM      6  C   UNL     1       2.116   3.428  21.867  0.00  0.00    +0.000 A 
ATOM      7  C   UNL     1       2.757   4.301  20.980  0.00  0.00    +0.000 A 
ENDBRANCH   1   2
BRANCH   1   8
ATOM      8  C   UNL     1       2.778   6.566  18.696  0.00  0.00    +0.000 A 
ATOM      9  C   UNL     1       2.910   7.426  17.587  0.00  0.00    +0.000 A 
ATOM     10  C   UNL     1       2.473   8.755  17.641  0.00  0.00    +0.000 A 
ATOM     11  C   UNL     1       1.883   9.251  18.800  0.00  0.00    +0.000 A 
ATOM     12  C   UNL     1       1.713   8.416  19.902  0.00  0.00    +0.000 A 
ATOM     13  C   UNL     1       2.146   7.088  19.853  0.00  0.00    +0.000 A 
ENDBRANCH   1   8
BRANCH   1  14
ATOM     14  C   UNL     1       4.806   5.092  18.889  0.00  0.00    +0.000 C 
ATOM     15  O   UNL     1       5.277   4.093  19.405  0.00  0.00    +0.000 OA
BRANCH  14  16
ATOM     16  O   UNL     1       5.633   6.143  18.576  0.00  0.00    +0.000 OA
BRANCH  16  17
ATOM     17  C   UNL     1       6.656   6.136  17.618  0.00  0.00    +0.000 C 
ATOM     18  C   UNL     1       7.705   5.069  17.988  0.00  0.00    +0.000 C 
ATOM     19  C   UNL     1       7.363   7.511  17.651  0.00  0.00    +0.000 C 
BRANCH  17  20
ATOM     20  C   UNL     1       6.133   5.825  16.171  0.00  0.00    +0.000 C 
BRANCH  20  22
ATOM     21  C   UNL     1       5.795   3.468  15.502  0.00  0.00    +0.000 C 
ATOM     22  N   UNL     1       6.716   4.611  15.536  0.00  0.00    +0.000 NA
ATOM     23  C   UNL     1       7.144   4.933  14.163  0.00  0.00    +0.000 C 
ENDBRANCH  20  22
ENDBRANCH  17  20
ENDBRANCH  16  17
ENDBRANCH  14  16
ENDBRANCH   1  14
BRANCH   1  24
ATOM     24  O   UNL     1       3.066   4.701  17.259  0.00  0.00    +0.000 OA
ATOM     25  H   UNL     1       3.796   5.053  16.684  0.00  0.00    +0.000 HD
ENDBRANCH   1  24
TORSDOF 8
ENDMDL
MODEL 7
REMARK VINA RESULT:      -6.6      1.217      2.574
REMARK  Name = 
REMARK  12 active torsions:
REMARK  status: ('A' for Active; 'I' for Inactive)
REMARK    1  A    between atoms: C_1  and  N_2
REMARK    2  A    between atoms: N_2  and  C_3
REMARK    3  A    between atoms: N_2  and  C_4
REMARK    4  A    between atoms: C_4  and  C_5
REMARK    5  A    between atoms: C_5  and  C_6
REMARK    6  A    between atoms: C_5  and  C_7
REMARK    7  A    between atoms: C_5  and  O_8
REMARK    8  A    between atoms: O_8  and  C_9
REMARK    9  A    between atoms: C_9  and  C_11
REMARK   10  A    between atoms: C_11  and  O_12
REMARK   11  A    between atoms: C_11  and  C_13
REMARK   12  A    between atoms: C_11  and  C_19
REMARK                            x       y       z     vdW  Elec       q    Type
REMARK                         _______ _______ _______ _____ _____    ______ ____
ROOT
ATOM      1  C   UNL     1       3.531   5.611  19.044  0.00  0.00    +0.000 C 
ENDROOT
BRANCH   1   2
ATOM      2  C   UNL     1       2.764   6.950  18.936  0.00  0.00    +0.000 A 
ATOM      3  C   UNL     1       2.771   7.696  17.733  0.00  0.00    +0.000 A 
ATOM      4  C   UNL     1       2.086   8.906  17.629  0.00  0.00    +0.000 A 
ATOM      5  C   UNL     1       1.376   9.402  18.718  0.00  0.00    +0.000 A 
ATOM      6  C   UNL     1       1.345   8.686  19.915  0.00  0.00    +0.000 A 
ATOM      7  C   UNL     1       2.032   7.472  20.028  0.00  0.00    +0.000 A 
ENDBRANCH   1   2
BRANCH   1   8
ATOM      8  C   UNL     1       2.595   4.411  19.323  0.00  0.00    +0.000 A 
ATOM      9  C   UNL     1       1.559   4.122  18.411  0.00  0.00    +0.000 A 
ATOM     10  C   UNL     1       0.673   3.060  18.628  0.00  0.00    +0.000 A 
ATOM     11  C   UNL     1       0.808   2.255  19.757  0.00  0.00    +0.000 A 
ATOM     12  C   UNL     1       1.840   2.499  20.661  0.00  0.00    +0.000 A 
ATOM     13  C   UNL     1       2.729   3.556  20.447  0.00  0.00    +0.000 A 
ENDBRANCH   1   8
BRANCH   1  14
ATOM     14  C   UNL     1       4.271   5.379  17.719  0.00  0.00    +0.000 C 
ATOM     15  O   UNL     1       3.906   4.457  17.010  0.00  0.00    +0.000 OA
BRANCH  14  16
ATOM     16  O   UNL     1       5.304   6.183  17.303  0.00  0.00    +0.000 OA
BRANCH  16  17
ATOM     17  C   UNL     1       6.664   5.843  17.287  0.00  0.00    +0.000 C 
ATOM     18  C   UNL     1       7.050   5.186  18.626  0.00  0.00    +0.000 C 
ATOM     19  C   UNL     1       7.490   7.143  17.154  0.00  0.00    +0.000 C 
BRANCH  17  20
ATOM     20  C   UNL     1       7.028   4.844  16.132  0.00  0.00    +0.000 C 
BRANCH  20  22
ATOM     21  C   UNL     1       7.693   5.352  13.805  0.00  0.00    +0.000 C 
ATOM     22  N   UNL     1       6.592   5.265  14.772  0.00  0.00    +0.000 NA
ATOM     23  C   UNL     1       5.576   4.323  14.270  0.00  0.00    +0.000 C 
ENDBRANCH  20  22
ENDBRANCH  17  20
ENDBRANCH  16  17
ENDBRANCH  14  16
ENDBRANCH   1  14
BRANCH   1  24
ATOM     24  O   UNL     1       4.453   5.655  20.112  0.00  0.00    +0.000 OA
ATOM     25  H   UNL     1       5.329   5.970  19.764  0.00  0.00    +0.000 HD
ENDBRANCH   1  24
TORSDOF 8
ENDMDL
MODEL 8
REMARK VINA RESULT:      -6.5      1.140      2.301
REMARK  Name = 
REMARK  12 active torsions:
REMARK  status: ('A' for Active; 'I' for Inactive)
REMARK    1  A    between atoms: C_1  and  N_2
REMARK    2  A    between atoms: N_2  and  C_3
REMARK    3  A    between atoms: N_2  and  C_4
REMARK    4  A    between atoms: C_4  and  C_5
REMARK    5  A    between atoms: C_5  and  C_6
REMARK    6  A    between atoms: C_5  and  C_7
REMARK    7  A    between atoms: C_5  and  O_8
REMARK    8  A    between atoms: O_8  and  C_9
REMARK    9  A    between atoms: C_9  and  C_11
REMARK   10  A    between atoms: C_11  and  O_12
REMARK   11  A    between atoms: C_11  and  C_13
REMARK   12  A    between atoms: C_11  and  C_19
REMARK                            x       y       z     vdW  Elec       q    Type
REMARK                         _______ _______ _______ _____ _____    ______ ____
ROOT
ATOM      1  C   UNL     1       3.303   5.768  19.118  0.00  0.00    +0.000 C 
ENDROOT
BRANCH   1   2
ATOM      2  C   UNL     1       2.501   7.090  19.158  0.00  0.00    +0.000 A 
ATOM      3  C   UNL     1       2.313   7.862  17.986  0.00  0.00    +0.000 A 
ATOM      4  C   UNL     1       1.596   9.058  18.014  0.00  0.00    +0.000 A 
ATOM      5  C   UNL     1       1.047   9.514  19.209  0.00  0.00    +0.000 A 
ATOM      6  C   UNL     1       1.210   8.772  20.379  0.00  0.00    +0.000 A 
ATOM      7  C   UNL     1       1.931   7.572  20.359  0.00  0.00    +0.000 A 
ENDBRANCH   1   2
BRANCH   1   8
ATOM      8  C   UNL     1       2.590   4.619  19.872  0.00  0.00    +0.000 A 
ATOM      9  C   UNL     1       3.347   3.778  20.713  0.00  0.00    +0.000 A 
ATOM     10  C   UNL     1       2.753   2.712  21.400  0.00  0.00    +0.000 A 
ATOM     11  C   UNL     1       1.388   2.470  21.272  0.00  0.00    +0.000 A 
ATOM     12  C   UNL     1       0.610   3.303  20.470  0.00  0.00    +0.000 A 
ATOM     13  C   UNL     1       1.197   4.369  19.784  0.00  0.00    +0.000 A 
ENDBRANCH   1   8
BRANCH   1  14
ATOM     14  C   UNL     1       3.489   5.370  17.647  0.00  0.00    +0.000 C 
ATOM     15  O   UNL     1       2.801   4.466  17.204  0.00  0.00    +0.000 OA
BRANCH  14  16
ATOM     16  O   UNL     1       4.380   6.008  16.820  0.00  0.00    +0.000 OA
BRANCH  16  17
ATOM     17  C   UNL     1       5.587   5.481  16.337  0.00  0.00    +0.000 C 
ATOM     18  C   UNL     1       5.764   4.039  16.849  0.00  0.00    +0.000 C 
ATOM     19  C   UNL     1       6.750   6.323  16.911  0.00  0.00    +0.000 C 
BRANCH  17  20
ATOM     20  C   UNL     1       5.655   5.454  14.769  0.00  0.00    +0.000 C 
BRANCH  20  22
ATOM     21  C   UNL     1       5.993   3.570  13.203  0.00  0.00    +0.000 C 
ATOM     22  N   UNL     1       6.605   4.461  14.195  0.00  0.00    +0.000 NA
ATOM     23  C   UNL     1       7.741   5.170  13.579  0.00  0.00    +0.000 C 
ENDBRANCH  20  22
ENDBRANCH  17  20
ENDBRANCH  16  17
ENDBRANCH  14  16
ENDBRANCH   1  14
BRANCH   1  24
ATOM     24  O   UNL     1       4.559   5.934  19.738  0.00  0.00    +0.000 OA
ATOM     25  H   UNL     1       4.461   5.757  20.710  0.00  0.00    +0.000 HD
ENDBRANCH   1  24
TORSDOF 8
ENDMDL
MODEL 9
REMARK VINA RESULT:      -6.5      2.020      6.414
REMARK  Name = 
REMARK  12 active torsions:
REMARK  status: ('A' for Active; 'I' for Inactive)
REMARK    1  A    between atoms: C_1  and  N_2
REMARK    2  A    between atoms: N_2  and  C_3
REMARK    3  A    between atoms: N_2  and  C_4
REMARK    4  A    between atoms: C_4  and  C_5
REMARK    5  A    between atoms: C_5  and  C_6
REMARK    6  A    between atoms: C_5  and  C_7
REMARK    7  A    between atoms: C_5  and  O_8
REMARK    8  A    between atoms: O_8  and  C_9
REMARK    9  A    between atoms: C_9  and  C_11
REMARK   10  A    between atoms: C_11  and  O_12
REMARK   11  A    between atoms: C_11  and  C_13
REMARK   12  A    between atoms: C_11  and  C_19
REMARK                            x       y       z     vdW  Elec       q    Type
REMARK                         _______ _______ _______ _____ _____    ______ ____
ROOT
ATOM      1  C   UNL     1       5.314   5.689  16.196  0.00  0.00    +0.000 C 
ENDROOT
BRANCH   1   2
ATOM      2  C   UNL     1       6.419   6.156  17.172  0.00  0.00    +0.000 A 
ATOM      3  C   UNL     1       6.894   7.490  17.150  0.00  0.00    +0.000 A 
ATOM      4  C   UNL     1       7.893   7.917  18.023  0.00  0.00    +0.000 A 
ATOM      5  C   UNL     1       8.443   7.027  18.942  0.00  0.00    +0.000 A 
ATOM      6  C   UNL     1       7.992   5.709  18.993  0.00  0.00    +0.000 A 
ATOM      7  C   UNL     1       6.991   5.272  18.118  0.00  0.00    +0.000 A 
ENDBRANCH   1   2
BRANCH   1   8
ATOM      8  C   UNL     1       5.890   5.078  14.896  0.00  0.00    +0.000 A 
ATOM      9  C   UNL     1       5.082   4.216  14.126  0.00  0.00    +0.000 A 
ATOM     10  C   UNL     1       5.563   3.622  12.953  0.00  0.00    +0.000 A 
ATOM     11  C   UNL     1       6.859   3.885  12.516  0.00  0.00    +0.000 A 
ATOM     12  C   UNL     1       7.671   4.755  13.241  0.00  0.00    +0.000 A 
ATOM     13  C   UNL     1       7.195   5.353  14.411  0.00  0.00    +0.000 A 
ENDBRANCH   1   8
BRANCH   1  14
ATOM     14  C   UNL     1       4.459   4.636  16.915  0.00  0.00    +0.000 C 
ATOM     15  O   UNL     1       4.939   3.530  17.096  0.00  0.00    +0.000 OA
BRANCH  14  16
ATOM     16  O   UNL     1       3.193   4.906  17.375  0.00  0.00    +0.000 OA
BRANCH  16  17
ATOM     17  C   UNL     1       2.856   5.342  18.664  0.00  0.00    +0.000 C 
ATOM     18  C   UNL     1       2.564   6.855  18.639  0.00  0.00    +0.000 C 
ATOM     19  C   UNL     1       4.076   5.121  19.588  0.00  0.00    +0.000 C 
BRANCH  17  20
ATOM     20  C   UNL     1       1.593   4.611  19.242  0.00  0.00    +0.000 C 
BRANCH  20  22
ATOM     21  C   UNL     1       1.335   2.919  21.027  0.00  0.00    +0.000 C 
ATOM     22  N   UNL     1       1.819   3.203  19.670  0.00  0.00    +0.000 NA
ATOM     23  C   UNL     1       1.162   2.290  18.718  0.00  0.00    +0.000 C 
ENDBRANCH  20  22
ENDBRANCH  17  20
ENDBRANCH  16  17
ENDBRANCH  14  16
ENDBRANCH   1  14
BRANCH   1  24
ATOM     24  O   UNL     1       4.510   6.780  15.803  0.00  0.00    +0.000 OA
ATOM     25  H   UNL     1       4.016   6.531  14.978  0.00  0.00    +0.000 HD
ENDBRANCH   1  24
TORSDOF 8
ENDMDL
