MODEL 1
REMARK VINA RESULT:      -6.5      0.000      0.000
REMARK  Name = 
REMARK  8 active torsions:
REMARK  status: ('A' for Active; 'I' for Inactive)
REMARK    1  A    between atoms: C_1  and  C_2
REMARK    2  A    between atoms: C_5  and  C_6
REMARK    3  A    between atoms: C_7  and  C_8
REMARK    4  A    between atoms: C_14  and  N_15
REMARK    5  A    between atoms: C_14  and  C_19
REMARK    6  A    between atoms: N_15  and  C_16
REMARK    7  A    between atoms: C_16  and  C_17
REMARK    8  A    between atoms: C_16  and  C_18
REMARK                            x       y       z     vdW  Elec       q    Type
REMARK                         _______ _______ _______ _____ _____    ______ ____
ROOT
ATOM      1  C   UNL     1      -4.051  11.822  18.856  0.00  0.00    +0.000 A 
ATOM      2  C   UNL     1      -4.104  10.736  17.953  0.00  0.00    +0.000 A 
ATOM      3  C   UNL     1      -2.951  10.047  17.562  0.00  0.00    +0.000 A 
ATOM      4  C   UNL     1      -1.753  10.497  18.062  0.00  0.00    +0.000 A 
ATOM      5  C   UNL     1      -1.652  11.569  18.945  0.00  0.00    +0.000 A 
ATOM      6  C   UNL     1      -2.801  12.229  19.364  0.00  0.00    +0.000 A 
ATOM      7  C   UNL     1      -0.179  11.828  19.264  0.00  0.00    +0.000 C 
ATOM      8  C   UNL     1       0.499  10.651  18.454  0.00  0.00    +0.000 C 
ATOM      9  O   UNL     1       1.663  10.305  18.403  0.00  0.00    +0.000 OA
ATOM     10  N   UNL     1      -0.510   9.979  17.776  0.00  0.00    +0.000 N 
ATOM     11  H   UNL     1      -0.316   9.176  17.198  0.00  0.00    +0.000 HD
ENDROOT
BRANCH   1  18
ATOM     12  C   UNL     1      -6.544  12.992  16.969  0.00  0.00    +0.000 C 
ATOM     13  C   UNL     1      -6.354  13.023  18.440  0.00  0.00    +0.000 A 
ATOM     14  N   UNL     1      -7.293  13.598  19.199  0.00  0.00    +0.000 NA
ATOM     15  O   UNL     1      -6.863  13.468  20.498  0.00  0.00    +0.000 OA
ATOM     16  C   UNL     1      -5.668  12.821  20.527  0.00  0.00    +0.000 A 
ATOM     17  C   UNL     1      -5.090  12.652  21.877  0.00  0.00    +0.000 C 
ATOM     18  C   UNL     1      -5.287  12.499  19.237  0.00  0.00    +0.000 A 
ENDBRANCH   1  18
BRANCH   7  19
ATOM     19  C   UNL     1       0.239  13.271  18.761  0.00  0.00    +0.000 C 
ATOM     20  C   UNL     1      -0.143  14.453  19.679  0.00  0.00    +0.000 C 
ATOM     21  C   UNL     1       0.750  14.636  20.899  0.00  0.00    +0.000 C 
ATOM     22  C   UNL     1       2.249  14.519  20.623  0.00  0.00    +0.000 C 
ATOM     23  C   UNL     1       2.670  13.518  19.550  0.00  0.00    +0.000 C 
ATOM     24  C   UNL     1       1.719  13.458  18.365  0.00  0.00    +0.000 C 
ENDBRANCH   7  19
BRANCH   7  25
ATOM     25  N   UNL     1       0.106  11.736  20.721  0.00  0.00    +0.000 NA
ATOM     26  H   UNL     1      -0.180  12.611  21.156  0.00  0.00    +0.000 HD
BRANCH  25  27
ATOM     27  C   UNL     1      -0.439  10.617  21.505  0.00  0.00    +0.000 C 
ATOM     28  C   UNL     1       0.589   9.592  21.989  0.00  0.00    +0.000 C 
ATOM     29  C   UNL     1      -1.104  11.223  22.750  0.00  0.00    +0.000 C 
ENDBRANCH  25  27
ENDBRANCH   7  25
TORSDOF 4
ENDMDL
MODEL 2
REMARK VINA RESULT:      -6.4      9.791     12.162
REMARK  Name = 
REMARK  8 active torsions:
REMARK  status: ('A' for Active; 'I' for Inactive)
REMARK    1  A    between atoms: C_1  and  C_2
REMARK    2  A    between atoms: C_5  and  C_6
REMARK    3  A    between atoms: C_7  and  C_8
REMARK    4  A    between atoms: C_14  and  N_15
REMARK    5  A    between atoms: C_14  and  C_19
REMARK    6  A    between atoms: N_15  and  C_16
REMARK    7  A    between atoms: C_16  and  C_17
REMARK    8  A    between atoms: C_16  and  C_18
REMARK                            x       y       z     vdW  Elec       q    Type
REMARK                         _______ _______ _______ _____ _____    ______ ____
ROOT
ATOM      1  C   UNL     1       8.060  14.585  23.450  0.00  0.00    +0.000 A 
ATOM      2  C   UNL     1       8.852  15.624  23.990  0.00  0.00    +0.000 A 
ATOM      3  C   UNL     1       9.988  16.102  23.328  0.00  0.00    +0.000 A 
ATOM      4  C   UNL     1      10.328  15.489  22.146  0.00  0.00    +0.000 A 
ATOM      5  C   UNL     1       9.584  14.456  21.583  0.00  0.00    +0.000 A 
ATOM      6  C   UNL     1       8.433  14.008  22.221  0.00  0.00    +0.000 A 
ATOM      7  C   UNL     1      10.264  13.980  20.299  0.00  0.00    +0.000 C 
ATOM      8  C   UNL     1      11.474  14.996  20.224  0.00  0.00    +0.000 C 
ATOM      9  O   UNL     1      12.315  15.149  19.361  0.00  0.00    +0.000 OA
ATOM     10  N   UNL     1      11.421  15.789  21.363  0.00  0.00    +0.000 N 
ATOM     11  H   UNL     1      12.091  16.524  21.529  0.00  0.00    +0.000 HD
ENDROOT
BRANCH   1  18
ATOM     12  C   UNL     1       7.394  11.639  24.871  0.00  0.00    +0.000 C 
ATOM     13  C   UNL     1       6.571  12.869  24.776  0.00  0.00    +0.000 A 
ATOM     14  N   UNL     1       5.351  12.871  25.324  0.00  0.00    +0.000 NA
ATOM     15  O   UNL     1       4.836  14.126  25.097  0.00  0.00    +0.000 OA
ATOM     16  C   UNL     1       5.737  14.879  24.411  0.00  0.00    +0.000 A 
ATOM     17  C   UNL     1       5.275  16.243  24.081  0.00  0.00    +0.000 C 
ATOM     18  C   UNL     1       6.879  14.133  24.179  0.00  0.00    +0.000 A 
ENDBRANCH   1  18
BRANCH   7  19
ATOM     19  C   UNL     1      10.711  12.467  20.451  0.00  0.00    +0.000 C 
ATOM     20  C   UNL     1       9.618  11.404  20.204  0.00  0.00    +0.000 C 
ATOM     21  C   UNL     1       9.289  11.144  18.740  0.00  0.00    +0.000 C 
ATOM     22  C   UNL     1      10.504  11.016  17.821  0.00  0.00    +0.000 C 
ATOM     23  C   UNL     1      11.711  11.888  18.158  0.00  0.00    +0.000 C 
ATOM     24  C   UNL     1      11.958  12.036  19.652  0.00  0.00    +0.000 C 
ENDBRANCH   7  19
BRANCH   7  25
ATOM     25  N   UNL     1       9.372  14.092  19.114  0.00  0.00    +0.000 NA
ATOM     26  H   UNL     1       8.716  13.313  19.137  0.00  0.00    +0.000 HD
BRANCH  25  27
ATOM     27  C   UNL     1       8.622  15.335  18.875  0.00  0.00    +0.000 C 
ATOM     28  C   UNL     1       9.113  16.181  17.699  0.00  0.00    +0.000 C 
ATOM     29  C   UNL     1       7.169  14.934  18.577  0.00  0.00    +0.000 C 
ENDBRANCH  25  27
ENDBRANCH   7  25
TORSDOF 4
ENDMDL
MODEL 3
REMARK VINA RESULT:      -6.4      0.385      1.567
REMARK  Name = 
REMARK  8 active torsions:
REMARK  status: ('A' for Active; 'I' for Inactive)
REMARK    1  A    between atoms: C_1  and  C_2
REMARK    2  A    between atoms: C_5  and  C_6
REMARK    3  A    between atoms: C_7  and  C_8
REMARK    4  A    between atoms: C_14  and  N_15
REMARK    5  A    between atoms: C_14  and  C_19
REMARK    6  A    between atoms: N_15  and  C_16
REMARK    7  A    between atoms: C_16  and  C_17
REMARK    8  A    between atoms: C_16  and  C_18
REMARK                            x       y       z     vdW  Elec       q    Type
REMARK                         _______ _______ _______ _____ _____    ______ ____
ROOT
ATOM      1  C   UNL     1      -4.078  11.872  18.926  0.00  0.00    +0.000 A 
ATOM      2  C   UNL     1      -4.161  10.793  18.017  0.00  0.00    +0.000 A 
ATOM      3  C   UNL     1      -3.025  10.092  17.601  0.00  0.00    +0.000 A 
ATOM      4  C   UNL     1      -1.813  10.523  18.082  0.00  0.00    +0.000 A 
ATOM      5  C   UNL     1      -1.681  11.587  18.970  0.00  0.00    +0.000 A 
ATOM      6  C   UNL     1      -2.814  12.259  19.414  0.00  0.00    +0.000 A 
ATOM      7  C   UNL     1      -0.200  11.825  19.264  0.00  0.00    +0.000 C 
ATOM      8  C   UNL     1       0.449  10.645  18.434  0.00  0.00    +0.000 C 
ATOM      9  O   UNL     1       1.606  10.285  18.359  0.00  0.00    +0.000 OA
ATOM     10  N   UNL     1      -0.581   9.991  17.770  0.00  0.00    +0.000 N 
ATOM     11  H   UNL     1      -0.408   9.190  17.182  0.00  0.00    +0.000 HD
ENDROOT
BRANCH   1  18
ATOM     12  C   UNL     1      -5.203  12.653  21.970  0.00  0.00    +0.000 C 
ATOM     13  C   UNL     1      -5.803  12.886  20.634  0.00  0.00    +0.000 A 
ATOM     14  N   UNL     1      -6.987  13.502  20.558  0.00  0.00    +0.000 NA
ATOM     15  O   UNL     1      -7.283  13.591  19.218  0.00  0.00    +0.000 OA
ATOM     16  C   UNL     1      -6.286  13.028  18.485  0.00  0.00    +0.000 A 
ATOM     17  C   UNL     1      -6.513  13.037  17.025  0.00  0.00    +0.000 C 
ATOM     18  C   UNL     1      -5.298  12.562  19.334  0.00  0.00    +0.000 A 
ENDBRANCH   1  18
BRANCH   7  19
ATOM     19  C   UNL     1       0.228  13.266  18.763  0.00  0.00    +0.000 C 
ATOM     20  C   UNL     1      -0.072  14.440  19.721  0.00  0.00    +0.000 C 
ATOM     21  C   UNL     1       0.891  14.578  20.894  0.00  0.00    +0.000 C 
ATOM     22  C   UNL     1       2.369  14.429  20.533  0.00  0.00    +0.000 C 
ATOM     23  C   UNL     1       2.704  13.437  19.422  0.00  0.00    +0.000 C 
ATOM     24  C   UNL     1       1.688  13.424  18.289  0.00  0.00    +0.000 C 
ENDBRANCH   7  19
BRANCH   7  25
ATOM     25  N   UNL     1       0.111  11.719  20.715  0.00  0.00    +0.000 NA
ATOM     26  H   UNL     1      -0.159  12.593  21.162  0.00  0.00    +0.000 HD
BRANCH  25  27
ATOM     27  C   UNL     1      -0.431  10.599  21.500  0.00  0.00    +0.000 C 
ATOM     28  C   UNL     1       0.602   9.583  21.994  0.00  0.00    +0.000 C 
ATOM     29  C   UNL     1      -1.107  11.205  22.739  0.00  0.00    +0.000 C 
ENDBRANCH  25  27
ENDBRANCH   7  25
TORSDOF 4
ENDMDL
MODEL 4
REMARK VINA RESULT:      -6.4      2.909      6.830
REMARK  Name = 
REMARK  8 active torsions:
REMARK  status: ('A' for Active; 'I' for Inactive)
REMARK    1  A    between atoms: C_1  and  C_2
REMARK    2  A    between atoms: C_5  and  C_6
REMARK    3  A    between atoms: C_7  and  C_8
REMARK    4  A    between atoms: C_14  and  N_15
REMARK    5  A    between atoms: C_14  and  C_19
REMARK    6  A    between atoms: N_15  and  C_16
REMARK    7  A    between atoms: C_16  and  C_17
REMARK    8  A    between atoms: C_16  and  C_18
REMARK                            x       y       z     vdW  Elec       q    Type
REMARK                         _______ _______ _______ _____ _____    ______ ____
ROOT
ATOM      1  C   UNL     1       1.570   8.033  20.023  0.00  0.00    +0.000 A 
ATOM      2  C   UNL     1       1.120   7.879  21.354  0.00  0.00    +0.000 A 
ATOM      3  C   UNL     1       0.370   8.869  21.996  0.00  0.00    +0.000 A 
ATOM      4  C   UNL     1       0.123  10.022  21.292  0.00  0.00    +0.000 A 
ATOM      5  C   UNL     1       0.555  10.223  19.984  0.00  0.00    +0.000 A 
ATOM      6  C   UNL     1       1.267   9.223  19.332  0.00  0.00    +0.000 A 
ATOM      7  C   UNL     1       0.148  11.622  19.522  0.00  0.00    +0.000 C 
ATOM      8  C   UNL     1      -0.654  12.120  20.791  0.00  0.00    +0.000 C 
ATOM      9  O   UNL     1      -1.285  13.143  20.967  0.00  0.00    +0.000 OA
ATOM     10  N   UNL     1      -0.565  11.122  21.755  0.00  0.00    +0.000 N 
ATOM     11  H   UNL     1      -1.014  11.212  22.653  0.00  0.00    +0.000 HD
ENDROOT
BRANCH   1  18
ATOM     12  C   UNL     1       3.548   8.080  17.334  0.00  0.00    +0.000 C 
ATOM     13  C   UNL     1       3.176   6.962  18.236  0.00  0.00    +0.000 A 
ATOM     14  N   UNL     1       3.675   5.745  17.993  0.00  0.00    +0.000 NA
ATOM     15  O   UNL     1       3.178   4.928  18.981  0.00  0.00    +0.000 OA
ATOM     16  C   UNL     1       2.380   5.644  19.816  0.00  0.00    +0.000 A 
ATOM     17  C   UNL     1       1.761   4.857  20.903  0.00  0.00    +0.000 C 
ATOM     18  C   UNL     1       2.341   6.962  19.398  0.00  0.00    +0.000 A 
ENDBRANCH   1  18
BRANCH   7  19
ATOM     19  C   UNL     1       1.439  12.486  19.206  0.00  0.00    +0.000 C 
ATOM     20  C   UNL     1       1.243  13.683  18.251  0.00  0.00    +0.000 C 
ATOM     21  C   UNL     1       0.595  14.910  18.879  0.00  0.00    +0.000 C 
ATOM     22  C   UNL     1       1.140  15.292  20.256  0.00  0.00    +0.000 C 
ATOM     23  C   UNL     1       1.567  14.142  21.164  0.00  0.00    +0.000 C 
ATOM     24  C   UNL     1       2.239  12.996  20.423  0.00  0.00    +0.000 C 
ENDBRANCH   7  19
BRANCH   7  25
ATOM     25  N   UNL     1      -0.706  11.588  18.305  0.00  0.00    +0.000 NA
ATOM     26  H   UNL     1      -0.121  11.319  17.515  0.00  0.00    +0.000 HD
BRANCH  25  27
ATOM     27  C   UNL     1      -1.928  10.769  18.289  0.00  0.00    +0.000 C 
ATOM     28  C   UNL     1      -3.242  11.552  18.242  0.00  0.00    +0.000 C 
ATOM     29  C   UNL     1      -1.868   9.896  17.027  0.00  0.00    +0.000 C 
ENDBRANCH  25  27
ENDBRANCH   7  25
TORSDOF 4
ENDMDL
MODEL 5
REMARK VINA RESULT:      -6.4      2.884      6.940
REMARK  Name = 
REMARK  8 active torsions:
REMARK  status: ('A' for Active; 'I' for Inactive)
REMARK    1  A    between atoms: C_1  and  C_2
REMARK    2  A    between atoms: C_5  and  C_6
REMARK    3  A    between atoms: C_7  and  C_8
REMARK    4  A    between atoms: C_14  and  N_15
REMARK    5  A    between atoms: C_14  and  C_19
REMARK    6  A    between atoms: N_15  and  C_16
REMARK    7  A    between atoms: C_16  and  C_17
REMARK    8  A    between atoms: C_16  and  C_18
REMARK                            x       y       z     vdW  Elec       q    Type
REMARK                         _______ _______ _______ _____ _____    ______ ____
ROOT
ATOM      1  C   UNL     1       1.522   8.034  20.091  0.00  0.00    +0.000 A 
ATOM      2  C   UNL     1       1.047   7.887  21.413  0.00  0.00    +0.000 A 
ATOM      3  C   UNL     1       0.284   8.881  22.036  0.00  0.00    +0.000 A 
ATOM      4  C   UNL     1       0.049  10.030  21.320  0.00  0.00    +0.000 A 
ATOM      5  C   UNL     1       0.507  10.223  20.020  0.00  0.00    +0.000 A 
ATOM      6  C   UNL     1       1.231   9.220  19.387  0.00  0.00    +0.000 A 
ATOM      7  C   UNL     1       0.108  11.620  19.542  0.00  0.00    +0.000 C 
ATOM      8  C   UNL     1      -0.719  12.124  20.793  0.00  0.00    +0.000 C 
ATOM      9  O   UNL     1      -1.354  13.147  20.951  0.00  0.00    +0.000 OA
ATOM     10  N   UNL     1      -0.648  11.132  21.763  0.00  0.00    +0.000 N 
ATOM     11  H   UNL     1      -1.114  11.226  22.652  0.00  0.00    +0.000 HD
ENDROOT
BRANCH   1  18
ATOM     12  C   UNL     1       1.941   4.864  21.048  0.00  0.00    +0.000 C 
ATOM     13  C   UNL     1       2.510   5.604  19.895  0.00  0.00    +0.000 A 
ATOM     14  N   UNL     1       3.335   4.962  19.061  0.00  0.00    +0.000 NA
ATOM     15  O   UNL     1       3.689   5.878  18.099  0.00  0.00    +0.000 OA
ATOM     16  C   UNL     1       3.085   7.070  18.349  0.00  0.00    +0.000 A 
ATOM     17  C   UNL     1       3.420   8.145  17.392  0.00  0.00    +0.000 C 
ATOM     18  C   UNL     1       2.305   6.961  19.487  0.00  0.00    +0.000 A 
ENDBRANCH   1  18
BRANCH   7  19
ATOM     19  C   UNL     1       1.404  12.482  19.246  0.00  0.00    +0.000 C 
ATOM     20  C   UNL     1       1.222  13.683  18.292  0.00  0.00    +0.000 C 
ATOM     21  C   UNL     1       0.567  14.909  18.916  0.00  0.00    +0.000 C 
ATOM     22  C   UNL     1       1.095  15.285  20.301  0.00  0.00    +0.000 C 
ATOM     23  C   UNL     1       1.508  14.131  21.211  0.00  0.00    +0.000 C 
ATOM     24  C   UNL     1       2.188  12.987  20.475  0.00  0.00    +0.000 C 
ENDBRANCH   7  19
BRANCH   7  25
ATOM     25  N   UNL     1      -0.723  11.577  18.309  0.00  0.00    +0.000 NA
ATOM     26  H   UNL     1      -0.126  11.291  17.535  0.00  0.00    +0.000 HD
BRANCH  25  27
ATOM     27  C   UNL     1      -1.954  10.773  18.281  0.00  0.00    +0.000 C 
ATOM     28  C   UNL     1      -3.257  11.570  18.183  0.00  0.00    +0.000 C 
ATOM     29  C   UNL     1      -1.873   9.870  17.040  0.00  0.00    +0.000 C 
ENDBRANCH  25  27
ENDBRANCH   7  25
TORSDOF 4
ENDMDL
MODEL 6
REMARK VINA RESULT:      -6.4      9.007     11.702
REMARK  Name = 
REMARK  8 active torsions:
REMARK  status: ('A' for Active; 'I' for Inactive)
REMARK    1  A    between atoms: C_1  and  C_2
REMARK    2  A    between atoms: C_5  and  C_6
REMARK    3  A    between atoms: C_7  and  C_8
REMARK    4  A    between atoms: C_14  and  N_15
REMARK    5  A    between atoms: C_14  and  C_19
REMARK    6  A    between atoms: N_15  and  C_16
REMARK    7  A    between atoms: C_16  and  C_17
REMARK    8  A    between atoms: C_16  and  C_18
REMARK                            x       y       z     vdW  Elec       q    Type
REMARK                         _______ _______ _______ _____ _____    ______ ____
ROOT
ATOM      1  C   UNL     1       7.949  14.315  22.485  0.00  0.00    +0.000 A 
ATOM      2  C   UNL     1       9.028  15.098  22.954  0.00  0.00    +0.000 A 
ATOM      3  C   UNL     1      10.044  15.539  22.100  0.00  0.00    +0.000 A 
ATOM      4  C   UNL     1       9.973  15.143  20.787  0.00  0.00    +0.000 A 
ATOM      5  C   UNL     1       8.936  14.362  20.282  0.00  0.00    +0.000 A 
ATOM      6  C   UNL     1       7.906  13.957  21.123  0.00  0.00    +0.000 A 
ATOM      7  C   UNL     1       9.191  14.071  18.803  0.00  0.00    +0.000 C 
ATOM      8  C   UNL     1      10.518  14.902  18.574  0.00  0.00    +0.000 C 
ATOM      9  O   UNL     1      11.144  15.111  17.554  0.00  0.00    +0.000 OA
ATOM     10  N   UNL     1      10.886  15.442  19.800  0.00  0.00    +0.000 N 
ATOM     11  H   UNL     1      11.702  16.026  19.898  0.00  0.00    +0.000 HD
ENDROOT
BRANCH   1  18
ATOM     12  C   UNL     1       7.708  11.549  24.338  0.00  0.00    +0.000 C 
ATOM     13  C   UNL     1       6.784  12.702  24.205  0.00  0.00    +0.000 A 
ATOM     14  N   UNL     1       5.647  12.701  24.910  0.00  0.00    +0.000 NA
ATOM     15  O   UNL     1       5.010  13.879  24.602  0.00  0.00    +0.000 OA
ATOM     16  C   UNL     1       5.752  14.589  23.711  0.00  0.00    +0.000 A 
ATOM     17  C   UNL     1       5.145  15.865  23.280  0.00  0.00    +0.000 C 
ATOM     18  C   UNL     1       6.911  13.891  23.419  0.00  0.00    +0.000 A 
ENDBRANCH   1  18
BRANCH   7  19
ATOM     19  C   UNL     1       9.369  12.513  18.580  0.00  0.00    +0.000 C 
ATOM     20  C   UNL     1      10.417  12.088  17.527  0.00  0.00    +0.000 C 
ATOM     21  C   UNL     1      11.866  12.172  17.990  0.00  0.00    +0.000 C 
ATOM     22  C   UNL     1      12.127  11.617  19.390  0.00  0.00    +0.000 C 
ATOM     23  C   UNL     1      11.017  11.811  20.420  0.00  0.00    +0.000 C 
ATOM     24  C   UNL     1       9.617  11.662  19.843  0.00  0.00    +0.000 C 
ENDBRANCH   7  19
BRANCH   7  25
ATOM     25  N   UNL     1       8.081  14.549  17.936  0.00  0.00    +0.000 NA
ATOM     26  H   UNL     1       7.723  13.752  17.413  0.00  0.00    +0.000 HD
BRANCH  25  27
ATOM     27  C   UNL     1       6.947  15.275  18.528  0.00  0.00    +0.000 C 
ATOM     28  C   UNL     1       7.021  16.800  18.430  0.00  0.00    +0.000 C 
ATOM     29  C   UNL     1       5.685  14.826  17.777  0.00  0.00    +0.000 C 
ENDBRANCH  25  27
ENDBRANCH   7  25
TORSDOF 4
ENDMDL
MODEL 7
REMARK VINA RESULT:      -6.4      9.339     11.750
REMARK  Name = 
REMARK  8 active torsions:
REMARK  status: ('A' for Active; 'I' for Inactive)
REMARK    1  A    between atoms: C_1  and  C_2
REMARK    2  A    between atoms: C_5  and  C_6
REMARK    3  A    between atoms: C_7  and  C_8
REMARK    4  A    between atoms: C_14  and  N_15
REMARK    5  A    between atoms: C_14  and  C_19
REMARK    6  A    between atoms: N_15  and  C_16
REMARK    7  A    between atoms: C_16  and  C_17
REMARK    8  A    between atoms: C_16  and  C_18
REMARK                            x       y       z     vdW  Elec       q    Type
REMARK                         _______ _______ _______ _____ _____    ______ ____
ROOT
ATOM      1  C   UNL     1       7.732  14.465  23.424  0.00  0.00    +0.000 A 
ATOM      2  C   UNL     1       8.810  15.249  23.892  0.00  0.00    +0.000 A 
ATOM      3  C   UNL     1       9.885  15.590  23.066  0.00  0.00    +0.000 A 
ATOM      4  C   UNL     1       9.871  15.095  21.784  0.00  0.00    +0.000 A 
ATOM      5  C   UNL     1       8.836  14.310  21.283  0.00  0.00    +0.000 A 
ATOM      6  C   UNL     1       7.748  14.004  22.093  0.00  0.00    +0.000 A 
ATOM      7  C   UNL     1       9.159  13.897  19.847  0.00  0.00    +0.000 C 
ATOM      8  C   UNL     1      10.525  14.665  19.630  0.00  0.00    +0.000 C 
ATOM      9  O   UNL     1      11.212  14.774  18.634  0.00  0.00    +0.000 OA
ATOM     10  N   UNL     1      10.846  15.287  20.830  0.00  0.00    +0.000 N 
ATOM     11  H   UNL     1      11.676  15.851  20.930  0.00  0.00    +0.000 HD
ENDROOT
BRANCH   1  18
ATOM     12  C   UNL     1       5.526  16.469  24.929  0.00  0.00    +0.000 C 
ATOM     13  C   UNL     1       5.690  14.996  24.995  0.00  0.00    +0.000 A 
ATOM     14  N   UNL     1       4.855  14.289  25.765  0.00  0.00    +0.000 NA
ATOM     15  O   UNL     1       5.230  12.974  25.622  0.00  0.00    +0.000 OA
ATOM     16  C   UNL     1       6.288  12.884  24.774  0.00  0.00    +0.000 A 
ATOM     17  C   UNL     1       6.800  11.512  24.570  0.00  0.00    +0.000 C 
ATOM     18  C   UNL     1       6.630  14.148  24.328  0.00  0.00    +0.000 A 
ENDBRANCH   1  18
BRANCH   7  19
ATOM     19  C   UNL     1       9.293  12.321  19.753  0.00  0.00    +0.000 C 
ATOM     20  C   UNL     1       9.380  11.726  18.331  0.00  0.00    +0.000 C 
ATOM     21  C   UNL     1      10.738  11.866  17.655  0.00  0.00    +0.000 C 
ATOM     22  C   UNL     1      11.937  11.536  18.545  0.00  0.00    +0.000 C 
ATOM     23  C   UNL     1      11.812  11.900  20.022  0.00  0.00    +0.000 C 
ATOM     24  C   UNL     1      10.418  11.676  20.590  0.00  0.00    +0.000 C 
ENDBRANCH   7  19
BRANCH   7  25
ATOM     25  N   UNL     1       8.115  14.340  18.885  0.00  0.00    +0.000 NA
ATOM     26  H   UNL     1       7.410  13.608  18.823  0.00  0.00    +0.000 HD
BRANCH  25  27
ATOM     27  C   UNL     1       7.440  15.632  19.079  0.00  0.00    +0.000 C 
ATOM     28  C   UNL     1       7.992  16.792  18.249  0.00  0.00    +0.000 C 
ATOM     29  C   UNL     1       5.970  15.436  18.675  0.00  0.00    +0.000 C 
ENDBRANCH  25  27
ENDBRANCH   7  25
TORSDOF 4
ENDMDL
MODEL 8
REMARK VINA RESULT:      -6.3      9.701     12.161
REMARK  Name = 
REMARK  8 active torsions:
REMARK  status: ('A' for Active; 'I' for Inactive)
REMARK    1  A    between atoms: C_1  and  C_2
REMARK    2  A    between atoms: C_5  and  C_6
REMARK    3  A    between atoms: C_7  and  C_8
REMARK    4  A    between atoms: C_14  and  N_15
REMARK    5  A    between atoms: C_14  and  C_19
REMARK    6  A    between atoms: N_15  and  C_16
REMARK    7  A    between atoms: C_16  and  C_17
REMARK    8  A    between atoms: C_16  and  C_18
REMARK                            x       y       z     vdW  Elec       q    Type
REMARK                         _______ _______ _______ _____ _____    ______ ____
ROOT
ATOM      1  C   UNL     1       8.282  14.494  23.001  0.00  0.00    +0.000 A 
ATOM      2  C   UNL     1       8.948  15.634  23.504  0.00  0.00    +0.000 A 
ATOM      3  C   UNL     1       9.998  16.240  22.806  0.00  0.00    +0.000 A 
ATOM      4  C   UNL     1      10.385  15.655  21.626  0.00  0.00    +0.000 A 
ATOM      5  C   UNL     1       9.766  14.525  21.098  0.00  0.00    +0.000 A 
ATOM      6  C   UNL     1       8.697  13.946  21.771  0.00  0.00    +0.000 A 
ATOM      7  C   UNL     1      10.470  14.116  19.804  0.00  0.00    +0.000 C 
ATOM      8  C   UNL     1      11.539  15.276  19.682  0.00  0.00    +0.000 C 
ATOM      9  O   UNL     1      12.333  15.519  18.795  0.00  0.00    +0.000 OA
ATOM     10  N   UNL     1      11.412  16.077  20.810  0.00  0.00    +0.000 N 
ATOM     11  H   UNL     1      11.987  16.894  20.948  0.00  0.00    +0.000 HD
ENDROOT
BRANCH   1  18
ATOM     12  C   UNL     1       5.306  15.760  23.828  0.00  0.00    +0.000 C 
ATOM     13  C   UNL     1       5.914  14.444  24.146  0.00  0.00    +0.000 A 
ATOM     14  N   UNL     1       5.215  13.572  24.881  0.00  0.00    +0.000 NA
ATOM     15  O   UNL     1       6.010  12.457  25.001  0.00  0.00    +0.000 OA
ATOM     16  C   UNL     1       7.185  12.652  24.347  0.00  0.00    +0.000 A 
ATOM     17  C   UNL     1       8.136  11.524  24.437  0.00  0.00    +0.000 C 
ATOM     18  C   UNL     1       7.186  13.908  23.767  0.00  0.00    +0.000 A 
ENDBRANCH   1  18
BRANCH   7  19
ATOM     19  C   UNL     1      11.110  12.675  19.967  0.00  0.00    +0.000 C 
ATOM     20  C   UNL     1      10.265  11.636  20.736  0.00  0.00    +0.000 C 
ATOM     21  C   UNL     1       9.120  11.021  19.941  0.00  0.00    +0.000 C 
ATOM     22  C   UNL     1       9.478  10.603  18.515  0.00  0.00    +0.000 C 
ATOM     23  C   UNL     1      10.492  11.477  17.781  0.00  0.00    +0.000 C 
ATOM     24  C   UNL     1      11.609  11.995  18.675  0.00  0.00    +0.000 C 
ENDBRANCH   7  19
BRANCH   7  25
ATOM     25  N   UNL     1       9.543  14.092  18.641  0.00  0.00    +0.000 NA
ATOM     26  H   UNL     1       9.213  13.137  18.519  0.00  0.00    +0.000 HD
BRANCH  25  27
ATOM     27  C   UNL     1       8.387  15.001  18.605  0.00  0.00    +0.000 C 
ATOM     28  C   UNL     1       8.623  16.336  17.897  0.00  0.00    +0.000 C 
ATOM     29  C   UNL     1       7.266  14.272  17.849  0.00  0.00    +0.000 C 
ENDBRANCH  25  27
ENDBRANCH   7  25
TORSDOF 4
ENDMDL
MODEL 9
REMARK VINA RESULT:      -6.3      9.035     11.726
REMARK  Name = 
REMARK  8 active torsions:
REMARK  status: ('A' for Active; 'I' for Inactive)
REMARK    1  A    between atoms: C_1  and  C_2
REMARK    2  A    between atoms: C_5  and  C_6
REMARK    3  A    between atoms: C_7  and  C_8
REMARK    4  A    between atoms: C_14  and  N_15
REMARK    5  A    between atoms: C_14  and  C_19
REMARK    6  A    between atoms: N_15  and  C_16
REMARK    7  A    between atoms: C_16  and  C_17
REMARK    8  A    between atoms: C_16  and  C_18
REMARK                            x       y       z     vdW  Elec       q    Type
REMARK                         _______ _______ _______ _____ _____    ______ ____
ROOT
ATOM      1  C   UNL     1       8.031  14.273  22.484  0.00  0.00    +0.000 A 
ATOM      2  C   UNL     1       9.094  15.109  22.893  0.00  0.00    +0.000 A 
ATOM      3  C   UNL     1      10.059  15.567  21.991  0.00  0.00    +0.000 A 
ATOM      4  C   UNL     1       9.956  15.134  20.691  0.00  0.00    +0.000 A 
ATOM      5  C   UNL     1       8.933  14.301  20.246  0.00  0.00    +0.000 A 
ATOM      6  C   UNL     1       7.951  13.879  21.134  0.00  0.00    +0.000 A 
ATOM      7  C   UNL     1       9.144  13.982  18.765  0.00  0.00    +0.000 C 
ATOM      8  C   UNL     1      10.428  14.856  18.466  0.00  0.00    +0.000 C 
ATOM      9  O   UNL     1      11.007  15.063  17.418  0.00  0.00    +0.000 OA
ATOM     10  N   UNL     1      10.819  15.443  19.663  0.00  0.00    +0.000 N 
ATOM     11  H   UNL     1      11.615  16.060  19.716  0.00  0.00    +0.000 HD
ENDROOT
BRANCH   1  18
ATOM     12  C   UNL     1       5.188  15.709  23.485  0.00  0.00    +0.000 C 
ATOM     13  C   UNL     1       5.834  14.446  23.920  0.00  0.00    +0.000 A 
ATOM     14  N   UNL     1       5.238  13.712  24.866  0.00  0.00    +0.000 NA
ATOM     15  O   UNL     1       6.042  12.612  25.054  0.00  0.00    +0.000 OA
ATOM     16  C   UNL     1       7.121  12.681  24.230  0.00  0.00    +0.000 A 
ATOM     17  C   UNL     1       8.077  11.563  24.370  0.00  0.00    +0.000 C 
ATOM     18  C   UNL     1       7.045  13.833  23.467  0.00  0.00    +0.000 A 
ENDBRANCH   1  18
BRANCH   7  19
ATOM     19  C   UNL     1       9.375  12.426  18.574  0.00  0.00    +0.000 C 
ATOM     20  C   UNL     1      10.441  12.016  17.534  0.00  0.00    +0.000 C 
ATOM     21  C   UNL     1      11.885  12.157  18.001  0.00  0.00    +0.000 C 
ATOM     22  C   UNL     1      12.158  11.640  19.413  0.00  0.00    +0.000 C 
ATOM     23  C   UNL     1      11.037  11.817  20.434  0.00  0.00    +0.000 C 
ATOM     24  C   UNL     1       9.646  11.609  19.854  0.00  0.00    +0.000 C 
ENDBRANCH   7  19
BRANCH   7  25
ATOM     25  N   UNL     1       7.985  14.393  17.929  0.00  0.00    +0.000 NA
ATOM     26  H   UNL     1       7.568  13.554  17.531  0.00  0.00    +0.000 HD
BRANCH  25  27
ATOM     27  C   UNL     1       6.918  15.222  18.511  0.00  0.00    +0.000 C 
ATOM     28  C   UNL     1       7.112  16.733  18.374  0.00  0.00    +0.000 C 
ATOM     29  C   UNL     1       5.617  14.857  17.781  0.00  0.00    +0.000 C 
ENDBRANCH  25  27
ENDBRANCH   7  25
TORSDOF 4
ENDMDL
