MODEL 1
REMARK VINA RESULT:      -7.8      0.000      0.000
REMARK  Name = 
REMARK  5 active torsions:
REMARK  status: ('A' for Active; 'I' for Inactive)
REMARK    1  A    between atoms: C_1  and  C_2
REMARK    2  A    between atoms: C_2  and  C_3
REMARK    3  A    between atoms: C_7  and  C_8
REMARK    4  A    between atoms: N_10  and  C_11
REMARK    5  A    between atoms: C_13  and  C_14
REMARK                            x       y       z     vdW  Elec       q    Type
REMARK                         _______ _______ _______ _____ _____    ______ ____
ROOT
ATOM      1  C   UNL     1       6.725   4.851  15.337  0.00  0.00    +0.000 C 
ATOM      2  O   UNL     1       7.599   4.546  16.154  0.00  0.00    +0.000 OA
ATOM      3  N   UNL     1       5.461   5.190  15.784  0.00  0.00    +0.000 N 
ATOM      4  H   UNL     1       4.753   5.458  15.114  0.00  0.00    +0.000 HD
ENDROOT
BRANCH   1   9
ATOM      5  C   UNL     1       6.656   4.215  12.750  0.00  0.00    +0.000 A 
ATOM      6  N   UNL     1       7.429   4.659  11.686  0.00  0.00    +0.000 NA
ATOM      7  C   UNL     1       8.277   5.521  12.182  0.00  0.00    +0.000 A 
ATOM      8  N   UNL     1       8.094   5.656  13.515  0.00  0.00    +0.000 N 
ATOM      9  C   UNL     1       7.058   4.828  13.931  0.00  0.00    +0.000 A 
ATOM     10  H   UNL     1       8.612   6.258  14.142  0.00  0.00    +0.000 HD
BRANCH   5  12
ATOM     11  C   UNL     1       6.116   2.129  11.482  0.00  0.00    +0.000 C 
ATOM     12  C   UNL     1       5.604   3.221  12.412  0.00  0.00    +0.000 C 
ENDBRANCH   5  12
ENDBRANCH   1   9
BRANCH   3  13
ATOM     13  C   UNL     1       5.226   5.190  17.260  0.00  0.00    +0.000 C 
ATOM     14  C   UNL     1       3.735   5.168  17.633  0.00  0.00    +0.000 C 
ATOM     15  C   UNL     1       3.869   3.673  18.037  0.00  0.00    +0.000 C 
ATOM     16  C   UNL     1       5.403   3.892  18.068  0.00  0.00    +0.000 C 
BRANCH  15  17
ATOM     17  C   UNL     1       3.014   3.257  19.321  0.00  0.00    +0.000 A 
ATOM     18  C   UNL     1       3.548   2.828  20.553  0.00  0.00    +0.000 A 
ATOM     19  C   UNL     1       2.724   2.547  21.654  0.00  0.00    +0.000 A 
ATOM     20  C   UNL     1       1.345   2.683  21.541  0.00  0.00    +0.000 A 
ATOM     21  F   UNL     1       0.564   2.427  22.598  0.00  0.00    +0.000 F 
ATOM     22  C   UNL     1       0.772   3.082  20.349  0.00  0.00    +0.000 A 
ATOM     23  C   UNL     1       1.604   3.355  19.268  0.00  0.00    +0.000 A 
ATOM     24  F   UNL     1       1.033   3.753  18.120  0.00  0.00    +0.000 F 
ENDBRANCH  15  17
ENDBRANCH   3  13
TORSDOF 4
ENDMDL
MODEL 2
REMARK VINA RESULT:      -7.7      4.885      5.976
REMARK  Name = 
REMARK  5 active torsions:
REMARK  status: ('A' for Active; 'I' for Inactive)
REMARK    1  A    between atoms: C_1  and  C_2
REMARK    2  A    between atoms: C_2  and  C_3
REMARK    3  A    between atoms: C_7  and  C_8
REMARK    4  A    between atoms: N_10  and  C_11
REMARK    5  A    between atoms: C_13  and  C_14
REMARK                            x       y       z     vdW  Elec       q    Type
REMARK                         _______ _______ _______ _____ _____    ______ ____
ROOT
ATOM      1  C   UNL     1       4.173   5.483  17.294  0.00  0.00    +0.000 C 
ATOM      2  O   UNL     1       3.424   4.524  17.496  0.00  0.00    +0.000 OA
ATOM      3  N   UNL     1       3.735   6.764  17.576  0.00  0.00    +0.000 N 
ATOM      4  H   UNL     1       4.358   7.546  17.426  0.00  0.00    +0.000 HD
ENDROOT
BRANCH   1   9
ATOM      5  C   UNL     1       6.827   5.437  17.056  0.00  0.00    +0.000 A 
ATOM      6  N   UNL     1       7.639   4.913  16.060  0.00  0.00    +0.000 NA
ATOM      7  C   UNL     1       6.839   4.392  15.168  0.00  0.00    +0.000 A 
ATOM      8  N   UNL     1       5.547   4.554  15.536  0.00  0.00    +0.000 N 
ATOM      9  C   UNL     1       5.488   5.228  16.750  0.00  0.00    +0.000 A 
ATOM     10  H   UNL     1       4.727   4.243  15.030  0.00  0.00    +0.000 HD
BRANCH   5  12
ATOM     11  C   UNL     1       7.849   7.547  17.926  0.00  0.00    +0.000 C 
ATOM     12  C   UNL     1       7.536   6.081  18.193  0.00  0.00    +0.000 C 
ENDBRANCH   5  12
ENDBRANCH   1   9
BRANCH   3  13
ATOM     13  C   UNL     1       2.361   6.915  18.143  0.00  0.00    +0.000 C 
ATOM     14  C   UNL     1       2.356   7.121  19.667  0.00  0.00    +0.000 C 
ATOM     15  C   UNL     1       2.022   8.623  19.453  0.00  0.00    +0.000 C 
ATOM     16  C   UNL     1       1.613   8.253  18.004  0.00  0.00    +0.000 C 
BRANCH  15  17
ATOM     17  C   UNL     1       1.008   9.233  20.526  0.00  0.00    +0.000 A 
ATOM     18  C   UNL     1       0.368   8.505  21.548  0.00  0.00    +0.000 A 
ATOM     19  C   UNL     1      -0.458   9.135  22.494  0.00  0.00    +0.000 A 
ATOM     20  C   UNL     1      -0.663  10.508  22.431  0.00  0.00    +0.000 A 
ATOM     21  F   UNL     1      -1.439  11.105  23.343  0.00  0.00    +0.000 F 
ATOM     22  C   UNL     1      -0.072  11.263  21.436  0.00  0.00    +0.000 A 
ATOM     23  C   UNL     1       0.741  10.622  20.507  0.00  0.00    +0.000 A 
ATOM     24  F   UNL     1       1.316  11.371  19.553  0.00  0.00    +0.000 F 
ENDBRANCH  15  17
ENDBRANCH   3  13
TORSDOF 4
ENDMDL
MODEL 3
REMARK VINA RESULT:      -7.7      3.253      3.755
REMARK  Name = 
REMARK  5 active torsions:
REMARK  status: ('A' for Active; 'I' for Inactive)
REMARK    1  A    between atoms: C_1  and  C_2
REMARK    2  A    between atoms: C_2  and  C_3
REMARK    3  A    between atoms: C_7  and  C_8
REMARK    4  A    between atoms: N_10  and  C_11
REMARK    5  A    between atoms: C_13  and  C_14
REMARK                            x       y       z     vdW  Elec       q    Type
REMARK                         _______ _______ _______ _____ _____    ______ ____
ROOT
ATOM      1  C   UNL     1       5.907   4.587  15.379  0.00  0.00    +0.000 C 
ATOM      2  O   UNL     1       5.791   3.539  16.019  0.00  0.00    +0.000 OA
ATOM      3  N   UNL     1       5.448   5.773  15.922  0.00  0.00    +0.000 N 
ATOM      4  H   UNL     1       5.561   6.633  15.403  0.00  0.00    +0.000 HD
ENDROOT
BRANCH   1   9
ATOM      5  C   UNL     1       6.383   3.852  12.862  0.00  0.00    +0.000 A 
ATOM      6  N   UNL     1       7.329   4.300  11.950  0.00  0.00    +0.000 NA
ATOM      7  C   UNL     1       8.020   5.226  12.561  0.00  0.00    +0.000 A 
ATOM      8  N   UNL     1       7.570   5.399  13.825  0.00  0.00    +0.000 N 
ATOM      9  C   UNL     1       6.513   4.531  14.068  0.00  0.00    +0.000 A 
ATOM     10  H   UNL     1       7.924   6.053  14.512  0.00  0.00    +0.000 HD
BRANCH   5  12
ATOM     11  C   UNL     1       4.416   3.327  11.410  0.00  0.00    +0.000 C 
ATOM     12  C   UNL     1       5.468   2.789  12.372  0.00  0.00    +0.000 C 
ENDBRANCH   5  12
ENDBRANCH   1   9
BRANCH   3  13
ATOM     13  C   UNL     1       4.845   5.721  17.288  0.00  0.00    +0.000 C 
ATOM     14  C   UNL     1       4.699   7.108  17.937  0.00  0.00    +0.000 C 
ATOM     15  C   UNL     1       3.168   7.057  17.674  0.00  0.00    +0.000 C 
ATOM     16  C   UNL     1       3.327   5.531  17.455  0.00  0.00    +0.000 C 
BRANCH  15  17
ATOM     17  C   UNL     1       2.277   7.691  18.838  0.00  0.00    +0.000 A 
ATOM     18  C   UNL     1       2.098   7.136  20.122  0.00  0.00    +0.000 A 
ATOM     19  C   UNL     1       1.351   7.796  21.111  0.00  0.00    +0.000 A 
ATOM     20  C   UNL     1       0.762   9.024  20.832  0.00  0.00    +0.000 A 
ATOM     21  F   UNL     1       0.063   9.656  21.783  0.00  0.00    +0.000 F 
ATOM     22  C   UNL     1       0.893   9.600  19.583  0.00  0.00    +0.000 A 
ATOM     23  C   UNL     1       1.635   8.931  18.615  0.00  0.00    +0.000 A 
ATOM     24  F   UNL     1       1.762   9.509  17.410  0.00  0.00    +0.000 F 
ENDBRANCH  15  17
ENDBRANCH   3  13
TORSDOF 4
ENDMDL
MODEL 4
REMARK VINA RESULT:      -7.6      4.864      5.734
REMARK  Name = 
REMARK  5 active torsions:
REMARK  status: ('A' for Active; 'I' for Inactive)
REMARK    1  A    between atoms: C_1  and  C_2
REMARK    2  A    between atoms: C_2  and  C_3
REMARK    3  A    between atoms: C_7  and  C_8
REMARK    4  A    between atoms: N_10  and  C_11
REMARK    5  A    between atoms: C_13  and  C_14
REMARK                            x       y       z     vdW  Elec       q    Type
REMARK                         _______ _______ _______ _____ _____    ______ ____
ROOT
ATOM      1  C   UNL     1       4.324   5.366  17.863  0.00  0.00    +0.000 C 
ATOM      2  O   UNL     1       3.667   4.460  18.383  0.00  0.00    +0.000 OA
ATOM      3  N   UNL     1       3.764   6.622  17.719  0.00  0.00    +0.000 N 
ATOM      4  H   UNL     1       4.311   7.366  17.309  0.00  0.00    +0.000 HD
ENDROOT
BRANCH   1   9
ATOM      5  C   UNL     1       6.393   4.990  16.225  0.00  0.00    +0.000 A 
ATOM      6  N   UNL     1       7.711   4.642  16.494  0.00  0.00    +0.000 NA
ATOM      7  C   UNL     1       7.801   4.516  17.791  0.00  0.00    +0.000 A 
ATOM      8  N   UNL     1       6.607   4.762  18.378  0.00  0.00    +0.000 N 
ATOM      9  C   UNL     1       5.663   5.070  17.405  0.00  0.00    +0.000 A 
ATOM     10  H   UNL     1       6.400   4.737  19.368  0.00  0.00    +0.000 HD
BRANCH   5  12
ATOM     11  C   UNL     1       6.217   3.924  13.970  0.00  0.00    +0.000 C 
ATOM     12  C   UNL     1       6.060   5.197  14.792  0.00  0.00    +0.000 C 
ENDBRANCH   5  12
ENDBRANCH   1   9
BRANCH   3  13
ATOM     13  C   UNL     1       2.375   6.821  18.234  0.00  0.00    +0.000 C 
ATOM     14  C   UNL     1       2.321   7.037  19.756  0.00  0.00    +0.000 C 
ATOM     15  C   UNL     1       2.044   8.548  19.521  0.00  0.00    +0.000 C 
ATOM     16  C   UNL     1       1.677   8.182  18.060  0.00  0.00    +0.000 C 
BRANCH  15  17
ATOM     17  C   UNL     1       1.011   9.198  20.552  0.00  0.00    +0.000 A 
ATOM     18  C   UNL     1       0.306   8.497  21.551  0.00  0.00    +0.000 A 
ATOM     19  C   UNL     1      -0.532   9.159  22.462  0.00  0.00    +0.000 A 
ATOM     20  C   UNL     1      -0.686  10.539  22.387  0.00  0.00    +0.000 A 
ATOM     21  F   UNL     1      -1.475  11.167  23.267  0.00  0.00    +0.000 F 
ATOM     22  C   UNL     1      -0.031  11.268  21.414  0.00  0.00    +0.000 A 
ATOM     23  C   UNL     1       0.795  10.595  20.519  0.00  0.00    +0.000 A 
ATOM     24  F   UNL     1       1.433  11.319  19.586  0.00  0.00    +0.000 F 
ENDBRANCH  15  17
ENDBRANCH   3  13
TORSDOF 4
ENDMDL
MODEL 5
REMARK VINA RESULT:      -7.4      5.626      8.107
REMARK  Name = 
REMARK  5 active torsions:
REMARK  status: ('A' for Active; 'I' for Inactive)
REMARK    1  A    between atoms: C_1  and  C_2
REMARK    2  A    between atoms: C_2  and  C_3
REMARK    3  A    between atoms: C_7  and  C_8
REMARK    4  A    between atoms: N_10  and  C_11
REMARK    5  A    between atoms: C_13  and  C_14
REMARK                            x       y       z     vdW  Elec       q    Type
REMARK                         _______ _______ _______ _____ _____    ______ ____
ROOT
ATOM      1  C   UNL     1       3.220   5.273  18.993  0.00  0.00    +0.000 C 
ATOM      2  O   UNL     1       4.272   5.635  19.527  0.00  0.00    +0.000 OA
ATOM      3  N   UNL     1       2.284   6.219  18.617  0.00  0.00    +0.000 N 
ATOM      4  H   UNL     1       1.432   5.921  18.163  0.00  0.00    +0.000 HD
ENDROOT
BRANCH   1   9
ATOM      5  C   UNL     1       2.169   2.836  19.236  0.00  0.00    +0.000 A 
ATOM      6  N   UNL     1       2.496   1.641  18.610  0.00  0.00    +0.000 NA
ATOM      7  C   UNL     1       3.489   1.908  17.803  0.00  0.00    +0.000 A 
ATOM      8  N   UNL     1       3.824   3.216  17.877  0.00  0.00    +0.000 N 
ATOM      9  C   UNL     1       3.000   3.859  18.793  0.00  0.00    +0.000 A 
ATOM     10  H   UNL     1       4.554   3.687  17.358  0.00  0.00    +0.000 HD
BRANCH   5  12
ATOM     11  C   UNL     1       1.523   2.713  21.648  0.00  0.00    +0.000 C 
ATOM     12  C   UNL     1       1.043   2.770  20.204  0.00  0.00    +0.000 C 
ENDBRANCH   5  12
ENDBRANCH   1   9
BRANCH   3  13
ATOM     13  C   UNL     1       2.616   7.655  18.862  0.00  0.00    +0.000 C 
ATOM     14  C   UNL     1       2.055   8.597  17.784  0.00  0.00    +0.000 C 
ATOM     15  C   UNL     1       0.963   9.072  18.783  0.00  0.00    +0.000 C 
ATOM     16  C   UNL     1       1.830   8.460  19.913  0.00  0.00    +0.000 C 
BRANCH  15  17
ATOM     17  C   UNL     1       0.613  10.628  18.687  0.00  0.00    +0.000 A 
ATOM     18  C   UNL     1       1.550  11.680  18.745  0.00  0.00    +0.000 A 
ATOM     19  C   UNL     1       1.163  13.019  18.583  0.00  0.00    +0.000 A 
ATOM     20  C   UNL     1      -0.174  13.334  18.366  0.00  0.00    +0.000 A 
ATOM     21  F   UNL     1      -0.536  14.612  18.198  0.00  0.00    +0.000 F 
ATOM     22  C   UNL     1      -1.133  12.341  18.320  0.00  0.00    +0.000 A 
ATOM     23  C   UNL     1      -0.731  11.019  18.484  0.00  0.00    +0.000 A 
ATOM     24  F   UNL     1      -1.673  10.064  18.425  0.00  0.00    +0.000 F 
ENDBRANCH  15  17
ENDBRANCH   3  13
TORSDOF 4
ENDMDL
MODEL 6
REMARK VINA RESULT:      -7.2      4.754      6.278
REMARK  Name = 
REMARK  5 active torsions:
REMARK  status: ('A' for Active; 'I' for Inactive)
REMARK    1  A    between atoms: C_1  and  C_2
REMARK    2  A    between atoms: C_2  and  C_3
REMARK    3  A    between atoms: C_7  and  C_8
REMARK    4  A    between atoms: N_10  and  C_11
REMARK    5  A    between atoms: C_13  and  C_14
REMARK                            x       y       z     vdW  Elec       q    Type
REMARK                         _______ _______ _______ _____ _____    ______ ____
ROOT
ATOM      1  C   UNL     1       8.154   8.660  18.123  0.00  0.00    +0.000 C 
ATOM      2  O   UNL     1       8.676   7.874  18.917  0.00  0.00    +0.000 OA
ATOM      3  N   UNL     1       7.275   8.184  17.167  0.00  0.00    +0.000 N 
ATOM      4  H   UNL     1       6.834   8.834  16.531  0.00  0.00    +0.000 HD
ENDROOT
BRANCH   1   9
ATOM      5  C   UNL     1       9.325  10.911  18.939  0.00  0.00    +0.000 A 
ATOM      6  N   UNL     1       9.173  12.221  18.504  0.00  0.00    +0.000 NA
ATOM      7  C   UNL     1       8.290  12.190  17.541  0.00  0.00    +0.000 A 
ATOM      8  N   UNL     1       7.859  10.925  17.331  0.00  0.00    +0.000 N 
ATOM      9  C   UNL     1       8.498  10.061  18.214  0.00  0.00    +0.000 A 
ATOM     10  H   UNL     1       7.181  10.619  16.645  0.00  0.00    +0.000 HD
BRANCH   5  12
ATOM     11  C   UNL     1      11.268  11.875  20.182  0.00  0.00    +0.000 C 
ATOM     12  C   UNL     1      10.302  10.706  20.039  0.00  0.00    +0.000 C 
ENDBRANCH   5  12
ENDBRANCH   1   9
BRANCH   3  13
ATOM     13  C   UNL     1       6.982   6.718  17.167  0.00  0.00    +0.000 C 
ATOM     14  C   UNL     1       6.005   6.297  18.277  0.00  0.00    +0.000 C 
ATOM     15  C   UNL     1       4.884   6.136  17.214  0.00  0.00    +0.000 C 
ATOM     16  C   UNL     1       6.000   6.129  16.139  0.00  0.00    +0.000 C 
BRANCH  15  17
ATOM     17  C   UNL     1       3.902   4.902  17.472  0.00  0.00    +0.000 A 
ATOM     18  C   UNL     1       4.266   3.542  17.402  0.00  0.00    +0.000 A 
ATOM     19  C   UNL     1       3.355   2.520  17.711  0.00  0.00    +0.000 A 
ATOM     20  C   UNL     1       2.057   2.839  18.093  0.00  0.00    +0.000 A 
ATOM     21  F   UNL     1       1.196   1.861  18.401  0.00  0.00    +0.000 F 
ATOM     22  C   UNL     1       1.646   4.157  18.159  0.00  0.00    +0.000 A 
ATOM     23  C   UNL     1       2.563   5.157  17.847  0.00  0.00    +0.000 A 
ATOM     24  F   UNL     1       2.152   6.432  17.927  0.00  0.00    +0.000 F 
ENDBRANCH  15  17
ENDBRANCH   3  13
TORSDOF 4
ENDMDL
MODEL 7
REMARK VINA RESULT:      -7.2      1.203      1.511
REMARK  Name = 
REMARK  5 active torsions:
REMARK  status: ('A' for Active; 'I' for Inactive)
REMARK    1  A    between atoms: C_1  and  C_2
REMARK    2  A    between atoms: C_2  and  C_3
REMARK    3  A    between atoms: C_7  and  C_8
REMARK    4  A    between atoms: N_10  and  C_11
REMARK    5  A    between atoms: C_13  and  C_14
REMARK                            x       y       z     vdW  Elec       q    Type
REMARK                         _______ _______ _______ _____ _____    ______ ____
ROOT
ATOM      1  C   UNL     1       6.452   4.994  15.622  0.00  0.00    +0.000 C 
ATOM      2  O   UNL     1       6.556   4.017  16.367  0.00  0.00    +0.000 OA
ATOM      3  N   UNL     1       5.896   6.165  16.103  0.00  0.00    +0.000 N 
ATOM      4  H   UNL     1       5.829   6.970  15.495  0.00  0.00    +0.000 HD
ENDROOT
BRANCH   1   9
ATOM      5  C   UNL     1       6.562   4.234  13.069  0.00  0.00    +0.000 A 
ATOM      6  N   UNL     1       7.466   4.556  12.066  0.00  0.00    +0.000 NA
ATOM      7  C   UNL     1       8.340   5.365  12.602  0.00  0.00    +0.000 A 
ATOM      8  N   UNL     1       8.049   5.583  13.906  0.00  0.00    +0.000 N 
ATOM      9  C   UNL     1       6.908   4.871  14.256  0.00  0.00    +0.000 A 
ATOM     10  H   UNL     1       8.560   6.170  14.553  0.00  0.00    +0.000 HD
BRANCH   5  12
ATOM     11  C   UNL     1       5.887   2.324  11.604  0.00  0.00    +0.000 C 
ATOM     12  C   UNL     1       5.459   3.319  12.675  0.00  0.00    +0.000 C 
ENDBRANCH   5  12
ENDBRANCH   1   9
BRANCH   3  13
ATOM     13  C   UNL     1       5.464   6.188  17.534  0.00  0.00    +0.000 C 
ATOM     14  C   UNL     1       3.948   6.002  17.710  0.00  0.00    +0.000 C 
ATOM     15  C   UNL     1       4.195   4.549  18.202  0.00  0.00    +0.000 C 
ATOM     16  C   UNL     1       5.676   4.950  18.422  0.00  0.00    +0.000 C 
BRANCH  15  17
ATOM     17  C   UNL     1       3.226   4.078  19.382  0.00  0.00    +0.000 A 
ATOM     18  C   UNL     1       1.991   4.673  19.709  0.00  0.00    +0.000 A 
ATOM     19  C   UNL     1       1.168   4.152  20.720  0.00  0.00    +0.000 A 
ATOM     20  C   UNL     1       1.568   3.025  21.428  0.00  0.00    +0.000 A 
ATOM     21  F   UNL     1       0.773   2.523  22.381  0.00  0.00    +0.000 F 
ATOM     22  C   UNL     1       2.778   2.416  21.158  0.00  0.00    +0.000 A 
ATOM     23  C   UNL     1       3.582   2.948  20.154  0.00  0.00    +0.000 A 
ATOM     24  F   UNL     1       4.749   2.339  19.895  0.00  0.00    +0.000 F 
ENDBRANCH  15  17
ENDBRANCH   3  13
TORSDOF 4
ENDMDL
MODEL 8
REMARK VINA RESULT:      -7.1      3.069      3.708
REMARK  Name = 
REMARK  5 active torsions:
REMARK  status: ('A' for Active; 'I' for Inactive)
REMARK    1  A    between atoms: C_1  and  C_2
REMARK    2  A    between atoms: C_2  and  C_3
REMARK    3  A    between atoms: C_7  and  C_8
REMARK    4  A    between atoms: N_10  and  C_11
REMARK    5  A    between atoms: C_13  and  C_14
REMARK                            x       y       z     vdW  Elec       q    Type
REMARK                         _______ _______ _______ _____ _____    ______ ____
ROOT
ATOM      1  C   UNL     1       6.053   4.785  15.349  0.00  0.00    +0.000 C 
ATOM      2  O   UNL     1       6.037   3.784  16.071  0.00  0.00    +0.000 OA
ATOM      3  N   UNL     1       5.517   5.972  15.814  0.00  0.00    +0.000 N 
ATOM      4  H   UNL     1       5.549   6.794  15.228  0.00  0.00    +0.000 HD
ENDROOT
BRANCH   1   9
ATOM      5  C   UNL     1       6.458   3.946  12.852  0.00  0.00    +0.000 A 
ATOM      6  N   UNL     1       7.383   4.350  11.899  0.00  0.00    +0.000 NA
ATOM      7  C   UNL     1       8.096   5.294  12.454  0.00  0.00    +0.000 A 
ATOM      8  N   UNL     1       7.680   5.522  13.721  0.00  0.00    +0.000 N 
ATOM      9  C   UNL     1       6.624   4.671  14.026  0.00  0.00    +0.000 A 
ATOM     10  H   UNL     1       8.056   6.199  14.372  0.00  0.00    +0.000 HD
BRANCH   5  12
ATOM     11  C   UNL     1       4.446   3.379  11.480  0.00  0.00    +0.000 C 
ATOM     12  C   UNL     1       5.523   2.871  12.429  0.00  0.00    +0.000 C 
ENDBRANCH   5  12
ENDBRANCH   1   9
BRANCH   3  13
ATOM     13  C   UNL     1       4.960   5.982  17.201  0.00  0.00    +0.000 C 
ATOM     14  C   UNL     1       4.748   7.400  17.756  0.00  0.00    +0.000 C 
ATOM     15  C   UNL     1       3.216   7.241  17.549  0.00  0.00    +0.000 C 
ATOM     16  C   UNL     1       3.462   5.715  17.431  0.00  0.00    +0.000 C 
BRANCH  15  17
ATOM     17  C   UNL     1       2.322   7.903  18.696  0.00  0.00    +0.000 A 
ATOM     18  C   UNL     1       1.597   9.105  18.572  0.00  0.00    +0.000 A 
ATOM     19  C   UNL     1       0.780   9.581  19.609  0.00  0.00    +0.000 A 
ATOM     20  C   UNL     1       0.676   8.864  20.796  0.00  0.00    +0.000 A 
ATOM     21  F   UNL     1      -0.116   9.315  21.776  0.00  0.00    +0.000 F 
ATOM     22  C   UNL     1       1.381   7.689  20.973  0.00  0.00    +0.000 A 
ATOM     23  C   UNL     1       2.188   7.234  19.934  0.00  0.00    +0.000 A 
ATOM     24  F   UNL     1       2.858   6.085  20.117  0.00  0.00    +0.000 F 
ENDBRANCH  15  17
ENDBRANCH   3  13
TORSDOF 4
ENDMDL
MODEL 9
REMARK VINA RESULT:      -7.1      4.948      6.127
REMARK  Name = 
REMARK  5 active torsions:
REMARK  status: ('A' for Active; 'I' for Inactive)
REMARK    1  A    between atoms: C_1  and  C_2
REMARK    2  A    between atoms: C_2  and  C_3
REMARK    3  A    between atoms: C_7  and  C_8
REMARK    4  A    between atoms: N_10  and  C_11
REMARK    5  A    between atoms: C_13  and  C_14
REMARK                            x       y       z     vdW  Elec       q    Type
REMARK                         _______ _______ _______ _____ _____    ______ ____
ROOT
ATOM      1  C   UNL     1       4.047   5.788  17.308  0.00  0.00    +0.000 C 
ATOM      2  O   UNL     1       3.197   4.897  17.394  0.00  0.00    +0.000 OA
ATOM      3  N   UNL     1       3.704   7.092  17.617  0.00  0.00    +0.000 N 
ATOM      4  H   UNL     1       4.407   7.815  17.564  0.00  0.00    +0.000 HD
ENDROOT
BRANCH   1   9
ATOM      5  C   UNL     1       6.707   5.709  17.165  0.00  0.00    +0.000 A 
ATOM      6  N   UNL     1       7.549   4.991  16.327  0.00  0.00    +0.000 NA
ATOM      7  C   UNL     1       6.776   4.288  15.543  0.00  0.00    +0.000 A 
ATOM      8  N   UNL     1       5.473   4.516  15.829  0.00  0.00    +0.000 N 
ATOM      9  C   UNL     1       5.377   5.431  16.870  0.00  0.00    +0.000 A 
ATOM     10  H   UNL     1       4.669   4.100  15.377  0.00  0.00    +0.000 HD
BRANCH   5  12
ATOM     11  C   UNL     1       7.721   7.955  17.591  0.00  0.00    +0.000 C 
ATOM     12  C   UNL     1       7.381   6.584  18.160  0.00  0.00    +0.000 C 
ENDBRANCH   5  12
ENDBRANCH   1   9
BRANCH   3  13
ATOM     13  C   UNL     1       2.303   7.349  18.068  0.00  0.00    +0.000 C 
ATOM     14  C   UNL     1       2.168   7.439  19.597  0.00  0.00    +0.000 C 
ATOM     15  C   UNL     1       2.011   8.981  19.482  0.00  0.00    +0.000 C 
ATOM     16  C   UNL     1       1.712   8.767  17.976  0.00  0.00    +0.000 C 
BRANCH  15  17
ATOM     17  C   UNL     1       0.962   9.616  20.506  0.00  0.00    +0.000 A 
ATOM     18  C   UNL     1      -0.065  10.520  20.166  0.00  0.00    +0.000 A 
ATOM     19  C   UNL     1      -0.988  10.977  21.120  0.00  0.00    +0.000 A 
ATOM     20  C   UNL     1      -0.898  10.542  22.437  0.00  0.00    +0.000 A 
ATOM     21  F   UNL     1      -1.789  10.970  23.339  0.00  0.00    +0.000 F 
ATOM     22  C   UNL     1       0.102   9.671  22.824  0.00  0.00    +0.000 A 
ATOM     23  C   UNL     1       1.009   9.229  21.866  0.00  0.00    +0.000 A 
ATOM     24  F   UNL     1       1.968   8.375  22.255  0.00  0.00    +0.000 F 
ENDBRANCH  15  17
ENDBRANCH   3  13
TORSDOF 4
ENDMDL
