MODEL 1
REMARK VINA RESULT:      -7.8      0.000      0.000
REMARK  Name = 
REMARK  11 active torsions:
REMARK  status: ('A' for Active; 'I' for Inactive)
REMARK    1  A    between atoms: C_1  and  C_2
REMARK    2  A    between atoms: C_2  and  C_3
REMARK    3  A    between atoms: C_3  and  C_4
REMARK    4  A    between atoms: C_3  and  N_5
REMARK    5  A    between atoms: C_6  and  C_8
REMARK    6  A    between atoms: N_17  and  C_18
REMARK    7  A    between atoms: C_21  and  O_22
REMARK    8  A    between atoms: O_22  and  C_23
REMARK    9  A    between atoms: C_26  and  C_27
REMARK   10  A    between atoms: C_30  and  O_31
REMARK   11  A    between atoms: O_31  and  C_32
REMARK                            x       y       z     vdW  Elec       q    Type
REMARK                         _______ _______ _______ _____ _____    ______ ____
ROOT
ATOM      1  C   UNL     1       0.935  12.063  20.108  0.00  0.00    +0.000 C 
ATOM      2  C   UNL     1       0.013  12.259  21.300  0.00  0.00    +0.000 A 
ATOM      3  C   UNL     1      -0.481  13.512  21.687  0.00  0.00    +0.000 A 
ATOM      4  C   UNL     1      -1.408  13.630  22.727  0.00  0.00    +0.000 A 
ATOM      5  C   UNL     1      -1.826  12.503  23.426  0.00  0.00    +0.000 A 
ATOM      6  C   UNL     1      -1.297  11.259  23.111  0.00  0.00    +0.000 A 
ATOM      7  C   UNL     1      -0.381  11.132  22.055  0.00  0.00    +0.000 A 
ATOM      8  C   UNL     1       0.115   9.773  21.719  0.00  0.00    +0.000 C 
ATOM      9  O   UNL     1      -0.084   8.890  22.549  0.00  0.00    +0.000 OA
ATOM     10  N   UNL     1       0.765   9.632  20.484  0.00  0.00    +0.000 N 
ATOM     11  C   UNL     1       0.616  10.700  19.455  0.00  0.00    +0.000 C 
ENDROOT
BRANCH  10  12
ATOM     12  C   UNL     1       1.354   8.391  20.102  0.00  0.00    +0.000 A 
ATOM     13  C   UNL     1       1.240   7.258  20.911  0.00  0.00    +0.000 A 
ATOM     14  C   UNL     1       1.829   6.058  20.549  0.00  0.00    +0.000 A 
ATOM     15  C   UNL     1       2.537   5.960  19.357  0.00  0.00    +0.000 A 
ATOM     16  C   UNL     1       2.679   7.081  18.545  0.00  0.00    +0.000 A 
ATOM     17  C   UNL     1       2.073   8.283  18.906  0.00  0.00    +0.000 A 
BRANCH  15  18
ATOM     18  O   UNL     1       3.079   4.731  19.116  0.00  0.00    +0.000 OA
ATOM     19  C   UNL     1       4.479   4.707  18.872  0.00  0.00    +0.000 C 
ENDBRANCH  15  18
ENDBRANCH  10  12
BRANCH  11  20
ATOM     20  C   UNL     1      -0.720  10.552  18.701  0.00  0.00    +0.000 A 
ATOM     21  C   UNL     1      -0.802   9.834  17.495  0.00  0.00    +0.000 A 
ATOM     22  C   UNL     1      -1.924   9.943  16.665  0.00  0.00    +0.000 A 
ATOM     23  C   UNL     1      -3.009  10.736  17.034  0.00  0.00    +0.000 A 
ATOM     24  C   UNL     1      -2.975  11.386  18.260  0.00  0.00    +0.000 A 
ATOM     25  C   UNL     1      -1.859  11.271  19.090  0.00  0.00    +0.000 A 
BRANCH  23  26
ATOM     26  O   UNL     1      -4.022  10.850  16.125  0.00  0.00    +0.000 OA
ATOM     27  C   UNL     1      -3.745  10.290  14.842  0.00  0.00    +0.000 C 
ENDBRANCH  23  26
ENDBRANCH  11  20
BRANCH   1  29
ATOM     28  N   UNL     1       2.092  14.114  19.293  0.00  0.00    +0.000 N 
ATOM     29  C   UNL     1       1.029  13.239  19.096  0.00  0.00    +0.000 C 
ATOM     30  O   UNL     1       0.240  13.399  18.196  0.00  0.00    +0.000 OA
ATOM     31  H   UNL     1       2.911  13.781  19.772  0.00  0.00    +0.000 HD
BRANCH  28  32
ATOM     32  C   UNL     1       2.355  15.275  18.428  0.00  0.00    +0.000 C 
ATOM     33  C   UNL     1       3.738  15.101  17.792  0.00  0.00    +0.000 C 
BRANCH  32  35
ATOM     34  C   UNL     1       1.182  16.610  20.294  0.00  0.00    +0.000 C 
ATOM     35  C   UNL     1       2.312  16.570  19.272  0.00  0.00    +0.000 C 
ENDBRANCH  32  35
ENDBRANCH  28  32
ENDBRANCH   1  29
TORSDOF 7
ENDMDL
MODEL 2
REMARK VINA RESULT:      -7.5      0.947      1.398
REMARK  Name = 
REMARK  11 active torsions:
REMARK  status: ('A' for Active; 'I' for Inactive)
REMARK    1  A    between atoms: C_1  and  C_2
REMARK    2  A    between atoms: C_2  and  C_3
REMARK    3  A    between atoms: C_3  and  C_4
REMARK    4  A    between atoms: C_3  and  N_5
REMARK    5  A    between atoms: C_6  and  C_8
REMARK    6  A    between atoms: N_17  and  C_18
REMARK    7  A    between atoms: C_21  and  O_22
REMARK    8  A    between atoms: O_22  and  C_23
REMARK    9  A    between atoms: C_26  and  C_27
REMARK   10  A    between atoms: C_30  and  O_31
REMARK   11  A    between atoms: O_31  and  C_32
REMARK                            x       y       z     vdW  Elec       q    Type
REMARK                         _______ _______ _______ _____ _____    ______ ____
ROOT
ATOM      1  C   UNL     1       1.113  12.135  20.136  0.00  0.00    +0.000 C 
ATOM      2  C   UNL     1       0.174  12.349  21.310  0.00  0.00    +0.000 A 
ATOM      3  C   UNL     1      -0.286  13.614  21.701  0.00  0.00    +0.000 A 
ATOM      4  C   UNL     1      -1.230  13.752  22.724  0.00  0.00    +0.000 A 
ATOM      5  C   UNL     1      -1.700  12.632  23.401  0.00  0.00    +0.000 A 
ATOM      6  C   UNL     1      -1.207  11.375  23.082  0.00  0.00    +0.000 A 
ATOM      7  C   UNL     1      -0.274  11.228  22.045  0.00  0.00    +0.000 A 
ATOM      8  C   UNL     1       0.183   9.857  21.702  0.00  0.00    +0.000 C 
ATOM      9  O   UNL     1      -0.063   8.972  22.518  0.00  0.00    +0.000 OA
ATOM     10  N   UNL     1       0.853   9.708  20.480  0.00  0.00    +0.000 N 
ATOM     11  C   UNL     1       0.762  10.791  19.461  0.00  0.00    +0.000 C 
ENDROOT
BRANCH  10  12
ATOM     12  C   UNL     1       1.407   8.452  20.096  0.00  0.00    +0.000 A 
ATOM     13  C   UNL     1       2.071   8.297  18.876  0.00  0.00    +0.000 A 
ATOM     14  C   UNL     1       2.592   7.072  18.495  0.00  0.00    +0.000 A 
ATOM     15  C   UNL     1       2.472   5.970  19.335  0.00  0.00    +0.000 A 
ATOM     16  C   UNL     1       1.799   6.097  20.546  0.00  0.00    +0.000 A 
ATOM     17  C   UNL     1       1.288   7.335  20.932  0.00  0.00    +0.000 A 
BRANCH  15  18
ATOM     18  O   UNL     1       3.015   4.819  18.845  0.00  0.00    +0.000 OA
ATOM     19  C   UNL     1       2.245   3.639  19.036  0.00  0.00    +0.000 C 
ENDBRANCH  15  18
ENDBRANCH  10  12
BRANCH  11  20
ATOM     20  C   UNL     1      -0.563  10.696  18.677  0.00  0.00    +0.000 A 
ATOM     21  C   UNL     1      -0.745   9.739  17.663  0.00  0.00    +0.000 A 
ATOM     22  C   UNL     1      -1.812   9.837  16.762  0.00  0.00    +0.000 A 
ATOM     23  C   UNL     1      -2.745  10.866  16.872  0.00  0.00    +0.000 A 
ATOM     24  C   UNL     1      -2.623  11.770  17.917  0.00  0.00    +0.000 A 
ATOM     25  C   UNL     1      -1.564  11.668  18.820  0.00  0.00    +0.000 A 
BRANCH  23  26
ATOM     26  O   UNL     1      -3.702  10.931  15.899  0.00  0.00    +0.000 OA
ATOM     27  C   UNL     1      -3.387  10.229  14.698  0.00  0.00    +0.000 C 
ENDBRANCH  23  26
ENDBRANCH  11  20
BRANCH   1  29
ATOM     28  N   UNL     1       0.887  14.563  19.627  0.00  0.00    +0.000 N 
ATOM     29  C   UNL     1       1.267  13.318  19.139  0.00  0.00    +0.000 C 
ATOM     30  O   UNL     1       1.685  13.183  18.014  0.00  0.00    +0.000 OA
ATOM     31  H   UNL     1       0.905  14.721  20.620  0.00  0.00    +0.000 HD
BRANCH  28  32
ATOM     32  C   UNL     1       0.976  15.803  18.838  0.00  0.00    +0.000 C 
ATOM     33  C   UNL     1       1.737  16.846  19.662  0.00  0.00    +0.000 C 
BRANCH  32  35
ATOM     34  C   UNL     1      -0.476  17.610  17.712  0.00  0.00    +0.000 C 
ATOM     35  C   UNL     1      -0.447  16.312  18.510  0.00  0.00    +0.000 C 
ENDBRANCH  32  35
ENDBRANCH  28  32
ENDBRANCH   1  29
TORSDOF 7
ENDMDL
MODEL 3
REMARK VINA RESULT:      -7.5      0.903      1.290
REMARK  Name = 
REMARK  11 active torsions:
REMARK  status: ('A' for Active; 'I' for Inactive)
REMARK    1  A    between atoms: C_1  and  C_2
REMARK    2  A    between atoms: C_2  and  C_3
REMARK    3  A    between atoms: C_3  and  C_4
REMARK    4  A    between atoms: C_3  and  N_5
REMARK    5  A    between atoms: C_6  and  C_8
REMARK    6  A    between atoms: N_17  and  C_18
REMARK    7  A    between atoms: C_21  and  O_22
REMARK    8  A    between atoms: O_22  and  C_23
REMARK    9  A    between atoms: C_26  and  C_27
REMARK   10  A    between atoms: C_30  and  O_31
REMARK   11  A    between atoms: O_31  and  C_32
REMARK                            x       y       z     vdW  Elec       q    Type
REMARK                         _______ _______ _______ _____ _____    ______ ____
ROOT
ATOM      1  C   UNL     1       1.100  12.473  20.131  0.00  0.00    +0.000 C 
ATOM      2  C   UNL     1       0.159  12.649  21.310  0.00  0.00    +0.000 A 
ATOM      3  C   UNL     1      -0.286  13.903  21.753  0.00  0.00    +0.000 A 
ATOM      4  C   UNL     1      -1.232  14.009  22.777  0.00  0.00    +0.000 A 
ATOM      5  C   UNL     1      -1.720  12.868  23.404  0.00  0.00    +0.000 A 
ATOM      6  C   UNL     1      -1.242  11.619  23.034  0.00  0.00    +0.000 A 
ATOM      7  C   UNL     1      -0.307  11.504  21.995  0.00  0.00    +0.000 A 
ATOM      8  C   UNL     1       0.134  10.142  21.596  0.00  0.00    +0.000 C 
ATOM      9  O   UNL     1      -0.128   9.227  22.372  0.00  0.00    +0.000 OA
ATOM     10  N   UNL     1       0.807  10.037  20.371  0.00  0.00    +0.000 N 
ATOM     11  C   UNL     1       0.734  11.163  19.398  0.00  0.00    +0.000 C 
ENDROOT
BRANCH  10  12
ATOM     12  C   UNL     1       1.346   8.791  19.935  0.00  0.00    +0.000 A 
ATOM     13  C   UNL     1       1.360   7.676  20.777  0.00  0.00    +0.000 A 
ATOM     14  C   UNL     1       1.901   6.471  20.360  0.00  0.00    +0.000 A 
ATOM     15  C   UNL     1       2.433   6.350  19.081  0.00  0.00    +0.000 A 
ATOM     16  C   UNL     1       2.445   7.453  18.233  0.00  0.00    +0.000 A 
ATOM     17  C   UNL     1       1.887   8.659  18.651  0.00  0.00    +0.000 A 
BRANCH  15  18
ATOM     18  O   UNL     1       2.945   5.119  18.792  0.00  0.00    +0.000 OA
ATOM     19  C   UNL     1       2.146   4.295  17.954  0.00  0.00    +0.000 C 
ENDBRANCH  15  18
ENDBRANCH  10  12
BRANCH  11  20
ATOM     20  C   UNL     1      -0.589  11.119  18.607  0.00  0.00    +0.000 A 
ATOM     21  C   UNL     1      -1.671  11.950  18.947  0.00  0.00    +0.000 A 
ATOM     22  C   UNL     1      -2.952  11.711  18.435  0.00  0.00    +0.000 A 
ATOM     23  C   UNL     1      -3.179  10.666  17.541  0.00  0.00    +0.000 A 
ATOM     24  C   UNL     1      -2.104   9.889  17.135  0.00  0.00    +0.000 A 
ATOM     25  C   UNL     1      -0.826  10.131  17.640  0.00  0.00    +0.000 A 
BRANCH  23  26
ATOM     26  O   UNL     1      -4.474  10.456  17.161  0.00  0.00    +0.000 OA
ATOM     27  C   UNL     1      -5.455  10.868  18.112  0.00  0.00    +0.000 C 
ENDBRANCH  23  26
ENDBRANCH  11  20
BRANCH   1  29
ATOM     28  N   UNL     1       2.578  14.154  19.037  0.00  0.00    +0.000 N 
ATOM     29  C   UNL     1       1.274  13.695  19.186  0.00  0.00    +0.000 C 
ATOM     30  O   UNL     1       0.350  14.224  18.615  0.00  0.00    +0.000 OA
ATOM     31  H   UNL     1       3.338  13.515  19.198  0.00  0.00    +0.000 HD
BRANCH  28  32
ATOM     32  C   UNL     1       2.942  15.288  18.173  0.00  0.00    +0.000 C 
ATOM     33  C   UNL     1       4.407  15.125  17.754  0.00  0.00    +0.000 C 
BRANCH  32  35
ATOM     34  C   UNL     1       1.636  17.498  18.401  0.00  0.00    +0.000 C 
ATOM     35  C   UNL     1       2.750  16.613  18.948  0.00  0.00    +0.000 C 
ENDBRANCH  32  35
ENDBRANCH  28  32
ENDBRANCH   1  29
TORSDOF 7
ENDMDL
MODEL 4
REMARK VINA RESULT:      -7.4      0.896      1.256
REMARK  Name = 
REMARK  11 active torsions:
REMARK  status: ('A' for Active; 'I' for Inactive)
REMARK    1  A    between atoms: C_1  and  C_2
REMARK    2  A    between atoms: C_2  and  C_3
REMARK    3  A    between atoms: C_3  and  C_4
REMARK    4  A    between atoms: C_3  and  N_5
REMARK    5  A    between atoms: C_6  and  C_8
REMARK    6  A    between atoms: N_17  and  C_18
REMARK    7  A    between atoms: C_21  and  O_22
REMARK    8  A    between atoms: O_22  and  C_23
REMARK    9  A    between atoms: C_26  and  C_27
REMARK   10  A    between atoms: C_30  and  O_31
REMARK   11  A    between atoms: O_31  and  C_32
REMARK                            x       y       z     vdW  Elec       q    Type
REMARK                         _______ _______ _______ _____ _____    ______ ____
ROOT
ATOM      1  C   UNL     1       0.674  12.439  20.071  0.00  0.00    +0.000 C 
ATOM      2  C   UNL     1      -0.152  12.449  21.347  0.00  0.00    +0.000 A 
ATOM      3  C   UNL     1      -0.714  13.615  21.884  0.00  0.00    +0.000 A 
ATOM      4  C   UNL     1      -1.552  13.560  23.003  0.00  0.00    +0.000 A 
ATOM      5  C   UNL     1      -1.808  12.345  23.629  0.00  0.00    +0.000 A 
ATOM      6  C   UNL     1      -1.204  11.186  23.161  0.00  0.00    +0.000 A 
ATOM      7  C   UNL     1      -0.379  11.232  22.028  0.00  0.00    +0.000 A 
ATOM      8  C   UNL     1       0.200   9.957  21.531  0.00  0.00    +0.000 C 
ATOM      9  O   UNL     1       0.152   8.994  22.291  0.00  0.00    +0.000 OA
ATOM     10  N   UNL     1       0.746   9.980  20.240  0.00  0.00    +0.000 N 
ATOM     11  C   UNL     1       0.415  11.110  19.327  0.00  0.00    +0.000 C 
ENDROOT
BRANCH  10  12
ATOM     12  C   UNL     1       1.402   8.834  19.701  0.00  0.00    +0.000 A 
ATOM     13  C   UNL     1       1.870   8.822  18.385  0.00  0.00    +0.000 A 
ATOM     14  C   UNL     1       2.491   7.703  17.856  0.00  0.00    +0.000 A 
ATOM     15  C   UNL     1       2.668   6.568  18.639  0.00  0.00    +0.000 A 
ATOM     16  C   UNL     1       2.193   6.551  19.947  0.00  0.00    +0.000 A 
ATOM     17  C   UNL     1       1.582   7.685  20.479  0.00  0.00    +0.000 A 
BRANCH  15  18
ATOM     18  O   UNL     1       3.281   5.527  18.004  0.00  0.00    +0.000 OA
ATOM     19  C   UNL     1       4.447   5.854  17.260  0.00  0.00    +0.000 C 
ENDBRANCH  15  18
ENDBRANCH  10  12
BRANCH  11  20
ATOM     20  C   UNL     1      -0.966  10.900  18.673  0.00  0.00    +0.000 A 
ATOM     21  C   UNL     1      -1.094  10.274  17.422  0.00  0.00    +0.000 A 
ATOM     22  C   UNL     1      -2.291  10.345  16.698  0.00  0.00    +0.000 A 
ATOM     23  C   UNL     1      -3.400  11.007  17.221  0.00  0.00    +0.000 A 
ATOM     24  C   UNL     1      -3.312  11.560  18.490  0.00  0.00    +0.000 A 
ATOM     25  C   UNL     1      -2.122  11.483  19.213  0.00  0.00    +0.000 A 
BRANCH  23  26
ATOM     26  O   UNL     1      -4.496  11.099  16.410  0.00  0.00    +0.000 OA
ATOM     27  C   UNL     1      -5.528  11.960  16.888  0.00  0.00    +0.000 C 
ENDBRANCH  23  26
ENDBRANCH  11  20
BRANCH   1  29
ATOM     28  N   UNL     1       1.607  14.618  19.307  0.00  0.00    +0.000 N 
ATOM     29  C   UNL     1       0.575  13.697  19.165  0.00  0.00    +0.000 C 
ATOM     30  O   UNL     1      -0.330  13.880  18.386  0.00  0.00    +0.000 OA
ATOM     31  H   UNL     1       2.497  14.299  19.650  0.00  0.00    +0.000 HD
BRANCH  28  32
ATOM     32  C   UNL     1       1.696  15.861  18.524  0.00  0.00    +0.000 C 
ATOM     33  C   UNL     1       3.174  16.149  18.241  0.00  0.00    +0.000 C 
BRANCH  32  35
ATOM     34  C   UNL     1       2.082  17.921  20.023  0.00  0.00    +0.000 C 
ATOM     35  C   UNL     1       1.066  17.025  19.325  0.00  0.00    +0.000 C 
ENDBRANCH  32  35
ENDBRANCH  28  32
ENDBRANCH   1  29
TORSDOF 7
ENDMDL
MODEL 5
REMARK VINA RESULT:      -7.4      0.969      1.054
REMARK  Name = 
REMARK  11 active torsions:
REMARK  status: ('A' for Active; 'I' for Inactive)
REMARK    1  A    between atoms: C_1  and  C_2
REMARK    2  A    between atoms: C_2  and  C_3
REMARK    3  A    between atoms: C_3  and  C_4
REMARK    4  A    between atoms: C_3  and  N_5
REMARK    5  A    between atoms: C_6  and  C_8
REMARK    6  A    between atoms: N_17  and  C_18
REMARK    7  A    between atoms: C_21  and  O_22
REMARK    8  A    between atoms: O_22  and  C_23
REMARK    9  A    between atoms: C_26  and  C_27
REMARK   10  A    between atoms: C_30  and  O_31
REMARK   11  A    between atoms: O_31  and  C_32
REMARK                            x       y       z     vdW  Elec       q    Type
REMARK                         _______ _______ _______ _____ _____    ______ ____
ROOT
ATOM      1  C   UNL     1       0.560  12.735  20.088  0.00  0.00    +0.000 C 
ATOM      2  C   UNL     1      -0.277  12.780  21.356  0.00  0.00    +0.000 A 
ATOM      3  C   UNL     1      -0.832  13.963  21.863  0.00  0.00    +0.000 A 
ATOM      4  C   UNL     1      -1.680  13.939  22.975  0.00  0.00    +0.000 A 
ATOM      5  C   UNL     1      -1.954  12.741  23.624  0.00  0.00    +0.000 A 
ATOM      6  C   UNL     1      -1.359  11.566  23.186  0.00  0.00    +0.000 A 
ATOM      7  C   UNL     1      -0.522  11.580  22.059  0.00  0.00    +0.000 A 
ATOM      8  C   UNL     1       0.047  10.289  21.594  0.00  0.00    +0.000 C 
ATOM      9  O   UNL     1      -0.018   9.343  22.374  0.00  0.00    +0.000 OA
ATOM     10  N   UNL     1       0.606  10.279  20.308  0.00  0.00    +0.000 N 
ATOM     11  C   UNL     1       0.295  11.394  19.369  0.00  0.00    +0.000 C 
ENDROOT
BRANCH  10  12
ATOM     12  C   UNL     1       1.255   9.116  19.800  0.00  0.00    +0.000 A 
ATOM     13  C   UNL     1       1.515   8.016  20.620  0.00  0.00    +0.000 A 
ATOM     14  C   UNL     1       2.163   6.895  20.130  0.00  0.00    +0.000 A 
ATOM     15  C   UNL     1       2.556   6.843  18.798  0.00  0.00    +0.000 A 
ATOM     16  C   UNL     1       2.324   7.934  17.967  0.00  0.00    +0.000 A 
ATOM     17  C   UNL     1       1.659   9.055  18.461  0.00  0.00    +0.000 A 
BRANCH  15  18
ATOM     18  O   UNL     1       3.194   5.692  18.437  0.00  0.00    +0.000 OA
ATOM     19  C   UNL     1       4.059   5.129  19.415  0.00  0.00    +0.000 C 
ENDBRANCH  15  18
ENDBRANCH  10  12
BRANCH  11  20
ATOM     20  C   UNL     1      -1.082  11.185  18.707  0.00  0.00    +0.000 A 
ATOM     21  C   UNL     1      -1.194  10.707  17.390  0.00  0.00    +0.000 A 
ATOM     22  C   UNL     1      -2.404  10.796  16.691  0.00  0.00    +0.000 A 
ATOM     23  C   UNL     1      -3.541  11.324  17.299  0.00  0.00    +0.000 A 
ATOM     24  C   UNL     1      -3.465  11.724  18.625  0.00  0.00    +0.000 A 
ATOM     25  C   UNL     1      -2.261  11.629  19.324  0.00  0.00    +0.000 A 
BRANCH  23  26
ATOM     26  O   UNL     1      -4.653  11.449  16.515  0.00  0.00    +0.000 OA
ATOM     27  C   UNL     1      -5.679  12.280  17.054  0.00  0.00    +0.000 C 
ENDBRANCH  23  26
ENDBRANCH  11  20
BRANCH   1  29
ATOM     28  N   UNL     1       1.437  14.959  19.389  0.00  0.00    +0.000 N 
ATOM     29  C   UNL     1       0.483  13.975  19.155  0.00  0.00    +0.000 C 
ATOM     30  O   UNL     1      -0.343  14.094  18.282  0.00  0.00    +0.000 OA
ATOM     31  H   UNL     1       2.303  14.699  19.830  0.00  0.00    +0.000 HD
BRANCH  28  32
ATOM     32  C   UNL     1       1.534  16.197  18.599  0.00  0.00    +0.000 C 
ATOM     33  C   UNL     1       2.823  16.143  17.772  0.00  0.00    +0.000 C 
BRANCH  32  35
ATOM     34  C   UNL     1       0.389  17.467  20.526  0.00  0.00    +0.000 C 
ATOM     35  C   UNL     1       1.557  17.418  19.548  0.00  0.00    +0.000 C 
ENDBRANCH  32  35
ENDBRANCH  28  32
ENDBRANCH   1  29
TORSDOF 7
ENDMDL
MODEL 6
REMARK VINA RESULT:      -7.3      2.446      6.481
REMARK  Name = 
REMARK  11 active torsions:
REMARK  status: ('A' for Active; 'I' for Inactive)
REMARK    1  A    between atoms: C_1  and  C_2
REMARK    2  A    between atoms: C_2  and  C_3
REMARK    3  A    between atoms: C_3  and  C_4
REMARK    4  A    between atoms: C_3  and  N_5
REMARK    5  A    between atoms: C_6  and  C_8
REMARK    6  A    between atoms: N_17  and  C_18
REMARK    7  A    between atoms: C_21  and  O_22
REMARK    8  A    between atoms: O_22  and  C_23
REMARK    9  A    between atoms: C_26  and  C_27
REMARK   10  A    between atoms: C_30  and  O_31
REMARK   11  A    between atoms: O_31  and  C_32
REMARK                            x       y       z     vdW  Elec       q    Type
REMARK                         _______ _______ _______ _____ _____    ______ ____
ROOT
ATOM      1  C   UNL     1      -2.449  12.875  19.580  0.00  0.00    +0.000 C 
ATOM      2  C   UNL     1      -2.686  12.924  21.080  0.00  0.00    +0.000 A 
ATOM      3  C   UNL     1      -3.877  12.492  21.680  0.00  0.00    +0.000 A 
ATOM      4  C   UNL     1      -4.010  12.461  23.071  0.00  0.00    +0.000 A 
ATOM      5  C   UNL     1      -2.973  12.899  23.887  0.00  0.00    +0.000 A 
ATOM      6  C   UNL     1      -1.811  13.400  23.316  0.00  0.00    +0.000 A 
ATOM      7  C   UNL     1      -1.663  13.416  21.921  0.00  0.00    +0.000 A 
ATOM      8  C   UNL     1      -0.380  13.909  21.358  0.00  0.00    +0.000 C 
ATOM      9  O   UNL     1       0.358  14.527  22.122  0.00  0.00    +0.000 OA
ATOM     10  N   UNL     1      -0.138  13.621  20.007  0.00  0.00    +0.000 N 
ATOM     11  C   UNL     1      -0.954  12.577  19.326  0.00  0.00    +0.000 C 
ENDROOT
BRANCH  10  12
ATOM     12  C   UNL     1       1.023  14.121  19.348  0.00  0.00    +0.000 A 
ATOM     13  C   UNL     1       2.168  13.334  19.203  0.00  0.00    +0.000 A 
ATOM     14  C   UNL     1       3.301  13.827  18.579  0.00  0.00    +0.000 A 
ATOM     15  C   UNL     1       3.312  15.122  18.072  0.00  0.00    +0.000 A 
ATOM     16  C   UNL     1       2.189  15.930  18.221  0.00  0.00    +0.000 A 
ATOM     17  C   UNL     1       1.046  15.425  18.837  0.00  0.00    +0.000 A 
BRANCH  15  18
ATOM     18  O   UNL     1       4.488  15.496  17.490  0.00  0.00    +0.000 OA
ATOM     19  C   UNL     1       5.634  14.743  17.866  0.00  0.00    +0.000 C 
ENDBRANCH  15  18
ENDBRANCH  10  12
BRANCH  11  20
ATOM     20  C   UNL     1      -0.428  11.166  19.659  0.00  0.00    +0.000 A 
ATOM     21  C   UNL     1      -0.517  10.642  20.960  0.00  0.00    +0.000 A 
ATOM     22  C   UNL     1       0.212   9.505  21.331  0.00  0.00    +0.000 A 
ATOM     23  C   UNL     1       1.015   8.841  20.406  0.00  0.00    +0.000 A 
ATOM     24  C   UNL     1       1.049   9.301  19.098  0.00  0.00    +0.000 A 
ATOM     25  C   UNL     1       0.317  10.429  18.726  0.00  0.00    +0.000 A 
BRANCH  23  26
ATOM     26  O   UNL     1       1.755   7.794  20.878  0.00  0.00    +0.000 OA
ATOM     27  C   UNL     1       2.285   6.930  19.874  0.00  0.00    +0.000 C 
ENDBRANCH  23  26
ENDBRANCH  11  20
BRANCH   1  29
ATOM     28  N   UNL     1      -4.668  12.541  18.498  0.00  0.00    +0.000 N 
ATOM     29  C   UNL     1      -3.417  11.988  18.747  0.00  0.00    +0.000 C 
ATOM     30  O   UNL     1      -3.120  10.891  18.339  0.00  0.00    +0.000 OA
ATOM     31  H   UNL     1      -4.766  13.542  18.508  0.00  0.00    +0.000 HD
BRANCH  28  32
ATOM     32  C   UNL     1      -5.712  11.860  17.715  0.00  0.00    +0.000 C 
ATOM     33  C   UNL     1      -6.640  12.925  17.120  0.00  0.00    +0.000 C 
BRANCH  32  35
ATOM     34  C   UNL     1      -7.139  11.588  19.843  0.00  0.00    +0.000 C 
ATOM     35  C   UNL     1      -6.509  10.906  18.634  0.00  0.00    +0.000 C 
ENDBRANCH  32  35
ENDBRANCH  28  32
ENDBRANCH   1  29
TORSDOF 7
ENDMDL
MODEL 7
REMARK VINA RESULT:      -7.2      1.035      1.716
REMARK  Name = 
REMARK  11 active torsions:
REMARK  status: ('A' for Active; 'I' for Inactive)
REMARK    1  A    between atoms: C_1  and  C_2
REMARK    2  A    between atoms: C_2  and  C_3
REMARK    3  A    between atoms: C_3  and  C_4
REMARK    4  A    between atoms: C_3  and  N_5
REMARK    5  A    between atoms: C_6  and  C_8
REMARK    6  A    between atoms: N_17  and  C_18
REMARK    7  A    between atoms: C_21  and  O_22
REMARK    8  A    between atoms: O_22  and  C_23
REMARK    9  A    between atoms: C_26  and  C_27
REMARK   10  A    between atoms: C_30  and  O_31
REMARK   11  A    between atoms: O_31  and  C_32
REMARK                            x       y       z     vdW  Elec       q    Type
REMARK                         _______ _______ _______ _____ _____    ______ ____
ROOT
ATOM      1  C   UNL     1       1.298  12.217  20.274  0.00  0.00    +0.000 C 
ATOM      2  C   UNL     1       0.269  12.381  21.380  0.00  0.00    +0.000 A 
ATOM      3  C   UNL     1      -0.173  13.631  21.835  0.00  0.00    +0.000 A 
ATOM      4  C   UNL     1      -1.196  13.731  22.783  0.00  0.00    +0.000 A 
ATOM      5  C   UNL     1      -1.766  12.584  23.324  0.00  0.00    +0.000 A 
ATOM      6  C   UNL     1      -1.297  11.334  22.945  0.00  0.00    +0.000 A 
ATOM      7  C   UNL     1      -0.284  11.227  21.980  0.00  0.00    +0.000 A 
ATOM      8  C   UNL     1       0.147   9.867  21.566  0.00  0.00    +0.000 C 
ATOM      9  O   UNL     1      -0.203   8.933  22.282  0.00  0.00    +0.000 OA
ATOM     10  N   UNL     1       0.914   9.784  20.395  0.00  0.00    +0.000 N 
ATOM     11  C   UNL     1       0.954  10.947  19.464  0.00  0.00    +0.000 C 
ENDROOT
BRANCH  10  12
ATOM     12  C   UNL     1       1.450   8.538  19.956  0.00  0.00    +0.000 A 
ATOM     13  C   UNL     1       2.044   8.409  18.698  0.00  0.00    +0.000 A 
ATOM     14  C   UNL     1       2.547   7.194  18.264  0.00  0.00    +0.000 A 
ATOM     15  C   UNL     1       2.478   6.077  19.089  0.00  0.00    +0.000 A 
ATOM     16  C   UNL     1       1.875   6.178  20.339  0.00  0.00    +0.000 A 
ATOM     17  C   UNL     1       1.383   7.406  20.776  0.00  0.00    +0.000 A 
BRANCH  15  18
ATOM     18  O   UNL     1       2.997   4.937  18.547  0.00  0.00    +0.000 OA
ATOM     19  C   UNL     1       3.991   4.278  19.320  0.00  0.00    +0.000 C 
ENDBRANCH  15  18
ENDBRANCH  10  12
BRANCH  11  20
ATOM     20  C   UNL     1      -0.301  10.975  18.568  0.00  0.00    +0.000 A 
ATOM     21  C   UNL     1      -1.264  11.992  18.691  0.00  0.00    +0.000 A 
ATOM     22  C   UNL     1      -2.527  11.865  18.101  0.00  0.00    +0.000 A 
ATOM     23  C   UNL     1      -2.848  10.742  17.341  0.00  0.00    +0.000 A 
ATOM     24  C   UNL     1      -1.880   9.768  17.145  0.00  0.00    +0.000 A 
ATOM     25  C   UNL     1      -0.619   9.899  17.727  0.00  0.00    +0.000 A 
BRANCH  23  26
ATOM     26  O   UNL     1      -4.130  10.664  16.876  0.00  0.00    +0.000 OA
ATOM     27  C   UNL     1      -5.025  11.638  17.411  0.00  0.00    +0.000 C 
ENDBRANCH  23  26
ENDBRANCH  11  20
BRANCH   1  29
ATOM     28  N   UNL     1       0.801  14.582  19.670  0.00  0.00    +0.000 N 
ATOM     29  C   UNL     1       1.584  13.466  19.395  0.00  0.00    +0.000 C 
ATOM     30  O   UNL     1       2.423  13.484  18.526  0.00  0.00    +0.000 OA
ATOM     31  H   UNL     1       0.401  14.679  20.588  0.00  0.00    +0.000 HD
BRANCH  28  32
ATOM     32  C   UNL     1       0.937  15.862  18.955  0.00  0.00    +0.000 C 
ATOM     33  C   UNL     1       1.541  16.890  19.916  0.00  0.00    +0.000 C 
BRANCH  32  35
ATOM     34  C   UNL     1      -0.451  17.713  17.821  0.00  0.00    +0.000 C 
ATOM     35  C   UNL     1      -0.453  16.333  18.469  0.00  0.00    +0.000 C 
ENDBRANCH  32  35
ENDBRANCH  28  32
ENDBRANCH   1  29
TORSDOF 7
ENDMDL
MODEL 8
REMARK VINA RESULT:      -7.2      2.695      6.705
REMARK  Name = 
REMARK  11 active torsions:
REMARK  status: ('A' for Active; 'I' for Inactive)
REMARK    1  A    between atoms: C_1  and  C_2
REMARK    2  A    between atoms: C_2  and  C_3
REMARK    3  A    between atoms: C_3  and  C_4
REMARK    4  A    between atoms: C_3  and  N_5
REMARK    5  A    between atoms: C_6  and  C_8
REMARK    6  A    between atoms: N_17  and  C_18
REMARK    7  A    between atoms: C_21  and  O_22
REMARK    8  A    between atoms: O_22  and  C_23
REMARK    9  A    between atoms: C_26  and  C_27
REMARK   10  A    between atoms: C_30  and  O_31
REMARK   11  A    between atoms: O_31  and  C_32
REMARK                            x       y       z     vdW  Elec       q    Type
REMARK                         _______ _______ _______ _____ _____    ______ ____
ROOT
ATOM      1  C   UNL     1      -1.024  12.641  22.297  0.00  0.00    +0.000 C 
ATOM      2  C   UNL     1      -0.480  11.247  22.032  0.00  0.00    +0.000 A 
ATOM      3  C   UNL     1      -0.829  10.131  22.804  0.00  0.00    +0.000 A 
ATOM      4  C   UNL     1      -0.384   8.851  22.459  0.00  0.00    +0.000 A 
ATOM      5  C   UNL     1       0.451   8.669  21.362  0.00  0.00    +0.000 A 
ATOM      6  C   UNL     1       0.871   9.768  20.624  0.00  0.00    +0.000 A 
ATOM      7  C   UNL     1       0.412  11.052  20.953  0.00  0.00    +0.000 A 
ATOM      8  C   UNL     1       0.843  12.190  20.101  0.00  0.00    +0.000 C 
ATOM      9  O   UNL     1       1.784  11.984  19.339  0.00  0.00    +0.000 OA
ATOM     10  N   UNL     1       0.131  13.388  20.251  0.00  0.00    +0.000 N 
ATOM     11  C   UNL     1      -1.187  13.373  20.946  0.00  0.00    +0.000 C 
ENDROOT
BRANCH  10  12
ATOM     12  C   UNL     1       0.518  14.564  19.543  0.00  0.00    +0.000 A 
ATOM     13  C   UNL     1       1.864  14.871  19.332  0.00  0.00    +0.000 A 
ATOM     14  C   UNL     1       2.239  16.023  18.661  0.00  0.00    +0.000 A 
ATOM     15  C   UNL     1       1.271  16.893  18.174  0.00  0.00    +0.000 A 
ATOM     16  C   UNL     1      -0.076  16.617  18.390  0.00  0.00    +0.000 A 
ATOM     17  C   UNL     1      -0.449  15.450  19.052  0.00  0.00    +0.000 A 
BRANCH  15  18
ATOM     18  O   UNL     1       1.764  17.997  17.542  0.00  0.00    +0.000 OA
ATOM     19  C   UNL     1       0.991  18.488  16.454  0.00  0.00    +0.000 C 
ENDBRANCH  15  18
ENDBRANCH  10  12
BRANCH  11  20
ATOM     20  C   UNL     1      -2.304  12.899  19.993  0.00  0.00    +0.000 A 
ATOM     21  C   UNL     1      -3.660  13.090  20.307  0.00  0.00    +0.000 A 
ATOM     22  C   UNL     1      -4.665  12.412  19.606  0.00  0.00    +0.000 A 
ATOM     23  C   UNL     1      -4.346  11.560  18.550  0.00  0.00    +0.000 A 
ATOM     24  C   UNL     1      -3.016  11.426  18.178  0.00  0.00    +0.000 A 
ATOM     25  C   UNL     1      -2.016  12.107  18.872  0.00  0.00    +0.000 A 
BRANCH  23  26
ATOM     26  O   UNL     1      -5.383  10.876  17.981  0.00  0.00    +0.000 OA
ATOM     27  C   UNL     1      -6.681  11.291  18.403  0.00  0.00    +0.000 C 
ENDBRANCH  23  26
ENDBRANCH  11  20
BRANCH   1  29
ATOM     28  N   UNL     1      -2.601  14.024  23.641  0.00  0.00    +0.000 N 
ATOM     29  C   UNL     1      -2.271  12.741  23.220  0.00  0.00    +0.000 C 
ATOM     30  O   UNL     1      -2.918  11.779  23.561  0.00  0.00    +0.000 OA
ATOM     31  H   UNL     1      -2.312  14.807  23.080  0.00  0.00    +0.000 HD
BRANCH  28  32
ATOM     32  C   UNL     1      -3.756  14.320  24.504  0.00  0.00    +0.000 C 
ATOM     33  C   UNL     1      -5.003  14.435  23.621  0.00  0.00    +0.000 C 
BRANCH  32  35
ATOM     34  C   UNL     1      -4.498  16.754  24.912  0.00  0.00    +0.000 C 
ATOM     35  C   UNL     1      -3.510  15.646  25.261  0.00  0.00    +0.000 C 
ENDBRANCH  32  35
ENDBRANCH  28  32
ENDBRANCH   1  29
TORSDOF 7
ENDMDL
MODEL 9
REMARK VINA RESULT:      -7.2      1.073      1.242
REMARK  Name = 
REMARK  11 active torsions:
REMARK  status: ('A' for Active; 'I' for Inactive)
REMARK    1  A    between atoms: C_1  and  C_2
REMARK    2  A    between atoms: C_2  and  C_3
REMARK    3  A    between atoms: C_3  and  C_4
REMARK    4  A    between atoms: C_3  and  N_5
REMARK    5  A    between atoms: C_6  and  C_8
REMARK    6  A    between atoms: N_17  and  C_18
REMARK    7  A    between atoms: C_21  and  O_22
REMARK    8  A    between atoms: O_22  and  C_23
REMARK    9  A    between atoms: C_26  and  C_27
REMARK   10  A    between atoms: C_30  and  O_31
REMARK   11  A    between atoms: O_31  and  C_32
REMARK                            x       y       z     vdW  Elec       q    Type
REMARK                         _______ _______ _______ _____ _____    ______ ____
ROOT
ATOM      1  C   UNL     1       0.999  12.144  20.083  0.00  0.00    +0.000 C 
ATOM      2  C   UNL     1       0.130  12.350  21.313  0.00  0.00    +0.000 A 
ATOM      3  C   UNL     1      -0.330  13.609  21.722  0.00  0.00    +0.000 A 
ATOM      4  C   UNL     1      -1.212  13.736  22.800  0.00  0.00    +0.000 A 
ATOM      5  C   UNL     1      -1.616  12.613  23.514  0.00  0.00    +0.000 A 
ATOM      6  C   UNL     1      -1.117  11.363  23.174  0.00  0.00    +0.000 A 
ATOM      7  C   UNL     1      -0.248  11.226  22.082  0.00  0.00    +0.000 A 
ATOM      8  C   UNL     1       0.216   9.861  21.722  0.00  0.00    +0.000 C 
ATOM      9  O   UNL     1       0.039   8.979  22.558  0.00  0.00    +0.000 OA
ATOM     10  N   UNL     1       0.811   9.715  20.462  0.00  0.00    +0.000 N 
ATOM     11  C   UNL     1       0.634  10.787  19.442  0.00  0.00    +0.000 C 
ENDROOT
BRANCH  10  12
ATOM     12  C   UNL     1       1.366   8.467  20.053  0.00  0.00    +0.000 A 
ATOM     13  C   UNL     1       1.300   7.342  20.878  0.00  0.00    +0.000 A 
ATOM     14  C   UNL     1       1.856   6.135  20.489  0.00  0.00    +0.000 A 
ATOM     15  C   UNL     1       2.485   6.022  19.254  0.00  0.00    +0.000 A 
ATOM     16  C   UNL     1       2.578   7.135  18.424  0.00  0.00    +0.000 A 
ATOM     17  C   UNL     1       2.005   8.343  18.813  0.00  0.00    +0.000 A 
BRANCH  15  18
ATOM     18  O   UNL     1       3.002   4.788  18.989  0.00  0.00    +0.000 OA
ATOM     19  C   UNL     1       2.646   3.757  19.900  0.00  0.00    +0.000 C 
ENDBRANCH  15  18
ENDBRANCH  10  12
BRANCH  11  20
ATOM     20  C   UNL     1      -0.734  10.659  18.743  0.00  0.00    +0.000 A 
ATOM     21  C   UNL     1      -0.878   9.936  17.546  0.00  0.00    +0.000 A 
ATOM     22  C   UNL     1      -2.031  10.061  16.762  0.00  0.00    +0.000 A 
ATOM     23  C   UNL     1      -3.085  10.876  17.170  0.00  0.00    +0.000 A 
ATOM     24  C   UNL     1      -2.989  11.531  18.389  0.00  0.00    +0.000 A 
ATOM     25  C   UNL     1      -1.843  11.401  19.173  0.00  0.00    +0.000 A 
BRANCH  23  26
ATOM     26  O   UNL     1      -4.132  11.002  16.302  0.00  0.00    +0.000 OA
ATOM     27  C   UNL     1      -5.127  11.947  16.693  0.00  0.00    +0.000 C 
ENDBRANCH  23  26
ENDBRANCH  11  20
BRANCH   1  29
ATOM     28  N   UNL     1       0.369  14.466  19.438  0.00  0.00    +0.000 N 
ATOM     29  C   UNL     1       1.067  13.321  19.070  0.00  0.00    +0.000 C 
ATOM     30  O   UNL     1       1.677  13.262  18.029  0.00  0.00    +0.000 OA
ATOM     31  H   UNL     1       0.197  14.637  20.414  0.00  0.00    +0.000 HD
BRANCH  28  32
ATOM     32  C   UNL     1       0.329  15.688  18.617  0.00  0.00    +0.000 C 
ATOM     33  C   UNL     1       1.629  16.466  18.846  0.00  0.00    +0.000 C 
BRANCH  32  35
ATOM     34  C   UNL     1      -1.096  17.786  18.163  0.00  0.00    +0.000 C 
ATOM     35  C   UNL     1      -0.889  16.547  19.027  0.00  0.00    +0.000 C 
ENDBRANCH  32  35
ENDBRANCH  28  32
ENDBRANCH   1  29
TORSDOF 7
ENDMDL
