MODEL 1
REMARK VINA RESULT:      -8.6      0.000      0.000
REMARK  Name = 
REMARK  10 active torsions:
REMARK  status: ('A' for Active; 'I' for Inactive)
REMARK    1  A    between atoms: C_1  and  C_2
REMARK    2  A    between atoms: C_2  and  N_3
REMARK    3  A    between atoms: N_3  and  C_4
REMARK    4  A    between atoms: N_3  and  C_6
REMARK    5  A    between atoms: C_4  and  C_5
REMARK    6  A    between atoms: C_9  and  N_10
REMARK    7  A    between atoms: C_11  and  C_13
REMARK    8  A    between atoms: C_14  and  C_15
REMARK    9  A    between atoms: C_18  and  N_19
REMARK   10  A    between atoms: C_26  and  C_27
REMARK                            x       y       z     vdW  Elec       q    Type
REMARK                         _______ _______ _______ _____ _____    ______ ____
ROOT
ATOM      1  N   UNL     1       2.700   6.364  20.025  0.00  0.00    +0.000 N 
ATOM      2  C   UNL     1       2.504   5.178  19.327  0.00  0.00    +0.000 C 
ATOM      3  O   UNL     1       1.808   5.068  18.323  0.00  0.00    +0.000 OA
ATOM      4  H   UNL     1       3.420   6.392  20.734  0.00  0.00    +0.000 HD
ENDROOT
BRANCH   1   8
ATOM      5  C   UNL     1       0.872  10.044  18.835  0.00  0.00    +0.000 A 
ATOM      6  C   UNL     1       0.740   9.544  20.132  0.00  0.00    +0.000 A 
ATOM      7  C   UNL     1       1.360   8.363  20.539  0.00  0.00    +0.000 A 
ATOM      8  C   UNL     1       2.123   7.603  19.653  0.00  0.00    +0.000 A 
ATOM      9  C   UNL     1       2.292   8.101  18.350  0.00  0.00    +0.000 A 
ATOM     10  C   UNL     1       1.668   9.292  17.954  0.00  0.00    +0.000 A 
BRANCH   5  11
ATOM     11  N   UNL     1       0.268  11.248  18.439  0.00  0.00    +0.000 N 
BRANCH  11  13
ATOM     12  C   UNL     1       2.211  12.866  18.293  0.00  0.00    +0.000 C 
ATOM     13  C   UNL     1       0.899  12.480  18.959  0.00  0.00    +0.000 C 
ENDBRANCH  11  13
BRANCH  11  14
ATOM     14  C   UNL     1      -1.188  11.196  18.198  0.00  0.00    +0.000 C 
ATOM     15  C   UNL     1      -2.056  11.809  19.300  0.00  0.00    +0.000 C 
ENDBRANCH  11  14
ENDBRANCH   5  11
ENDBRANCH   1   8
BRANCH   2  16
ATOM     16  C   UNL     1       3.244   4.018  19.780  0.00  0.00    +0.000 A 
ATOM     17  C   UNL     1       4.322   3.367  19.087  0.00  0.00    +0.000 A 
ATOM     18  N   UNL     1       4.670   2.240  19.727  0.00  0.00    +0.000 NA
ATOM     19  O   UNL     1       3.865   2.156  20.838  0.00  0.00    +0.000 OA
ATOM     20  C   UNL     1       3.020   3.219  20.882  0.00  0.00    +0.000 A 
ATOM     21  C   UNL     1       2.067   3.227  22.008  0.00  0.00    +0.000 C 
BRANCH  17  22
ATOM     22  C   UNL     1       5.022   3.782  17.866  0.00  0.00    +0.000 A 
ATOM     23  C   UNL     1       4.416   3.648  16.603  0.00  0.00    +0.000 A 
ATOM     24  C   UNL     1       5.085   4.011  15.431  0.00  0.00    +0.000 A 
ATOM     25  C   UNL     1       6.375   4.543  15.517  0.00  0.00    +0.000 A 
ATOM     26  C   UNL     1       6.990   4.712  16.766  0.00  0.00    +0.000 A 
ATOM     27  C   UNL     1       6.312   4.332  17.932  0.00  0.00    +0.000 A 
BRANCH  25  28
ATOM     28  N   UNL     1       7.088   4.914  14.290  0.00  0.00    +0.000 N 
ATOM     29  O   UNL     1       8.041   5.695  14.386  0.00  0.00    +0.000 OA
ATOM     30  O   UNL     1       6.690   4.420  13.224  0.00  0.00    +0.000 OA
ENDBRANCH  25  28
ENDBRANCH  17  22
ENDBRANCH   2  16
TORSDOF 7
ENDMDL
MODEL 2
REMARK VINA RESULT:      -8.5      0.308      1.181
REMARK  Name = 
REMARK  10 active torsions:
REMARK  status: ('A' for Active; 'I' for Inactive)
REMARK    1  A    between atoms: C_1  and  C_2
REMARK    2  A    between atoms: C_2  and  N_3
REMARK    3  A    between atoms: N_3  and  C_4
REMARK    4  A    between atoms: N_3  and  C_6
REMARK    5  A    between atoms: C_4  and  C_5
REMARK    6  A    between atoms: C_9  and  N_10
REMARK    7  A    between atoms: C_11  and  C_13
REMARK    8  A    between atoms: C_14  and  C_15
REMARK    9  A    between atoms: C_18  and  N_19
REMARK   10  A    between atoms: C_26  and  C_27
REMARK                            x       y       z     vdW  Elec       q    Type
REMARK                         _______ _______ _______ _____ _____    ______ ____
ROOT
ATOM      1  N   UNL     1       2.746   6.269  20.057  0.00  0.00    +0.000 N 
ATOM      2  C   UNL     1       2.540   5.085  19.360  0.00  0.00    +0.000 C 
ATOM      3  O   UNL     1       1.841   4.980  18.357  0.00  0.00    +0.000 OA
ATOM      4  H   UNL     1       3.468   6.291  20.765  0.00  0.00    +0.000 HD
ENDROOT
BRANCH   1   8
ATOM      5  C   UNL     1       0.950   9.963  18.865  0.00  0.00    +0.000 A 
ATOM      6  C   UNL     1       0.770   9.440  20.146  0.00  0.00    +0.000 A 
ATOM      7  C   UNL     1       1.379   8.254  20.555  0.00  0.00    +0.000 A 
ATOM      8  C   UNL     1       2.179   7.513  19.686  0.00  0.00    +0.000 A 
ATOM      9  C   UNL     1       2.396   8.036  18.400  0.00  0.00    +0.000 A 
ATOM     10  C   UNL     1       1.783   9.231  18.002  0.00  0.00    +0.000 A 
BRANCH   5  11
ATOM     11  N   UNL     1       0.356  11.173  18.468  0.00  0.00    +0.000 N 
BRANCH  11  13
ATOM     12  C   UNL     1       2.274  12.791  18.120  0.00  0.00    +0.000 C 
ATOM     13  C   UNL     1       1.042  12.401  18.924  0.00  0.00    +0.000 C 
ENDBRANCH  11  13
BRANCH  11  14
ATOM     14  C   UNL     1      -1.111  11.153  18.301  0.00  0.00    +0.000 C 
ATOM     15  C   UNL     1      -1.643  10.097  17.330  0.00  0.00    +0.000 C 
ENDBRANCH  11  14
ENDBRANCH   5  11
ENDBRANCH   1   8
BRANCH   2  16
ATOM     16  C   UNL     1       3.271   3.919  19.812  0.00  0.00    +0.000 A 
ATOM     17  C   UNL     1       4.349   3.264  19.122  0.00  0.00    +0.000 A 
ATOM     18  N   UNL     1       4.687   2.133  19.759  0.00  0.00    +0.000 NA
ATOM     19  O   UNL     1       3.876   2.049  20.866  0.00  0.00    +0.000 OA
ATOM     20  C   UNL     1       3.037   3.117  20.909  0.00  0.00    +0.000 A 
ATOM     21  C   UNL     1       2.078   3.125  22.030  0.00  0.00    +0.000 C 
BRANCH  17  22
ATOM     22  C   UNL     1       5.057   3.681  17.906  0.00  0.00    +0.000 A 
ATOM     23  C   UNL     1       6.327   4.284  17.978  0.00  0.00    +0.000 A 
ATOM     24  C   UNL     1       6.996   4.713  16.828  0.00  0.00    +0.000 A 
ATOM     25  C   UNL     1       6.402   4.516  15.578  0.00  0.00    +0.000 A 
ATOM     26  C   UNL     1       5.151   3.893  15.478  0.00  0.00    +0.000 A 
ATOM     27  C   UNL     1       4.485   3.479  16.640  0.00  0.00    +0.000 A 
BRANCH  25  28
ATOM     28  N   UNL     1       7.094   4.975  14.369  0.00  0.00    +0.000 N 
ATOM     29  O   UNL     1       6.744   4.498  13.283  0.00  0.00    +0.000 OA
ATOM     30  O   UNL     1       7.992   5.820  14.507  0.00  0.00    +0.000 OA
ENDBRANCH  25  28
ENDBRANCH  17  22
ENDBRANCH   2  16
TORSDOF 7
ENDMDL
MODEL 3
REMARK VINA RESULT:      -8.5      0.383      1.020
REMARK  Name = 
REMARK  10 active torsions:
REMARK  status: ('A' for Active; 'I' for Inactive)
REMARK    1  A    between atoms: C_1  and  C_2
REMARK    2  A    between atoms: C_2  and  N_3
REMARK    3  A    between atoms: N_3  and  C_4
REMARK    4  A    between atoms: N_3  and  C_6
REMARK    5  A    between atoms: C_4  and  C_5
REMARK    6  A    between atoms: C_9  and  N_10
REMARK    7  A    between atoms: C_11  and  C_13
REMARK    8  A    between atoms: C_14  and  C_15
REMARK    9  A    between atoms: C_18  and  N_19
REMARK   10  A    between atoms: C_26  and  C_27
REMARK                            x       y       z     vdW  Elec       q    Type
REMARK                         _______ _______ _______ _____ _____    ______ ____
ROOT
ATOM      1  N   UNL     1       2.711   6.337  19.992  0.00  0.00    +0.000 N 
ATOM      2  C   UNL     1       2.533   5.153  19.287  0.00  0.00    +0.000 C 
ATOM      3  O   UNL     1       1.849   5.040  18.275  0.00  0.00    +0.000 OA
ATOM      4  H   UNL     1       3.422   6.369  20.709  0.00  0.00    +0.000 HD
ENDROOT
BRANCH   1   8
ATOM      5  C   UNL     1       1.036  10.128  18.931  0.00  0.00    +0.000 A 
ATOM      6  C   UNL     1       1.790   9.379  18.026  0.00  0.00    +0.000 A 
ATOM      7  C   UNL     1       2.310   8.127  18.351  0.00  0.00    +0.000 A 
ATOM      8  C   UNL     1       2.127   7.573  19.618  0.00  0.00    +0.000 A 
ATOM      9  C   UNL     1       1.350   8.298  20.536  0.00  0.00    +0.000 A 
ATOM     10  C   UNL     1       0.827   9.553  20.196  0.00  0.00    +0.000 A 
BRANCH   5  11
ATOM     11  N   UNL     1       0.491  11.377  18.588  0.00  0.00    +0.000 N 
BRANCH  11  13
ATOM     12  C   UNL     1       1.458  13.289  19.939  0.00  0.00    +0.000 C 
ATOM     13  C   UNL     1       1.431  12.517  18.628  0.00  0.00    +0.000 C 
ENDBRANCH  11  13
BRANCH  11  14
ATOM     14  C   UNL     1      -0.937  11.572  18.907  0.00  0.00    +0.000 C 
ATOM     15  C   UNL     1      -1.861  11.733  17.697  0.00  0.00    +0.000 C 
ENDBRANCH  11  14
ENDBRANCH   5  11
ENDBRANCH   1   8
BRANCH   2  16
ATOM     16  C   UNL     1       3.278   3.997  19.745  0.00  0.00    +0.000 A 
ATOM     17  C   UNL     1       4.361   3.350  19.056  0.00  0.00    +0.000 A 
ATOM     18  N   UNL     1       4.713   2.226  19.698  0.00  0.00    +0.000 NA
ATOM     19  O   UNL     1       3.905   2.141  20.808  0.00  0.00    +0.000 OA
ATOM     20  C   UNL     1       3.056   3.200  20.847  0.00  0.00    +0.000 A 
ATOM     21  C   UNL     1       2.100   3.205  21.971  0.00  0.00    +0.000 C 
BRANCH  17  22
ATOM     22  C   UNL     1       5.061   3.767  17.835  0.00  0.00    +0.000 A 
ATOM     23  C   UNL     1       4.458   3.627  16.571  0.00  0.00    +0.000 A 
ATOM     24  C   UNL     1       5.129   3.991  15.399  0.00  0.00    +0.000 A 
ATOM     25  C   UNL     1       6.416   4.530  15.488  0.00  0.00    +0.000 A 
ATOM     26  C   UNL     1       7.026   4.704  16.737  0.00  0.00    +0.000 A 
ATOM     27  C   UNL     1       6.348   4.324  17.903  0.00  0.00    +0.000 A 
BRANCH  25  28
ATOM     28  N   UNL     1       7.129   4.902  14.261  0.00  0.00    +0.000 N 
ATOM     29  O   UNL     1       8.062   5.709  14.354  0.00  0.00    +0.000 OA
ATOM     30  O   UNL     1       6.753   4.383  13.199  0.00  0.00    +0.000 OA
ENDBRANCH  25  28
ENDBRANCH  17  22
ENDBRANCH   2  16
TORSDOF 7
ENDMDL
MODEL 4
REMARK VINA RESULT:      -8.3      1.030      1.857
REMARK  Name = 
REMARK  10 active torsions:
REMARK  status: ('A' for Active; 'I' for Inactive)
REMARK    1  A    between atoms: C_1  and  C_2
REMARK    2  A    between atoms: C_2  and  N_3
REMARK    3  A    between atoms: N_3  and  C_4
REMARK    4  A    between atoms: N_3  and  C_6
REMARK    5  A    between atoms: C_4  and  C_5
REMARK    6  A    between atoms: C_9  and  N_10
REMARK    7  A    between atoms: C_11  and  C_13
REMARK    8  A    between atoms: C_14  and  C_15
REMARK    9  A    between atoms: C_18  and  N_19
REMARK   10  A    between atoms: C_26  and  C_27
REMARK                            x       y       z     vdW  Elec       q    Type
REMARK                         _______ _______ _______ _____ _____    ______ ____
ROOT
ATOM      1  N   UNL     1       2.643   6.195  20.261  0.00  0.00    +0.000 N 
ATOM      2  C   UNL     1       2.110   4.933  20.028  0.00  0.00    +0.000 C 
ATOM      3  O   UNL     1       1.059   4.720  19.433  0.00  0.00    +0.000 OA
ATOM      4  H   UNL     1       3.591   6.261  20.607  0.00  0.00    +0.000 HD
ENDROOT
BRANCH   1   8
ATOM      5  C   UNL     1       0.902   9.898  19.014  0.00  0.00    +0.000 A 
ATOM      6  C   UNL     1       1.656   9.111  18.142  0.00  0.00    +0.000 A 
ATOM      7  C   UNL     1       2.199   7.886  18.529  0.00  0.00    +0.000 A 
ATOM      8  C   UNL     1       2.038   7.400  19.826  0.00  0.00    +0.000 A 
ATOM      9  C   UNL     1       1.259   8.163  20.713  0.00  0.00    +0.000 A 
ATOM     10  C   UNL     1       0.715   9.390  20.310  0.00  0.00    +0.000 A 
BRANCH   5  11
ATOM     11  N   UNL     1       0.334  11.118  18.609  0.00  0.00    +0.000 N 
BRANCH  11  13
ATOM     12  C   UNL     1       0.416  13.649  18.648  0.00  0.00    +0.000 C 
ATOM     13  C   UNL     1       1.100  12.329  18.972  0.00  0.00    +0.000 C 
ENDBRANCH  11  13
BRANCH  11  14
ATOM     14  C   UNL     1      -1.140  11.156  18.536  0.00  0.00    +0.000 C 
ATOM     15  C   UNL     1      -1.767  10.232  17.490  0.00  0.00    +0.000 C 
ENDBRANCH  11  14
ENDBRANCH   5  11
ENDBRANCH   1   8
BRANCH   2  16
ATOM     16  C   UNL     1       2.902   3.796  20.451  0.00  0.00    +0.000 A 
ATOM     17  C   UNL     1       4.169   3.387  19.908  0.00  0.00    +0.000 A 
ATOM     18  N   UNL     1       4.540   2.210  20.435  0.00  0.00    +0.000 NA
ATOM     19  O   UNL     1       3.559   1.857  21.333  0.00  0.00    +0.000 OA
ATOM     20  C   UNL     1       2.586   2.804  21.355  0.00  0.00    +0.000 A 
ATOM     21  C   UNL     1       1.447   2.522  22.249  0.00  0.00    +0.000 C 
BRANCH  17  22
ATOM     22  C   UNL     1       5.022   4.073  18.930  0.00  0.00    +0.000 A 
ATOM     23  C   UNL     1       6.007   4.988  19.345  0.00  0.00    +0.000 A 
ATOM     24  C   UNL     1       6.803   5.670  18.421  0.00  0.00    +0.000 A 
ATOM     25  C   UNL     1       6.634   5.419  17.056  0.00  0.00    +0.000 A 
ATOM     26  C   UNL     1       5.678   4.492  16.620  0.00  0.00    +0.000 A 
ATOM     27  C   UNL     1       4.878   3.823  17.556  0.00  0.00    +0.000 A 
BRANCH  25  28
ATOM     28  N   UNL     1       7.458   6.141  16.081  0.00  0.00    +0.000 N 
ATOM     29  O   UNL     1       7.613   5.635  14.964  0.00  0.00    +0.000 OA
ATOM     30  O   UNL     1       7.953   7.222  16.436  0.00  0.00    +0.000 OA
ENDBRANCH  25  28
ENDBRANCH  17  22
ENDBRANCH   2  16
TORSDOF 7
ENDMDL
MODEL 5
REMARK VINA RESULT:      -8.3      1.070      1.434
REMARK  Name = 
REMARK  10 active torsions:
REMARK  status: ('A' for Active; 'I' for Inactive)
REMARK    1  A    between atoms: C_1  and  C_2
REMARK    2  A    between atoms: C_2  and  N_3
REMARK    3  A    between atoms: N_3  and  C_4
REMARK    4  A    between atoms: N_3  and  C_6
REMARK    5  A    between atoms: C_4  and  C_5
REMARK    6  A    between atoms: C_9  and  N_10
REMARK    7  A    between atoms: C_11  and  C_13
REMARK    8  A    between atoms: C_14  and  C_15
REMARK    9  A    between atoms: C_18  and  N_19
REMARK   10  A    between atoms: C_26  and  C_27
REMARK                            x       y       z     vdW  Elec       q    Type
REMARK                         _______ _______ _______ _____ _____    ______ ____
ROOT
ATOM      1  N   UNL     1       2.710   6.215  20.203  0.00  0.00    +0.000 N 
ATOM      2  C   UNL     1       2.095   4.975  20.078  0.00  0.00    +0.000 C 
ATOM      3  O   UNL     1       0.967   4.799  19.629  0.00  0.00    +0.000 OA
ATOM      4  H   UNL     1       3.696   6.243  20.423  0.00  0.00    +0.000 HD
ENDROOT
BRANCH   1   8
ATOM      5  C   UNL     1       0.806   9.840  18.966  0.00  0.00    +0.000 A 
ATOM      6  C   UNL     1       0.710   9.372  20.277  0.00  0.00    +0.000 A 
ATOM      7  C   UNL     1       1.356   8.209  20.699  0.00  0.00    +0.000 A 
ATOM      8  C   UNL     1       2.108   7.437  19.814  0.00  0.00    +0.000 A 
ATOM      9  C   UNL     1       2.240   7.904  18.496  0.00  0.00    +0.000 A 
ATOM     10  C   UNL     1       1.590   9.077  18.085  0.00  0.00    +0.000 A 
BRANCH   5  11
ATOM     11  N   UNL     1       0.176  11.026  18.555  0.00  0.00    +0.000 N 
BRANCH  11  13
ATOM     12  C   UNL     1       0.109  13.558  18.622  0.00  0.00    +0.000 C 
ATOM     13  C   UNL     1       0.882  12.278  18.902  0.00  0.00    +0.000 C 
ENDBRANCH  11  13
BRANCH  11  14
ATOM     14  C   UNL     1      -1.299  10.991  18.491  0.00  0.00    +0.000 C 
ATOM     15  C   UNL     1      -1.885  10.083  17.408  0.00  0.00    +0.000 C 
ENDBRANCH  11  14
ENDBRANCH   5  11
ENDBRANCH   1   8
BRANCH   2  16
ATOM     16  C   UNL     1       2.883   3.811  20.430  0.00  0.00    +0.000 A 
ATOM     17  C   UNL     1       4.139   3.421  19.850  0.00  0.00    +0.000 A 
ATOM     18  N   UNL     1       4.507   2.216  20.310  0.00  0.00    +0.000 NA
ATOM     19  O   UNL     1       3.536   1.824  21.200  0.00  0.00    +0.000 OA
ATOM     20  C   UNL     1       2.571   2.775  21.285  0.00  0.00    +0.000 A 
ATOM     21  C   UNL     1       1.441   2.456  22.179  0.00  0.00    +0.000 C 
BRANCH  17  22
ATOM     22  C   UNL     1       4.985   4.152  18.898  0.00  0.00    +0.000 A 
ATOM     23  C   UNL     1       4.823   3.986  17.510  0.00  0.00    +0.000 A 
ATOM     24  C   UNL     1       5.644   4.651  16.596  0.00  0.00    +0.000 A 
ATOM     25  C   UNL     1       6.630   5.521  17.070  0.00  0.00    +0.000 A 
ATOM     26  C   UNL     1       6.793   5.725  18.447  0.00  0.00    +0.000 A 
ATOM     27  C   UNL     1       5.971   5.041  19.354  0.00  0.00    +0.000 A 
BRANCH  25  28
ATOM     28  N   UNL     1       7.503   6.214  16.116  0.00  0.00    +0.000 N 
ATOM     29  O   UNL     1       7.679   5.694  15.008  0.00  0.00    +0.000 OA
ATOM     30  O   UNL     1       8.016   7.284  16.478  0.00  0.00    +0.000 OA
ENDBRANCH  25  28
ENDBRANCH  17  22
ENDBRANCH   2  16
TORSDOF 7
ENDMDL
MODEL 6
REMARK VINA RESULT:      -8.2      0.412      1.740
REMARK  Name = 
REMARK  10 active torsions:
REMARK  status: ('A' for Active; 'I' for Inactive)
REMARK    1  A    between atoms: C_1  and  C_2
REMARK    2  A    between atoms: C_2  and  N_3
REMARK    3  A    between atoms: N_3  and  C_4
REMARK    4  A    between atoms: N_3  and  C_6
REMARK    5  A    between atoms: C_4  and  C_5
REMARK    6  A    between atoms: C_9  and  N_10
REMARK    7  A    between atoms: C_11  and  C_13
REMARK    8  A    between atoms: C_14  and  C_15
REMARK    9  A    between atoms: C_18  and  N_19
REMARK   10  A    between atoms: C_26  and  C_27
REMARK                            x       y       z     vdW  Elec       q    Type
REMARK                         _______ _______ _______ _____ _____    ______ ____
ROOT
ATOM      1  N   UNL     1       2.643   6.332  20.119  0.00  0.00    +0.000 N 
ATOM      2  C   UNL     1       2.528   5.176  19.357  0.00  0.00    +0.000 C 
ATOM      3  O   UNL     1       1.902   5.095  18.305  0.00  0.00    +0.000 OA
ATOM      4  H   UNL     1       3.315   6.346  20.875  0.00  0.00    +0.000 HD
ENDROOT
BRANCH   1   8
ATOM      5  C   UNL     1       0.957  10.135  19.123  0.00  0.00    +0.000 A 
ATOM      6  C   UNL     1       1.699   9.397  18.200  0.00  0.00    +0.000 A 
ATOM      7  C   UNL     1       2.223   8.141  18.504  0.00  0.00    +0.000 A 
ATOM      8  C   UNL     1       2.056   7.572  19.766  0.00  0.00    +0.000 A 
ATOM      9  C   UNL     1       1.289   8.286  20.702  0.00  0.00    +0.000 A 
ATOM     10  C   UNL     1       0.763   9.545  20.383  0.00  0.00    +0.000 A 
BRANCH   5  11
ATOM     11  N   UNL     1       0.407  11.387  18.801  0.00  0.00    +0.000 N 
BRANCH  11  13
ATOM     12  C   UNL     1      -1.926  10.473  18.428  0.00  0.00    +0.000 C 
ATOM     13  C   UNL     1      -0.789  11.355  17.933  0.00  0.00    +0.000 C 
ENDBRANCH  11  13
BRANCH  11  14
ATOM     14  C   UNL     1       1.358  12.514  18.725  0.00  0.00    +0.000 C 
ATOM     15  C   UNL     1       2.005  12.914  20.053  0.00  0.00    +0.000 C 
ENDBRANCH  11  14
ENDBRANCH   5  11
ENDBRANCH   1   8
BRANCH   2  16
ATOM     16  C   UNL     1       3.271   4.016  19.805  0.00  0.00    +0.000 A 
ATOM     17  C   UNL     1       4.358   3.377  19.114  0.00  0.00    +0.000 A 
ATOM     18  N   UNL     1       4.707   2.246  19.745  0.00  0.00    +0.000 NA
ATOM     19  O   UNL     1       3.894   2.147  20.849  0.00  0.00    +0.000 OA
ATOM     20  C   UNL     1       3.043   3.205  20.897  0.00  0.00    +0.000 A 
ATOM     21  C   UNL     1       2.081   3.196  22.015  0.00  0.00    +0.000 C 
BRANCH  17  22
ATOM     22  C   UNL     1       5.065   3.808  17.902  0.00  0.00    +0.000 A 
ATOM     23  C   UNL     1       4.513   3.590  16.625  0.00  0.00    +0.000 A 
ATOM     24  C   UNL     1       5.192   3.968  15.464  0.00  0.00    +0.000 A 
ATOM     25  C   UNL     1       6.435   4.600  15.573  0.00  0.00    +0.000 A 
ATOM     26  C   UNL     1       6.992   4.853  16.834  0.00  0.00    +0.000 A 
ATOM     27  C   UNL     1       6.306   4.458  17.990  0.00  0.00    +0.000 A 
BRANCH  25  28
ATOM     28  N   UNL     1       7.158   4.988  14.357  0.00  0.00    +0.000 N 
ATOM     29  O   UNL     1       6.761   4.535  13.277  0.00  0.00    +0.000 OA
ATOM     30  O   UNL     1       8.128   5.750  14.485  0.00  0.00    +0.000 OA
ENDBRANCH  25  28
ENDBRANCH  17  22
ENDBRANCH   2  16
TORSDOF 7
ENDMDL
MODEL 7
REMARK VINA RESULT:      -8.1      0.911      1.472
REMARK  Name = 
REMARK  10 active torsions:
REMARK  status: ('A' for Active; 'I' for Inactive)
REMARK    1  A    between atoms: C_1  and  C_2
REMARK    2  A    between atoms: C_2  and  N_3
REMARK    3  A    between atoms: N_3  and  C_4
REMARK    4  A    between atoms: N_3  and  C_6
REMARK    5  A    between atoms: C_4  and  C_5
REMARK    6  A    between atoms: C_9  and  N_10
REMARK    7  A    between atoms: C_11  and  C_13
REMARK    8  A    between atoms: C_14  and  C_15
REMARK    9  A    between atoms: C_18  and  N_19
REMARK   10  A    between atoms: C_26  and  C_27
REMARK                            x       y       z     vdW  Elec       q    Type
REMARK                         _______ _______ _______ _____ _____    ______ ____
ROOT
ATOM      1  N   UNL     1       2.627   6.238  20.350  0.00  0.00    +0.000 N 
ATOM      2  C   UNL     1       2.154   4.985  19.980  0.00  0.00    +0.000 C 
ATOM      3  O   UNL     1       1.178   4.793  19.261  0.00  0.00    +0.000 OA
ATOM      4  H   UNL     1       3.530   6.298  20.801  0.00  0.00    +0.000 HD
ENDROOT
BRANCH   1   8
ATOM      5  C   UNL     1       0.777   9.857  19.016  0.00  0.00    +0.000 A 
ATOM      6  C   UNL     1       0.667   9.420  20.337  0.00  0.00    +0.000 A 
ATOM      7  C   UNL     1       1.295   8.260  20.790  0.00  0.00    +0.000 A 
ATOM      8  C   UNL     1       2.044   7.459  19.928  0.00  0.00    +0.000 A 
ATOM      9  C   UNL     1       2.190   7.894  18.601  0.00  0.00    +0.000 A 
ATOM     10  C   UNL     1       1.558   9.064  18.159  0.00  0.00    +0.000 A 
BRANCH   5  11
ATOM     11  N   UNL     1       0.165  11.041  18.574  0.00  0.00    +0.000 N 
BRANCH  11  13
ATOM     12  C   UNL     1       2.083  12.692  18.683  0.00  0.00    +0.000 C 
ATOM     13  C   UNL     1       0.695  12.291  19.159  0.00  0.00    +0.000 C 
ENDBRANCH  11  13
BRANCH  11  14
ATOM     14  C   UNL     1      -1.259  10.935  18.197  0.00  0.00    +0.000 C 
ATOM     15  C   UNL     1      -2.180  11.989  18.816  0.00  0.00    +0.000 C 
ENDBRANCH  11  14
ENDBRANCH   5  11
ENDBRANCH   1   8
BRANCH   2  16
ATOM     16  C   UNL     1       2.922   3.836  20.415  0.00  0.00    +0.000 A 
ATOM     17  C   UNL     1       4.172   3.386  19.865  0.00  0.00    +0.000 A 
ATOM     18  N   UNL     1       4.521   2.210  20.410  0.00  0.00    +0.000 NA
ATOM     19  O   UNL     1       3.542   1.898  21.324  0.00  0.00    +0.000 OA
ATOM     20  C   UNL     1       2.593   2.869  21.340  0.00  0.00    +0.000 A 
ATOM     21  C   UNL     1       1.458   2.631  22.252  0.00  0.00    +0.000 C 
BRANCH  17  22
ATOM     22  C   UNL     1       5.030   4.033  18.866  0.00  0.00    +0.000 A 
ATOM     23  C   UNL     1       6.077   4.889  19.255  0.00  0.00    +0.000 A 
ATOM     24  C   UNL     1       6.880   5.536  18.311  0.00  0.00    +0.000 A 
ATOM     25  C   UNL     1       6.654   5.306  16.950  0.00  0.00    +0.000 A 
ATOM     26  C   UNL     1       5.635   4.437  16.538  0.00  0.00    +0.000 A 
ATOM     27  C   UNL     1       4.830   3.805  17.495  0.00  0.00    +0.000 A 
BRANCH  25  28
ATOM     28  N   UNL     1       7.485   5.991  15.955  0.00  0.00    +0.000 N 
ATOM     29  O   UNL     1       7.658   5.437  14.863  0.00  0.00    +0.000 OA
ATOM     30  O   UNL     1       7.967   7.091  16.268  0.00  0.00    +0.000 OA
ENDBRANCH  25  28
ENDBRANCH  17  22
ENDBRANCH   2  16
TORSDOF 7
ENDMDL
MODEL 8
REMARK VINA RESULT:      -8.0      1.046      1.609
REMARK  Name = 
REMARK  10 active torsions:
REMARK  status: ('A' for Active; 'I' for Inactive)
REMARK    1  A    between atoms: C_1  and  C_2
REMARK    2  A    between atoms: C_2  and  N_3
REMARK    3  A    between atoms: N_3  and  C_4
REMARK    4  A    between atoms: N_3  and  C_6
REMARK    5  A    between atoms: C_4  and  C_5
REMARK    6  A    between atoms: C_9  and  N_10
REMARK    7  A    between atoms: C_11  and  C_13
REMARK    8  A    between atoms: C_14  and  C_15
REMARK    9  A    between atoms: C_18  and  N_19
REMARK   10  A    between atoms: C_26  and  C_27
REMARK                            x       y       z     vdW  Elec       q    Type
REMARK                         _______ _______ _______ _____ _____    ______ ____
ROOT
ATOM      1  N   UNL     1       2.586   6.214  20.418  0.00  0.00    +0.000 N 
ATOM      2  C   UNL     1       2.077   4.970  20.067  0.00  0.00    +0.000 C 
ATOM      3  O   UNL     1       1.050   4.795  19.419  0.00  0.00    +0.000 OA
ATOM      4  H   UNL     1       3.519   6.262  20.803  0.00  0.00    +0.000 HD
ENDROOT
BRANCH   1   8
ATOM      5  C   UNL     1       0.851   9.988  19.395  0.00  0.00    +0.000 A 
ATOM      6  C   UNL     1       1.580   9.240  18.469  0.00  0.00    +0.000 A 
ATOM      7  C   UNL     1       2.119   7.993  18.783  0.00  0.00    +0.000 A 
ATOM      8  C   UNL     1       1.982   7.444  20.057  0.00  0.00    +0.000 A 
ATOM      9  C   UNL     1       1.230   8.168  20.997  0.00  0.00    +0.000 A 
ATOM     10  C   UNL     1       0.688   9.418  20.668  0.00  0.00    +0.000 A 
BRANCH   5  11
ATOM     11  N   UNL     1       0.286  11.231  19.064  0.00  0.00    +0.000 N 
BRANCH  11  13
ATOM     12  C   UNL     1       1.794  13.129  18.330  0.00  0.00    +0.000 C 
ATOM     13  C   UNL     1       1.072  12.417  19.464  0.00  0.00    +0.000 C 
ENDBRANCH  11  13
BRANCH  11  14
ATOM     14  C   UNL     1      -1.189  11.286  19.030  0.00  0.00    +0.000 C 
ATOM     15  C   UNL     1      -1.796  11.740  17.701  0.00  0.00    +0.000 C 
ENDBRANCH  11  14
ENDBRANCH   5  11
ENDBRANCH   1   8
BRANCH   2  16
ATOM     16  C   UNL     1       2.867   3.810  20.429  0.00  0.00    +0.000 A 
ATOM     17  C   UNL     1       4.124   3.418  19.852  0.00  0.00    +0.000 A 
ATOM     18  N   UNL     1       4.494   2.216  20.322  0.00  0.00    +0.000 NA
ATOM     19  O   UNL     1       3.523   1.830  21.215  0.00  0.00    +0.000 OA
ATOM     20  C   UNL     1       2.556   2.781  21.292  0.00  0.00    +0.000 A 
ATOM     21  C   UNL     1       1.427   2.466  22.188  0.00  0.00    +0.000 C 
BRANCH  17  22
ATOM     22  C   UNL     1       4.969   4.142  18.895  0.00  0.00    +0.000 A 
ATOM     23  C   UNL     1       4.842   3.926  17.510  0.00  0.00    +0.000 A 
ATOM     24  C   UNL     1       5.664   4.586  16.592  0.00  0.00    +0.000 A 
ATOM     25  C   UNL     1       6.614   5.500  17.059  0.00  0.00    +0.000 A 
ATOM     26  C   UNL     1       6.740   5.752  18.431  0.00  0.00    +0.000 A 
ATOM     27  C   UNL     1       5.919   5.074  19.342  0.00  0.00    +0.000 A 
BRANCH  25  28
ATOM     28  N   UNL     1       7.487   6.187  16.101  0.00  0.00    +0.000 N 
ATOM     29  O   UNL     1       7.672   5.655  15.000  0.00  0.00    +0.000 OA
ATOM     30  O   UNL     1       7.990   7.264  16.453  0.00  0.00    +0.000 OA
ENDBRANCH  25  28
ENDBRANCH  17  22
ENDBRANCH   2  16
TORSDOF 7
ENDMDL
MODEL 9
REMARK VINA RESULT:      -8.0      1.049      2.037
REMARK  Name = 
REMARK  10 active torsions:
REMARK  status: ('A' for Active; 'I' for Inactive)
REMARK    1  A    between atoms: C_1  and  C_2
REMARK    2  A    between atoms: C_2  and  N_3
REMARK    3  A    between atoms: N_3  and  C_4
REMARK    4  A    between atoms: N_3  and  C_6
REMARK    5  A    between atoms: C_4  and  C_5
REMARK    6  A    between atoms: C_9  and  N_10
REMARK    7  A    between atoms: C_11  and  C_13
REMARK    8  A    between atoms: C_14  and  C_15
REMARK    9  A    between atoms: C_18  and  N_19
REMARK   10  A    between atoms: C_26  and  C_27
REMARK                            x       y       z     vdW  Elec       q    Type
REMARK                         _______ _______ _______ _____ _____    ______ ____
ROOT
ATOM      1  N   UNL     1       2.583   6.186  20.459  0.00  0.00    +0.000 N 
ATOM      2  C   UNL     1       2.103   4.953  20.033  0.00  0.00    +0.000 C 
ATOM      3  O   UNL     1       1.123   4.799  19.312  0.00  0.00    +0.000 OA
ATOM      4  H   UNL     1       3.488   6.222  20.907  0.00  0.00    +0.000 HD
ENDROOT
BRANCH   1   8
ATOM      5  C   UNL     1       0.739   9.870  19.306  0.00  0.00    +0.000 A 
ATOM      6  C   UNL     1       0.569   9.332  20.583  0.00  0.00    +0.000 A 
ATOM      7  C   UNL     1       1.193   8.150  20.979  0.00  0.00    +0.000 A 
ATOM      8  C   UNL     1       2.000   7.427  20.101  0.00  0.00    +0.000 A 
ATOM      9  C   UNL     1       2.207   7.964  18.819  0.00  0.00    +0.000 A 
ATOM     10  C   UNL     1       1.578   9.155  18.434  0.00  0.00    +0.000 A 
BRANCH   5  11
ATOM     11  N   UNL     1       0.129  11.076  18.922  0.00  0.00    +0.000 N 
BRANCH  11  13
ATOM     12  C   UNL     1      -2.340  11.621  18.778  0.00  0.00    +0.000 C 
ATOM     13  C   UNL     1      -1.129  10.940  18.158  0.00  0.00    +0.000 C 
ENDBRANCH  11  13
BRANCH  11  14
ATOM     14  C   UNL     1       1.038  12.213  18.674  0.00  0.00    +0.000 C 
ATOM     15  C   UNL     1       1.512  12.956  19.924  0.00  0.00    +0.000 C 
ENDBRANCH  11  14
ENDBRANCH   5  11
ENDBRANCH   1   8
BRANCH   2  16
ATOM     16  C   UNL     1       2.871   3.783  20.408  0.00  0.00    +0.000 A 
ATOM     17  C   UNL     1       4.131   3.373  19.850  0.00  0.00    +0.000 A 
ATOM     18  N   UNL     1       4.478   2.168  20.326  0.00  0.00    +0.000 NA
ATOM     19  O   UNL     1       3.488   1.795  21.205  0.00  0.00    +0.000 OA
ATOM     20  C   UNL     1       2.533   2.759  21.267  0.00  0.00    +0.000 A 
ATOM     21  C   UNL     1       1.386   2.461  22.145  0.00  0.00    +0.000 C 
BRANCH  17  22
ATOM     22  C   UNL     1       5.001   4.085  18.905  0.00  0.00    +0.000 A 
ATOM     23  C   UNL     1       5.925   5.046  19.355  0.00  0.00    +0.000 A 
ATOM     24  C   UNL     1       6.735   5.752  18.461  0.00  0.00    +0.000 A 
ATOM     25  C   UNL     1       6.643   5.478  17.093  0.00  0.00    +0.000 A 
ATOM     26  C   UNL     1       5.749   4.506  16.623  0.00  0.00    +0.000 A 
ATOM     27  C   UNL     1       4.934   3.815  17.529  0.00  0.00    +0.000 A 
BRANCH  25  28
ATOM     28  N   UNL     1       7.481   6.225  16.149  0.00  0.00    +0.000 N 
ATOM     29  O   UNL     1       7.667   5.738  15.027  0.00  0.00    +0.000 OA
ATOM     30  O   UNL     1       7.956   7.305  16.532  0.00  0.00    +0.000 OA
ENDBRANCH  25  28
ENDBRANCH  17  22
ENDBRANCH   2  16
TORSDOF 7
ENDMDL
