MODEL 1
REMARK VINA RESULT:      -7.6      0.000      0.000
REMARK  Name = 
REMARK  2 active torsions:
REMARK  status: ('A' for Active; 'I' for Inactive)
REMARK    1  A    between atoms: C_2  and  C_12
REMARK    2  A    between atoms: N_3  and  C_4
REMARK                            x       y       z     vdW  Elec       q    Type
REMARK                         _______ _______ _______ _____ _____    ______ ____
ROOT
ATOM      1  O   UNL     1       6.128   4.128  19.170  0.00  0.00    +0.000 OA
ATOM      2  C   UNL     1       5.353   4.297  18.234  0.00  0.00    +0.000 C 
ATOM      3  N   UNL     1       3.984   4.285  18.370  0.00  0.00    +0.000 N 
ATOM      4  H   UNL     1       3.402   4.472  17.566  0.00  0.00    +0.000 HD
ENDROOT
BRANCH   3   5
ATOM      5  C   UNL     1       3.341   4.100  19.668  0.00  0.00    +0.000 C 
ATOM      6  C   UNL     1       1.922   4.726  19.722  0.00  0.00    +0.000 C 
ATOM      7  N   UNL     1       0.886   3.734  20.114  0.00  0.00    +0.000 NA
ATOM      8  C   UNL     1       0.890   2.628  19.133  0.00  0.00    +0.000 C 
ATOM      9  C   UNL     1       2.246   1.908  19.085  0.00  0.00    +0.000 C 
ATOM     10  C   UNL     1       3.231   2.604  20.040  0.00  0.00    +0.000 C 
ATOM     11  C   UNL     1       2.615   2.522  21.450  0.00  0.00    +0.000 C 
ATOM     12  C   UNL     1       1.229   3.190  21.446  0.00  0.00    +0.000 C 
ENDBRANCH   3   5
BRANCH   2  13
ATOM     13  C   UNL     1       5.886   4.481  16.855  0.00  0.00    +0.000 A 
ATOM     14  C   UNL     1       5.052   4.146  15.777  0.00  0.00    +0.000 A 
ATOM     15  C   UNL     1       5.509   4.283  14.465  0.00  0.00    +0.000 A 
ATOM     16  C   UNL     1       6.801   4.744  14.238  0.00  0.00    +0.000 A 
ATOM     17  F   UNL     1       7.248   4.862  12.980  0.00  0.00    +0.000 F 
ATOM     18  C   UNL     1       7.643   5.075  15.296  0.00  0.00    +0.000 A 
ATOM     19  C   UNL     1       7.187   4.945  16.611  0.00  0.00    +0.000 A 
ENDBRANCH   2  13
TORSDOF 2
ENDMDL
MODEL 2
REMARK VINA RESULT:      -7.6      0.077      1.145
REMARK  Name = 
REMARK  2 active torsions:
REMARK  status: ('A' for Active; 'I' for Inactive)
REMARK    1  A    between atoms: C_2  and  C_12
REMARK    2  A    between atoms: N_3  and  C_4
REMARK                            x       y       z     vdW  Elec       q    Type
REMARK                         _______ _______ _______ _____ _____    ______ ____
ROOT
ATOM      1  O   UNL     1       6.107   4.165  19.103  0.00  0.00    +0.000 OA
ATOM      2  C   UNL     1       5.315   4.275  18.172  0.00  0.00    +0.000 C 
ATOM      3  N   UNL     1       3.948   4.229  18.328  0.00  0.00    +0.000 N 
ATOM      4  H   UNL     1       3.351   4.368  17.526  0.00  0.00    +0.000 HD
ENDROOT
BRANCH   3   5
ATOM      5  C   UNL     1       3.328   4.076  19.641  0.00  0.00    +0.000 C 
ATOM      6  C   UNL     1       1.923   4.730  19.715  0.00  0.00    +0.000 C 
ATOM      7  N   UNL     1       0.876   3.763  20.142  0.00  0.00    +0.000 NA
ATOM      8  C   UNL     1       0.839   2.644  19.178  0.00  0.00    +0.000 C 
ATOM      9  C   UNL     1       2.180   1.896  19.113  0.00  0.00    +0.000 C 
ATOM     10  C   UNL     1       3.197   2.587  20.038  0.00  0.00    +0.000 C 
ATOM     11  C   UNL     1       2.609   2.537  21.461  0.00  0.00    +0.000 C 
ATOM     12  C   UNL     1       1.236   3.232  21.474  0.00  0.00    +0.000 C 
ENDBRANCH   3   5
BRANCH   2  13
ATOM     13  C   UNL     1       5.824   4.422  16.780  0.00  0.00    +0.000 A 
ATOM     14  C   UNL     1       7.137   4.886  16.605  0.00  0.00    +0.000 A 
ATOM     15  C   UNL     1       7.657   5.058  15.321  0.00  0.00    +0.000 A 
ATOM     16  C   UNL     1       6.858   4.776  14.218  0.00  0.00    +0.000 A 
ATOM     17  F   UNL     1       7.349   4.954  12.985  0.00  0.00    +0.000 F 
ATOM     18  C   UNL     1       5.552   4.320  14.375  0.00  0.00    +0.000 A 
ATOM     19  C   UNL     1       5.030   4.140  15.659  0.00  0.00    +0.000 A 
ENDBRANCH   2  13
TORSDOF 2
ENDMDL
MODEL 3
REMARK VINA RESULT:      -6.9      4.315      5.934
REMARK  Name = 
REMARK  2 active torsions:
REMARK  status: ('A' for Active; 'I' for Inactive)
REMARK    1  A    between atoms: C_2  and  C_12
REMARK    2  A    between atoms: N_3  and  C_4
REMARK                            x       y       z     vdW  Elec       q    Type
REMARK                         _______ _______ _______ _____ _____    ______ ____
ROOT
ATOM      1  O   UNL     1       3.776   7.079  17.610  0.00  0.00    +0.000 OA
ATOM      2  C   UNL     1       2.806   6.979  18.354  0.00  0.00    +0.000 C 
ATOM      3  N   UNL     1       2.287   5.772  18.768  0.00  0.00    +0.000 N 
ATOM      4  H   UNL     1       1.512   5.760  19.414  0.00  0.00    +0.000 HD
ENDROOT
BRANCH   3   5
ATOM      5  C   UNL     1       2.886   4.501  18.371  0.00  0.00    +0.000 C 
ATOM      6  C   UNL     1       3.868   3.949  19.438  0.00  0.00    +0.000 C 
ATOM      7  N   UNL     1       3.507   2.574  19.875  0.00  0.00    +0.000 NA
ATOM      8  C   UNL     1       2.141   2.598  20.440  0.00  0.00    +0.000 C 
ATOM      9  C   UNL     1       1.100   3.059  19.409  0.00  0.00    +0.000 C 
ATOM     10  C   UNL     1       1.809   3.427  18.094  0.00  0.00    +0.000 C 
ATOM     11  C   UNL     1       2.535   2.157  17.611  0.00  0.00    +0.000 C 
ATOM     12  C   UNL     1       3.517   1.682  18.695  0.00  0.00    +0.000 C 
ENDBRANCH   3   5
BRANCH   2  13
ATOM     13  C   UNL     1       2.098   8.204  18.816  0.00  0.00    +0.000 A 
ATOM     14  C   UNL     1       1.578   8.211  20.121  0.00  0.00    +0.000 A 
ATOM     15  C   UNL     1       0.890   9.328  20.597  0.00  0.00    +0.000 A 
ATOM     16  C   UNL     1       0.715  10.428  19.765  0.00  0.00    +0.000 A 
ATOM     17  F   UNL     1       0.042  11.496  20.215  0.00  0.00    +0.000 F 
ATOM     18  C   UNL     1       1.220  10.435  18.468  0.00  0.00    +0.000 A 
ATOM     19  C   UNL     1       1.915   9.321  17.988  0.00  0.00    +0.000 A 
ENDBRANCH   2  13
TORSDOF 2
ENDMDL
MODEL 4
REMARK VINA RESULT:      -6.9      4.335      5.967
REMARK  Name = 
REMARK  2 active torsions:
REMARK  status: ('A' for Active; 'I' for Inactive)
REMARK    1  A    between atoms: C_2  and  C_12
REMARK    2  A    between atoms: N_3  and  C_4
REMARK                            x       y       z     vdW  Elec       q    Type
REMARK                         _______ _______ _______ _____ _____    ______ ____
ROOT
ATOM      1  O   UNL     1       3.591   7.093  17.577  0.00  0.00    +0.000 OA
ATOM      2  C   UNL     1       2.708   6.972  18.421  0.00  0.00    +0.000 C 
ATOM      3  N   UNL     1       2.283   5.757  18.907  0.00  0.00    +0.000 N 
ATOM      4  H   UNL     1       1.581   5.729  19.631  0.00  0.00    +0.000 HD
ENDROOT
BRANCH   3   5
ATOM      5  C   UNL     1       2.886   4.500  18.471  0.00  0.00    +0.000 C 
ATOM      6  C   UNL     1       3.804   3.875  19.554  0.00  0.00    +0.000 C 
ATOM      7  N   UNL     1       3.403   2.483  19.894  0.00  0.00    +0.000 NA
ATOM      8  C   UNL     1       2.011   2.497  20.389  0.00  0.00    +0.000 C 
ATOM      9  C   UNL     1       1.030   3.031  19.333  0.00  0.00    +0.000 C 
ATOM     10  C   UNL     1       1.812   3.460  18.079  0.00  0.00    +0.000 C 
ATOM     11  C   UNL     1       2.546   2.208  17.563  0.00  0.00    +0.000 C 
ATOM     12  C   UNL     1       3.465   1.659  18.668  0.00  0.00    +0.000 C 
ENDBRANCH   3   5
BRANCH   2  13
ATOM     13  C   UNL     1       2.005   8.180  18.935  0.00  0.00    +0.000 A 
ATOM     14  C   UNL     1       1.849   9.271  18.065  0.00  0.00    +0.000 A 
ATOM     15  C   UNL     1       1.213  10.434  18.502  0.00  0.00    +0.000 A 
ATOM     16  C   UNL     1       0.745  10.505  19.809  0.00  0.00    +0.000 A 
ATOM     17  F   UNL     1       0.148  11.626  20.236  0.00  0.00    +0.000 F 
ATOM     18  C   UNL     1       0.897   9.434  20.686  0.00  0.00    +0.000 A 
ATOM     19  C   UNL     1       1.528   8.266  20.250  0.00  0.00    +0.000 A 
ENDBRANCH   2  13
TORSDOF 2
ENDMDL
MODEL 5
REMARK VINA RESULT:      -6.8      3.313      6.829
REMARK  Name = 
REMARK  2 active torsions:
REMARK  status: ('A' for Active; 'I' for Inactive)
REMARK    1  A    between atoms: C_2  and  C_12
REMARK    2  A    between atoms: N_3  and  C_4
REMARK                            x       y       z     vdW  Elec       q    Type
REMARK                         _______ _______ _______ _____ _____    ______ ____
ROOT
ATOM      1  O   UNL     1       2.383   3.179  16.652  0.00  0.00    +0.000 OA
ATOM      2  C   UNL     1       2.967   3.581  17.653  0.00  0.00    +0.000 C 
ATOM      3  N   UNL     1       4.164   4.261  17.614  0.00  0.00    +0.000 N 
ATOM      4  H   UNL     1       4.571   4.600  18.473  0.00  0.00    +0.000 HD
ENDROOT
BRANCH   3   5
ATOM      5  C   UNL     1       4.821   4.589  16.352  0.00  0.00    +0.000 C 
ATOM      6  C   UNL     1       5.053   6.114  16.184  0.00  0.00    +0.000 C 
ATOM      7  N   UNL     1       6.484   6.440  15.937  0.00  0.00    +0.000 NA
ATOM      8  C   UNL     1       7.286   5.951  17.077  0.00  0.00    +0.000 C 
ATOM      9  C   UNL     1       7.168   4.429  17.254  0.00  0.00    +0.000 C 
ATOM     10  C   UNL     1       6.181   3.868  16.215  0.00  0.00    +0.000 C 
ATOM     11  C   UNL     1       6.752   4.217  14.827  0.00  0.00    +0.000 C 
ATOM     12  C   UNL     1       6.925   5.741  14.710  0.00  0.00    +0.000 C 
ENDBRANCH   3   5
BRANCH   2  13
ATOM     13  C   UNL     1       2.405   3.295  19.002  0.00  0.00    +0.000 A 
ATOM     14  C   UNL     1       3.290   2.877  20.009  0.00  0.00    +0.000 A 
ATOM     15  C   UNL     1       2.812   2.579  21.286  0.00  0.00    +0.000 A 
ATOM     16  C   UNL     1       1.451   2.691  21.549  0.00  0.00    +0.000 A 
ATOM     17  F   UNL     1       0.988   2.391  22.770  0.00  0.00    +0.000 F 
ATOM     18  C   UNL     1       0.560   3.100  20.560  0.00  0.00    +0.000 A 
ATOM     19  C   UNL     1       1.036   3.405  19.281  0.00  0.00    +0.000 A 
ENDBRANCH   2  13
TORSDOF 2
ENDMDL
MODEL 6
REMARK VINA RESULT:      -6.8      2.470      3.389
REMARK  Name = 
REMARK  2 active torsions:
REMARK  status: ('A' for Active; 'I' for Inactive)
REMARK    1  A    between atoms: C_2  and  C_12
REMARK    2  A    between atoms: N_3  and  C_4
REMARK                            x       y       z     vdW  Elec       q    Type
REMARK                         _______ _______ _______ _____ _____    ______ ____
ROOT
ATOM      1  O   UNL     1       5.170   4.044  16.674  0.00  0.00    +0.000 OA
ATOM      2  C   UNL     1       5.178   4.708  17.706  0.00  0.00    +0.000 C 
ATOM      3  N   UNL     1       4.243   4.569  18.707  0.00  0.00    +0.000 N 
ATOM      4  H   UNL     1       4.331   5.118  19.549  0.00  0.00    +0.000 HD
ENDROOT
BRANCH   3   5
ATOM      5  C   UNL     1       3.173   3.579  18.627  0.00  0.00    +0.000 C 
ATOM      6  C   UNL     1       3.314   2.465  19.699  0.00  0.00    +0.000 C 
ATOM      7  N   UNL     1       2.095   2.342  20.543  0.00  0.00    +0.000 NA
ATOM      8  C   UNL     1       1.852   3.634  21.218  0.00  0.00    +0.000 C 
ATOM      9  C   UNL     1       1.622   4.773  20.213  0.00  0.00    +0.000 C 
ATOM     10  C   UNL     1       1.781   4.233  18.781  0.00  0.00    +0.000 C 
ATOM     11  C   UNL     1       0.726   3.124  18.605  0.00  0.00    +0.000 C 
ATOM     12  C   UNL     1       0.941   2.036  19.671  0.00  0.00    +0.000 C 
ENDBRANCH   3   5
BRANCH   2  13
ATOM     13  C   UNL     1       6.212   5.762  17.900  0.00  0.00    +0.000 A 
ATOM     14  C   UNL     1       7.186   5.555  18.890  0.00  0.00    +0.000 A 
ATOM     15  C   UNL     1       8.167   6.520  19.124  0.00  0.00    +0.000 A 
ATOM     16  C   UNL     1       8.164   7.691  18.376  0.00  0.00    +0.000 A 
ATOM     17  F   UNL     1       9.096   8.625  18.609  0.00  0.00    +0.000 F 
ATOM     18  C   UNL     1       7.202   7.915  17.395  0.00  0.00    +0.000 A 
ATOM     19  C   UNL     1       6.222   6.948  17.152  0.00  0.00    +0.000 A 
ENDBRANCH   2  13
TORSDOF 2
ENDMDL
MODEL 7
REMARK VINA RESULT:      -6.7      5.107      7.250
REMARK  Name = 
REMARK  2 active torsions:
REMARK  status: ('A' for Active; 'I' for Inactive)
REMARK    1  A    between atoms: C_2  and  C_12
REMARK    2  A    between atoms: N_3  and  C_4
REMARK                            x       y       z     vdW  Elec       q    Type
REMARK                         _______ _______ _______ _____ _____    ______ ____
ROOT
ATOM      1  O   UNL     1       1.914   8.383  18.088  0.00  0.00    +0.000 OA
ATOM      2  C   UNL     1       1.870   8.047  19.267  0.00  0.00    +0.000 C 
ATOM      3  N   UNL     1       2.385   6.860  19.739  0.00  0.00    +0.000 N 
ATOM      4  H   UNL     1       2.353   6.662  20.728  0.00  0.00    +0.000 HD
ENDROOT
BRANCH   3   5
ATOM      5  C   UNL     1       3.062   5.912  18.859  0.00  0.00    +0.000 C 
ATOM      6  C   UNL     1       4.274   5.227  19.545  0.00  0.00    +0.000 C 
ATOM      7  N   UNL     1       4.169   3.744  19.519  0.00  0.00    +0.000 NA
ATOM      8  C   UNL     1       2.929   3.343  20.214  0.00  0.00    +0.000 C 
ATOM      9  C   UNL     1       1.677   3.921  19.538  0.00  0.00    +0.000 C 
ATOM     10  C   UNL     1       2.098   4.813  18.357  0.00  0.00    +0.000 C 
ATOM     11  C   UNL     1       2.885   3.916  17.382  0.00  0.00    +0.000 C 
ATOM     12  C   UNL     1       4.090   3.298  18.111  0.00  0.00    +0.000 C 
ENDBRANCH   3   5
BRANCH   2  13
ATOM     13  C   UNL     1       1.192   8.922  20.262  0.00  0.00    +0.000 A 
ATOM     14  C   UNL     1       1.128   8.480  21.593  0.00  0.00    +0.000 A 
ATOM     15  C   UNL     1       0.487   9.255  22.562  0.00  0.00    +0.000 A 
ATOM     16  C   UNL     1      -0.096  10.462  22.194  0.00  0.00    +0.000 A 
ATOM     17  F   UNL     1      -0.724  11.200  23.119  0.00  0.00    +0.000 F 
ATOM     18  C   UNL     1      -0.046  10.912  20.877  0.00  0.00    +0.000 A 
ATOM     19  C   UNL     1       0.600  10.143  19.905  0.00  0.00    +0.000 A 
ENDBRANCH   2  13
TORSDOF 2
ENDMDL
MODEL 8
REMARK VINA RESULT:      -6.7      1.210      1.426
REMARK  Name = 
REMARK  2 active torsions:
REMARK  status: ('A' for Active; 'I' for Inactive)
REMARK    1  A    between atoms: C_2  and  C_12
REMARK    2  A    between atoms: N_3  and  C_4
REMARK                            x       y       z     vdW  Elec       q    Type
REMARK                         _______ _______ _______ _____ _____    ______ ____
ROOT
ATOM      1  O   UNL     1       6.770   4.586  17.725  0.00  0.00    +0.000 OA
ATOM      2  C   UNL     1       5.912   4.414  16.865  0.00  0.00    +0.000 C 
ATOM      3  N   UNL     1       4.591   4.154  17.152  0.00  0.00    +0.000 N 
ATOM      4  H   UNL     1       3.927   4.062  16.398  0.00  0.00    +0.000 HD
ENDROOT
BRANCH   3   5
ATOM      5  C   UNL     1       4.099   4.097  18.526  0.00  0.00    +0.000 C 
ATOM      6  C   UNL     1       2.878   5.026  18.758  0.00  0.00    +0.000 C 
ATOM      7  N   UNL     1       1.705   4.286  19.296  0.00  0.00    +0.000 NA
ATOM      8  C   UNL     1       1.331   3.225  18.338  0.00  0.00    +0.000 C 
ATOM      9  C   UNL     1       2.470   2.218  18.121  0.00  0.00    +0.000 C 
ATOM     10  C   UNL     1       3.704   2.658  18.929  0.00  0.00    +0.000 C 
ATOM     11  C   UNL     1       3.275   2.692  20.409  0.00  0.00    +0.000 C 
ATOM     12  C   UNL     1       2.088   3.655  20.578  0.00  0.00    +0.000 C 
ENDBRANCH   3   5
BRANCH   2  13
ATOM     13  C   UNL     1       6.291   4.433  15.425  0.00  0.00    +0.000 A 
ATOM     14  C   UNL     1       5.528   3.662  14.533  0.00  0.00    +0.000 A 
ATOM     15  C   UNL     1       5.853   3.631  13.176  0.00  0.00    +0.000 A 
ATOM     16  C   UNL     1       6.943   4.362  12.718  0.00  0.00    +0.000 A 
ATOM     17  F   UNL     1       7.265   4.322  11.418  0.00  0.00    +0.000 F 
ATOM     18  C   UNL     1       7.713   5.127  13.590  0.00  0.00    +0.000 A 
ATOM     19  C   UNL     1       7.388   5.166  14.950  0.00  0.00    +0.000 A 
ENDBRANCH   2  13
TORSDOF 2
ENDMDL
MODEL 9
REMARK VINA RESULT:      -6.7      1.132      1.740
REMARK  Name = 
REMARK  2 active torsions:
REMARK  status: ('A' for Active; 'I' for Inactive)
REMARK    1  A    between atoms: C_2  and  C_12
REMARK    2  A    between atoms: N_3  and  C_4
REMARK                            x       y       z     vdW  Elec       q    Type
REMARK                         _______ _______ _______ _____ _____    ______ ____
ROOT
ATOM      1  O   UNL     1       6.456   4.829  17.718  0.00  0.00    +0.000 OA
ATOM      2  C   UNL     1       5.667   4.439  16.863  0.00  0.00    +0.000 C 
ATOM      3  N   UNL     1       4.395   3.997  17.148  0.00  0.00    +0.000 N 
ATOM      4  H   UNL     1       3.781   3.728  16.394  0.00  0.00    +0.000 HD
ENDROOT
BRANCH   3   5
ATOM      5  C   UNL     1       3.870   3.992  18.511  0.00  0.00    +0.000 C 
ATOM      6  C   UNL     1       2.475   4.667  18.612  0.00  0.00    +0.000 C 
ATOM      7  N   UNL     1       1.458   3.763  19.213  0.00  0.00    +0.000 NA
ATOM      8  C   UNL     1       1.349   2.548  18.380  0.00  0.00    +0.000 C 
ATOM      9  C   UNL     1       2.678   1.782  18.302  0.00  0.00    +0.000 C 
ATOM     10  C   UNL     1       3.762   2.556  19.073  0.00  0.00    +0.000 C 
ATOM     11  C   UNL     1       3.275   2.666  20.531  0.00  0.00    +0.000 C 
ATOM     12  C   UNL     1       1.910   3.373  20.566  0.00  0.00    +0.000 C 
ENDBRANCH   3   5
BRANCH   2  13
ATOM     13  C   UNL     1       6.089   4.382  15.436  0.00  0.00    +0.000 A 
ATOM     14  C   UNL     1       7.232   5.105  15.059  0.00  0.00    +0.000 A 
ATOM     15  C   UNL     1       7.661   5.100  13.730  0.00  0.00    +0.000 A 
ATOM     16  C   UNL     1       6.940   4.381  12.784  0.00  0.00    +0.000 A 
ATOM     17  F   UNL     1       7.341   4.386  11.505  0.00  0.00    +0.000 F 
ATOM     18  C   UNL     1       5.802   3.663  13.141  0.00  0.00    +0.000 A 
ATOM     19  C   UNL     1       5.373   3.660  14.471  0.00  0.00    +0.000 A 
ENDBRANCH   2  13
TORSDOF 2
ENDMDL
