MODEL 1
REMARK VINA RESULT:      -8.5      0.000      0.000
REMARK  Name = 
REMARK  9 active torsions:
REMARK  status: ('A' for Active; 'I' for Inactive)
REMARK    1  A    between atoms: C_1  and  N_2
REMARK    2  A    between atoms: N_2  and  C_3
REMARK    3  A    between atoms: N_2  and  C_4
REMARK    4  A    between atoms: C_8  and  O_9
REMARK    5  A    between atoms: O_9  and  C_10
REMARK    6  A    between atoms: C_13  and  N_14
REMARK    7  A    between atoms: N_17  and  C_18
REMARK    8  A    between atoms: C_18  and  C_19
REMARK    9  A    between atoms: C_19  and  C_20
REMARK                            x       y       z     vdW  Elec       q    Type
REMARK                         _______ _______ _______ _____ _____    ______ ____
ROOT
ATOM      1  C   UNL     1       1.814   8.233  19.640  0.00  0.00    +0.000 A 
ATOM      2  C   UNL     1       1.706   8.707  18.338  0.00  0.00    +0.000 A 
ATOM      3  C   UNL     1       0.776   9.691  18.008  0.00  0.00    +0.000 A 
ATOM      4  C   UNL     1      -0.134  10.186  18.942  0.00  0.00    +0.000 A 
ATOM      5  C   UNL     1      -0.029   9.718  20.260  0.00  0.00    +0.000 A 
ATOM      6  C   UNL     1       0.942   8.747  20.606  0.00  0.00    +0.000 A 
ENDROOT
BRANCH   4   7
ATOM      7  N   UNL     1      -1.171  11.094  18.578  0.00  0.00    +0.000 N 
ATOM      8  C   UNL     1      -2.173  10.811  17.673  0.00  0.00    +0.000 C 
ATOM      9  O   UNL     1      -2.268   9.799  16.984  0.00  0.00    +0.000 OA
ATOM     10  N   UNL     1      -3.154  11.783  17.579  0.00  0.00    +0.000 N 
ATOM     11  H   UNL     1      -1.212  11.973  19.073  0.00  0.00    +0.000 HD
ATOM     12  H   UNL     1      -3.022  12.698  17.979  0.00  0.00    +0.000 HD
BRANCH  10  13
ATOM     13  C   UNL     1      -4.214  11.528  16.610  0.00  0.00    +0.000 C 
BRANCH  13  14
ATOM     14  C   UNL     1      -5.541  12.234  16.863  0.00  0.00    +0.000 C 
BRANCH  14  15
ATOM     15  C   UNL     1      -5.990  11.994  18.291  0.00  0.00    +0.000 A 
ATOM     16  C   UNL     1      -6.681  10.823  18.636  0.00  0.00    +0.000 A 
ATOM     17  C   UNL     1      -7.163  10.638  19.935  0.00  0.00    +0.000 A 
ATOM     18  C   UNL     1      -6.966  11.623  20.901  0.00  0.00    +0.000 A 
ATOM     19  C   UNL     1      -6.286  12.792  20.570  0.00  0.00    +0.000 A 
ATOM     20  C   UNL     1      -5.802  12.979  19.273  0.00  0.00    +0.000 A 
ENDBRANCH  14  15
ENDBRANCH  13  14
ENDBRANCH  10  13
ENDBRANCH   4   7
BRANCH   1  21
ATOM     21  O   UNL     1       2.700   7.229  19.997  0.00  0.00    +0.000 OA
BRANCH  21  26
ATOM     22  C   UNL     1       5.138   5.150  15.941  0.00  0.00    +0.000 A 
ATOM     23  C   UNL     1       5.273   6.383  16.596  0.00  0.00    +0.000 A 
ATOM     24  C   UNL     1       4.482   6.724  17.706  0.00  0.00    +0.000 A 
ATOM     25  C   UNL     1       3.506   5.826  18.196  0.00  0.00    +0.000 A 
ATOM     26  C   UNL     1       2.635   6.030  19.281  0.00  0.00    +0.000 A 
ATOM     27  N   UNL     1       1.714   5.126  19.678  0.00  0.00    +0.000 NA
ATOM     28  C   UNL     1       1.722   3.965  19.027  0.00  0.00    +0.000 A 
ATOM     29  N   UNL     1       2.501   3.653  17.987  0.00  0.00    +0.000 NA
ATOM     30  C   UNL     1       3.366   4.586  17.569  0.00  0.00    +0.000 A 
ATOM     31  C   UNL     1       4.161   4.287  16.464  0.00  0.00    +0.000 A 
BRANCH  22  33
ATOM     32  C   UNL     1       5.363   3.927  13.792  0.00  0.00    +0.000 C 
ATOM     33  N   UNL     1       5.908   4.809  14.826  0.00  0.00    +0.000 N 
ATOM     34  C   UNL     1       7.364   4.902  14.902  0.00  0.00    +0.000 C 
ENDBRANCH  22  33
ENDBRANCH  21  26
ENDBRANCH   1  21
TORSDOF 7
ENDMDL
MODEL 2
REMARK VINA RESULT:      -8.4      3.045      4.210
REMARK  Name = 
REMARK  9 active torsions:
REMARK  status: ('A' for Active; 'I' for Inactive)
REMARK    1  A    between atoms: C_1  and  N_2
REMARK    2  A    between atoms: N_2  and  C_3
REMARK    3  A    between atoms: N_2  and  C_4
REMARK    4  A    between atoms: C_8  and  O_9
REMARK    5  A    between atoms: O_9  and  C_10
REMARK    6  A    between atoms: C_13  and  N_14
REMARK    7  A    between atoms: N_17  and  C_18
REMARK    8  A    between atoms: C_18  and  C_19
REMARK    9  A    between atoms: C_19  and  C_20
REMARK                            x       y       z     vdW  Elec       q    Type
REMARK                         _______ _______ _______ _____ _____    ______ ____
ROOT
ATOM      1  C   UNL     1       3.247   5.566  19.467  0.00  0.00    +0.000 A 
ATOM      2  C   UNL     1       3.219   6.741  18.724  0.00  0.00    +0.000 A 
ATOM      3  C   UNL     1       2.364   7.786  19.067  0.00  0.00    +0.000 A 
ATOM      4  C   UNL     1       1.448   7.675  20.113  0.00  0.00    +0.000 A 
ATOM      5  C   UNL     1       1.472   6.496  20.872  0.00  0.00    +0.000 A 
ATOM      6  C   UNL     1       2.368   5.448  20.550  0.00  0.00    +0.000 A 
ENDROOT
BRANCH   4   7
ATOM      7  N   UNL     1       0.483   8.689  20.383  0.00  0.00    +0.000 N 
ATOM      8  C   UNL     1       0.331   9.316  21.603  0.00  0.00    +0.000 C 
ATOM      9  O   UNL     1       0.919   9.035  22.644  0.00  0.00    +0.000 OA
ATOM     10  N   UNL     1      -0.567  10.368  21.600  0.00  0.00    +0.000 N 
ATOM     11  H   UNL     1      -0.072   9.018  19.607  0.00  0.00    +0.000 HD
ATOM     12  H   UNL     1      -1.200  10.512  20.830  0.00  0.00    +0.000 HD
BRANCH  10  13
ATOM     13  C   UNL     1      -0.772  11.035  22.881  0.00  0.00    +0.000 C 
BRANCH  13  14
ATOM     14  C   UNL     1      -1.195  12.498  22.818  0.00  0.00    +0.000 C 
BRANCH  14  15
ATOM     15  C   UNL     1      -2.707  12.600  22.795  0.00  0.00    +0.000 A 
ATOM     16  C   UNL     1      -3.397  12.723  21.581  0.00  0.00    +0.000 A 
ATOM     17  C   UNL     1      -4.784  12.895  21.566  0.00  0.00    +0.000 A 
ATOM     18  C   UNL     1      -5.495  12.953  22.763  0.00  0.00    +0.000 A 
ATOM     19  C   UNL     1      -4.822  12.837  23.976  0.00  0.00    +0.000 A 
ATOM     20  C   UNL     1      -3.435  12.664  23.993  0.00  0.00    +0.000 A 
ENDBRANCH  14  15
ENDBRANCH  13  14
ENDBRANCH  10  13
ENDBRANCH   4   7
BRANCH   1  21
ATOM     21  O   UNL     1       4.056   4.491  19.134  0.00  0.00    +0.000 OA
BRANCH  21  26
ATOM     22  C   UNL     1       6.487   4.374  14.574  0.00  0.00    +0.000 A 
ATOM     23  C   UNL     1       5.173   4.059  14.955  0.00  0.00    +0.000 A 
ATOM     24  C   UNL     1       4.738   4.181  16.286  0.00  0.00    +0.000 A 
ATOM     25  C   UNL     1       5.625   4.619  17.295  0.00  0.00    +0.000 A 
ATOM     26  C   UNL     1       5.341   4.776  18.663  0.00  0.00    +0.000 A 
ATOM     27  N   UNL     1       6.253   5.184  19.572  0.00  0.00    +0.000 NA
ATOM     28  C   UNL     1       7.446   5.520  19.087  0.00  0.00    +0.000 A 
ATOM     29  N   UNL     1       7.832   5.418  17.812  0.00  0.00    +0.000 NA
ATOM     30  C   UNL     1       6.932   4.953  16.935  0.00  0.00    +0.000 A 
ATOM     31  C   UNL     1       7.332   4.810  15.608  0.00  0.00    +0.000 A 
BRANCH  22  33
ATOM     32  C   UNL     1       7.821   5.247  12.671  0.00  0.00    +0.000 C 
ATOM     33  N   UNL     1       6.934   4.240  13.257  0.00  0.00    +0.000 N 
ATOM     34  C   UNL     1       6.176   3.415  12.321  0.00  0.00    +0.000 C 
ENDBRANCH  22  33
ENDBRANCH  21  26
ENDBRANCH   1  21
TORSDOF 7
ENDMDL
MODEL 3
REMARK VINA RESULT:      -8.2      3.808      5.416
REMARK  Name = 
REMARK  9 active torsions:
REMARK  status: ('A' for Active; 'I' for Inactive)
REMARK    1  A    between atoms: C_1  and  N_2
REMARK    2  A    between atoms: N_2  and  C_3
REMARK    3  A    between atoms: N_2  and  C_4
REMARK    4  A    between atoms: C_8  and  O_9
REMARK    5  A    between atoms: O_9  and  C_10
REMARK    6  A    between atoms: C_13  and  N_14
REMARK    7  A    between atoms: N_17  and  C_18
REMARK    8  A    between atoms: C_18  and  C_19
REMARK    9  A    between atoms: C_19  and  C_20
REMARK                            x       y       z     vdW  Elec       q    Type
REMARK                         _______ _______ _______ _____ _____    ______ ____
ROOT
ATOM      1  C   UNL     1       3.195   6.076  19.230  0.00  0.00    +0.000 A 
ATOM      2  C   UNL     1       3.077   6.999  18.198  0.00  0.00    +0.000 A 
ATOM      3  C   UNL     1       2.305   8.149  18.350  0.00  0.00    +0.000 A 
ATOM      4  C   UNL     1       1.557   8.387  19.502  0.00  0.00    +0.000 A 
ATOM      5  C   UNL     1       1.673   7.463  20.552  0.00  0.00    +0.000 A 
ATOM      6  C   UNL     1       2.489   6.314  20.415  0.00  0.00    +0.000 A 
ENDROOT
BRANCH   4   7
ATOM      7  N   UNL     1       0.664   9.493  19.609  0.00  0.00    +0.000 N 
ATOM      8  C   UNL     1       0.889  10.733  19.048  0.00  0.00    +0.000 C 
ATOM      9  O   UNL     1       1.911  11.098  18.472  0.00  0.00    +0.000 OA
ATOM     10  N   UNL     1      -0.174  11.613  19.153  0.00  0.00    +0.000 N 
ATOM     11  H   UNL     1      -0.223   9.330  20.061  0.00  0.00    +0.000 HD
ATOM     12  H   UNL     1      -0.948  11.425  19.770  0.00  0.00    +0.000 HD
BRANCH  10  13
ATOM     13  C   UNL     1       0.042  12.944  18.596  0.00  0.00    +0.000 C 
BRANCH  13  14
ATOM     14  C   UNL     1       0.675  13.969  19.529  0.00  0.00    +0.000 C 
BRANCH  14  15
ATOM     15  C   UNL     1       1.487  14.967  18.727  0.00  0.00    +0.000 A 
ATOM     16  C   UNL     1       2.705  14.592  18.143  0.00  0.00    +0.000 A 
ATOM     17  C   UNL     1       3.490  15.533  17.470  0.00  0.00    +0.000 A 
ATOM     18  C   UNL     1       3.070  16.859  17.379  0.00  0.00    +0.000 A 
ATOM     19  C   UNL     1       1.864  17.245  17.959  0.00  0.00    +0.000 A 
ATOM     20  C   UNL     1       1.078  16.306  18.632  0.00  0.00    +0.000 A 
ENDBRANCH  14  15
ENDBRANCH  13  14
ENDBRANCH  10  13
ENDBRANCH   4   7
BRANCH   1  21
ATOM     21  O   UNL     1       3.923   4.903  19.103  0.00  0.00    +0.000 OA
BRANCH  21  26
ATOM     22  C   UNL     1       6.397   4.388  14.593  0.00  0.00    +0.000 A 
ATOM     23  C   UNL     1       5.047   4.252  14.955  0.00  0.00    +0.000 A 
ATOM     24  C   UNL     1       4.608   4.454  16.274  0.00  0.00    +0.000 A 
ATOM     25  C   UNL     1       5.527   4.794  17.293  0.00  0.00    +0.000 A 
ATOM     26  C   UNL     1       5.243   5.012  18.652  0.00  0.00    +0.000 A 
ATOM     27  N   UNL     1       6.183   5.317  19.572  0.00  0.00    +0.000 NA
ATOM     28  C   UNL     1       7.418   5.488  19.104  0.00  0.00    +0.000 A 
ATOM     29  N   UNL     1       7.809   5.313  17.839  0.00  0.00    +0.000 NA
ATOM     30  C   UNL     1       6.872   4.951  16.953  0.00  0.00    +0.000 A 
ATOM     31  C   UNL     1       7.273   4.732  15.636  0.00  0.00    +0.000 A 
BRANCH  22  33
ATOM     32  C   UNL     1       7.802   5.095  12.673  0.00  0.00    +0.000 C 
ATOM     33  N   UNL     1       6.846   4.173  13.288  0.00  0.00    +0.000 N 
ATOM     34  C   UNL     1       6.042   3.363  12.376  0.00  0.00    +0.000 C 
ENDBRANCH  22  33
ENDBRANCH  21  26
ENDBRANCH   1  21
TORSDOF 7
ENDMDL
MODEL 4
REMARK VINA RESULT:      -8.2      1.972      3.379
REMARK  Name = 
REMARK  9 active torsions:
REMARK  status: ('A' for Active; 'I' for Inactive)
REMARK    1  A    between atoms: C_1  and  N_2
REMARK    2  A    between atoms: N_2  and  C_3
REMARK    3  A    between atoms: N_2  and  C_4
REMARK    4  A    between atoms: C_8  and  O_9
REMARK    5  A    between atoms: O_9  and  C_10
REMARK    6  A    between atoms: C_13  and  N_14
REMARK    7  A    between atoms: N_17  and  C_18
REMARK    8  A    between atoms: C_18  and  C_19
REMARK    9  A    between atoms: C_19  and  C_20
REMARK                            x       y       z     vdW  Elec       q    Type
REMARK                         _______ _______ _______ _____ _____    ______ ____
ROOT
ATOM      1  C   UNL     1       3.076   5.692  19.094  0.00  0.00    +0.000 A 
ATOM      2  C   UNL     1       2.326   5.763  20.262  0.00  0.00    +0.000 A 
ATOM      3  C   UNL     1       1.621   6.918  20.592  0.00  0.00    +0.000 A 
ATOM      4  C   UNL     1       1.696   8.074  19.815  0.00  0.00    +0.000 A 
ATOM      5  C   UNL     1       2.446   8.010  18.631  0.00  0.00    +0.000 A 
ATOM      6  C   UNL     1       3.131   6.824  18.274  0.00  0.00    +0.000 A 
ENDROOT
BRANCH   4   7
ATOM      7  N   UNL     1       1.083   9.296  20.218  0.00  0.00    +0.000 N 
ATOM      8  C   UNL     1       0.157   9.989  19.466  0.00  0.00    +0.000 C 
ATOM      9  O   UNL     1      -0.198   9.721  18.321  0.00  0.00    +0.000 OA
ATOM     10  N   UNL     1      -0.414  11.071  20.111  0.00  0.00    +0.000 N 
ATOM     11  H   UNL     1       1.288   9.633  21.147  0.00  0.00    +0.000 HD
ATOM     12  H   UNL     1      -0.023  11.434  20.966  0.00  0.00    +0.000 HD
BRANCH  10  13
ATOM     13  C   UNL     1      -1.377  11.843  19.333  0.00  0.00    +0.000 C 
BRANCH  13  14
ATOM     14  C   UNL     1      -2.615  12.323  20.081  0.00  0.00    +0.000 C 
BRANCH  14  15
ATOM     15  C   UNL     1      -3.840  12.178  19.200  0.00  0.00    +0.000 A 
ATOM     16  C   UNL     1      -5.087  12.658  19.625  0.00  0.00    +0.000 A 
ATOM     17  C   UNL     1      -6.230  12.454  18.847  0.00  0.00    +0.000 A 
ATOM     18  C   UNL     1      -6.141  11.764  17.640  0.00  0.00    +0.000 A 
ATOM     19  C   UNL     1      -4.910  11.279  17.208  0.00  0.00    +0.000 A 
ATOM     20  C   UNL     1      -3.765  11.481  17.984  0.00  0.00    +0.000 A 
ENDBRANCH  14  15
ENDBRANCH  13  14
ENDBRANCH  10  13
ENDBRANCH   4   7
BRANCH   1  21
ATOM     21  O   UNL     1       3.821   4.574  18.751  0.00  0.00    +0.000 OA
BRANCH  21  26
ATOM     22  C   UNL     1       6.472   4.629  14.313  0.00  0.00    +0.000 A 
ATOM     23  C   UNL     1       5.117   4.404  14.606  0.00  0.00    +0.000 A 
ATOM     24  C   UNL     1       4.624   4.449  15.920  0.00  0.00    +0.000 A 
ATOM     25  C   UNL     1       5.490   4.717  17.004  0.00  0.00    +0.000 A 
ATOM     26  C   UNL     1       5.149   4.780  18.366  0.00  0.00    +0.000 A 
ATOM     27  N   UNL     1       6.043   5.024  19.349  0.00  0.00    +0.000 NA
ATOM     28  C   UNL     1       7.285   5.291  18.951  0.00  0.00    +0.000 A 
ATOM     29  N   UNL     1       7.728   5.264  17.691  0.00  0.00    +0.000 NA
ATOM     30  C   UNL     1       6.839   4.960  16.736  0.00  0.00    +0.000 A 
ATOM     31  C   UNL     1       7.295   4.896  15.420  0.00  0.00    +0.000 A 
BRANCH  22  33
ATOM     32  C   UNL     1       6.711   3.401  12.169  0.00  0.00    +0.000 C 
ATOM     33  N   UNL     1       6.975   4.569  13.012  0.00  0.00    +0.000 N 
ATOM     34  C   UNL     1       8.130   5.386  12.651  0.00  0.00    +0.000 C 
ENDBRANCH  22  33
ENDBRANCH  21  26
ENDBRANCH   1  21
TORSDOF 7
ENDMDL
MODEL 5
REMARK VINA RESULT:      -8.2      1.798      2.853
REMARK  Name = 
REMARK  9 active torsions:
REMARK  status: ('A' for Active; 'I' for Inactive)
REMARK    1  A    between atoms: C_1  and  N_2
REMARK    2  A    between atoms: N_2  and  C_3
REMARK    3  A    between atoms: N_2  and  C_4
REMARK    4  A    between atoms: C_8  and  O_9
REMARK    5  A    between atoms: O_9  and  C_10
REMARK    6  A    between atoms: C_13  and  N_14
REMARK    7  A    between atoms: N_17  and  C_18
REMARK    8  A    between atoms: C_18  and  C_19
REMARK    9  A    between atoms: C_19  and  C_20
REMARK                            x       y       z     vdW  Elec       q    Type
REMARK                         _______ _______ _______ _____ _____    ______ ____
ROOT
ATOM      1  C   UNL     1       2.843   6.504  18.965  0.00  0.00    +0.000 A 
ATOM      2  C   UNL     1       2.759   7.508  18.008  0.00  0.00    +0.000 A 
ATOM      3  C   UNL     1       2.137   8.721  18.295  0.00  0.00    +0.000 A 
ATOM      4  C   UNL     1       1.504   8.953  19.516  0.00  0.00    +0.000 A 
ATOM      5  C   UNL     1       1.588   7.947  20.490  0.00  0.00    +0.000 A 
ATOM      6  C   UNL     1       2.255   6.729  20.215  0.00  0.00    +0.000 A 
ENDROOT
BRANCH   4   7
ATOM      7  N   UNL     1       0.754  10.139  19.765  0.00  0.00    +0.000 N 
ATOM      8  C   UNL     1      -0.483  10.409  19.216  0.00  0.00    +0.000 C 
ATOM      9  O   UNL     1      -1.069   9.734  18.374  0.00  0.00    +0.000 OA
ATOM     10  N   UNL     1      -1.093  11.550  19.707  0.00  0.00    +0.000 N 
ATOM     11  H   UNL     1       1.123  10.787  20.445  0.00  0.00    +0.000 HD
ATOM     12  H   UNL     1      -0.579  12.224  20.250  0.00  0.00    +0.000 HD
BRANCH  10  13
ATOM     13  C   UNL     1      -2.391  11.880  19.127  0.00  0.00    +0.000 C 
BRANCH  13  14
ATOM     14  C   UNL     1      -3.376  12.593  20.045  0.00  0.00    +0.000 C 
BRANCH  14  15
ATOM     15  C   UNL     1      -4.783  12.465  19.494  0.00  0.00    +0.000 A 
ATOM     16  C   UNL     1      -5.823  13.256  20.001  0.00  0.00    +0.000 A 
ATOM     17  C   UNL     1      -7.134  13.082  19.548  0.00  0.00    +0.000 A 
ATOM     18  C   UNL     1      -7.420  12.112  18.589  0.00  0.00    +0.000 A 
ATOM     19  C   UNL     1      -6.396  11.316  18.081  0.00  0.00    +0.000 A 
ATOM     20  C   UNL     1      -5.085  11.489  18.532  0.00  0.00    +0.000 A 
ENDBRANCH  14  15
ENDBRANCH  13  14
ENDBRANCH  10  13
ENDBRANCH   4   7
BRANCH   1  21
ATOM     21  O   UNL     1       3.421   5.271  18.705  0.00  0.00    +0.000 OA
BRANCH  21  26
ATOM     22  C   UNL     1       6.476   4.599  14.588  0.00  0.00    +0.000 A 
ATOM     23  C   UNL     1       5.081   4.602  14.743  0.00  0.00    +0.000 A 
ATOM     24  C   UNL     1       4.472   4.818  15.991  0.00  0.00    +0.000 A 
ATOM     25  C   UNL     1       5.258   5.032  17.145  0.00  0.00    +0.000 A 
ATOM     26  C   UNL     1       4.797   5.247  18.456  0.00  0.00    +0.000 A 
ATOM     27  N   UNL     1       5.616   5.425  19.515  0.00  0.00    +0.000 NA
ATOM     28  C   UNL     1       6.918   5.472  19.241  0.00  0.00    +0.000 A 
ATOM     29  N   UNL     1       7.474   5.286  18.040  0.00  0.00    +0.000 NA
ATOM     30  C   UNL     1       6.648   5.050  17.013  0.00  0.00    +0.000 A 
ATOM     31  C   UNL     1       7.217   4.820  15.762  0.00  0.00    +0.000 A 
BRANCH  22  33
ATOM     32  C   UNL     1       8.056   5.329  12.819  0.00  0.00    +0.000 C 
ATOM     33  N   UNL     1       7.091   4.368  13.355  0.00  0.00    +0.000 N 
ATOM     34  C   UNL     1       6.453   3.476  12.391  0.00  0.00    +0.000 C 
ENDBRANCH  22  33
ENDBRANCH  21  26
ENDBRANCH   1  21
TORSDOF 7
ENDMDL
MODEL 6
REMARK VINA RESULT:      -8.2      2.165     10.235
REMARK  Name = 
REMARK  9 active torsions:
REMARK  status: ('A' for Active; 'I' for Inactive)
REMARK    1  A    between atoms: C_1  and  N_2
REMARK    2  A    between atoms: N_2  and  C_3
REMARK    3  A    between atoms: N_2  and  C_4
REMARK    4  A    between atoms: C_8  and  O_9
REMARK    5  A    between atoms: O_9  and  C_10
REMARK    6  A    between atoms: C_13  and  N_14
REMARK    7  A    between atoms: N_17  and  C_18
REMARK    8  A    between atoms: C_18  and  C_19
REMARK    9  A    between atoms: C_19  and  C_20
REMARK                            x       y       z     vdW  Elec       q    Type
REMARK                         _______ _______ _______ _____ _____    ______ ____
ROOT
ATOM      1  C   UNL     1       0.865  10.032  19.033  0.00  0.00    +0.000 A 
ATOM      2  C   UNL     1       0.964   9.047  20.008  0.00  0.00    +0.000 A 
ATOM      3  C   UNL     1       1.846   7.979  19.861  0.00  0.00    +0.000 A 
ATOM      4  C   UNL     1       2.606   7.806  18.705  0.00  0.00    +0.000 A 
ATOM      5  C   UNL     1       2.517   8.798  17.717  0.00  0.00    +0.000 A 
ATOM      6  C   UNL     1       1.651   9.906  17.882  0.00  0.00    +0.000 A 
ENDROOT
BRANCH   4   7
ATOM      7  N   UNL     1       3.409   6.647  18.495  0.00  0.00    +0.000 N 
ATOM      8  C   UNL     1       2.962   5.487  17.896  0.00  0.00    +0.000 C 
ATOM      9  O   UNL     1       1.809   5.242  17.552  0.00  0.00    +0.000 OA
ATOM     10  N   UNL     1       3.948   4.543  17.665  0.00  0.00    +0.000 N 
ATOM     11  H   UNL     1       4.387   6.711  18.735  0.00  0.00    +0.000 HD
ATOM     12  H   UNL     1       4.856   4.622  18.093  0.00  0.00    +0.000 HD
BRANCH  10  13
ATOM     13  C   UNL     1       3.504   3.292  17.059  0.00  0.00    +0.000 C 
BRANCH  13  14
ATOM     14  C   UNL     1       3.552   2.058  17.952  0.00  0.00    +0.000 C 
BRANCH  14  15
ATOM     15  C   UNL     1       2.749   2.301  19.214  0.00  0.00    +0.000 A 
ATOM     16  C   UNL     1       1.355   2.438  19.159  0.00  0.00    +0.000 A 
ATOM     17  C   UNL     1       0.624   2.740  20.311  0.00  0.00    +0.000 A 
ATOM     18  C   UNL     1       1.278   2.914  21.529  0.00  0.00    +0.000 A 
ATOM     19  C   UNL     1       2.663   2.785  21.597  0.00  0.00    +0.000 A 
ATOM     20  C   UNL     1       3.396   2.483  20.446  0.00  0.00    +0.000 A 
ENDBRANCH  14  15
ENDBRANCH  13  14
ENDBRANCH  10  13
ENDBRANCH   4   7
BRANCH   1  21
ATOM     21  O   UNL     1      -0.027  11.090  19.127  0.00  0.00    +0.000 OA
BRANCH  21  26
ATOM     22  C   UNL     1      -4.807  12.875  19.957  0.00  0.00    +0.000 A 
ATOM     23  C   UNL     1      -3.584  13.105  20.606  0.00  0.00    +0.000 A 
ATOM     24  C   UNL     1      -2.392  12.495  20.180  0.00  0.00    +0.000 A 
ATOM     25  C   UNL     1      -2.391  11.611  19.078  0.00  0.00    +0.000 A 
ATOM     26  C   UNL     1      -1.289  10.918  18.547  0.00  0.00    +0.000 A 
ATOM     27  N   UNL     1      -1.373  10.073  17.498  0.00  0.00    +0.000 NA
ATOM     28  C   UNL     1      -2.568   9.984  16.919  0.00  0.00    +0.000 A 
ATOM     29  N   UNL     1      -3.685  10.593  17.327  0.00  0.00    +0.000 NA
ATOM     30  C   UNL     1      -3.594  11.380  18.407  0.00  0.00    +0.000 A 
ATOM     31  C   UNL     1      -4.758  11.994  18.864  0.00  0.00    +0.000 A 
BRANCH  22  33
ATOM     32  C   UNL     1      -7.189  13.426  19.529  0.00  0.00    +0.000 C 
ATOM     33  N   UNL     1      -6.000  13.464  20.383  0.00  0.00    +0.000 N 
ATOM     34  C   UNL     1      -5.962  14.508  21.403  0.00  0.00    +0.000 C 
ENDBRANCH  22  33
ENDBRANCH  21  26
ENDBRANCH   1  21
TORSDOF 7
ENDMDL
MODEL 7
REMARK VINA RESULT:      -8.1      2.109     10.928
REMARK  Name = 
REMARK  9 active torsions:
REMARK  status: ('A' for Active; 'I' for Inactive)
REMARK    1  A    between atoms: C_1  and  N_2
REMARK    2  A    between atoms: N_2  and  C_3
REMARK    3  A    between atoms: N_2  and  C_4
REMARK    4  A    between atoms: C_8  and  O_9
REMARK    5  A    between atoms: O_9  and  C_10
REMARK    6  A    between atoms: C_13  and  N_14
REMARK    7  A    between atoms: N_17  and  C_18
REMARK    8  A    between atoms: C_18  and  C_19
REMARK    9  A    between atoms: C_19  and  C_20
REMARK                            x       y       z     vdW  Elec       q    Type
REMARK                         _______ _______ _______ _____ _____    ______ ____
ROOT
ATOM      1  C   UNL     1       0.335  10.484  18.967  0.00  0.00    +0.000 A 
ATOM      2  C   UNL     1       1.249   9.958  18.062  0.00  0.00    +0.000 A 
ATOM      3  C   UNL     1       1.954   8.792  18.351  0.00  0.00    +0.000 A 
ATOM      4  C   UNL     1       1.836   8.146  19.582  0.00  0.00    +0.000 A 
ATOM      5  C   UNL     1       0.911   8.667  20.500  0.00  0.00    +0.000 A 
ATOM      6  C   UNL     1       0.164   9.829  20.192  0.00  0.00    +0.000 A 
ENDROOT
BRANCH   4   7
ATOM      7  N   UNL     1       2.651   7.030  19.931  0.00  0.00    +0.000 N 
ATOM      8  C   UNL     1       2.819   5.911  19.143  0.00  0.00    +0.000 C 
ATOM      9  O   UNL     1       2.230   5.663  18.094  0.00  0.00    +0.000 OA
ATOM     10  N   UNL     1       3.766   5.016  19.609  0.00  0.00    +0.000 N 
ATOM     11  H   UNL     1       3.197   7.102  20.777  0.00  0.00    +0.000 HD
ATOM     12  H   UNL     1       4.132   5.085  20.545  0.00  0.00    +0.000 HD
BRANCH  10  13
ATOM     13  C   UNL     1       3.948   3.807  18.814  0.00  0.00    +0.000 C 
BRANCH  13  14
ATOM     14  C   UNL     1       4.908   3.915  17.634  0.00  0.00    +0.000 C 
BRANCH  14  15
ATOM     15  C   UNL     1       5.891   5.045  17.870  0.00  0.00    +0.000 A 
ATOM     16  C   UNL     1       5.822   6.222  17.112  0.00  0.00    +0.000 A 
ATOM     17  C   UNL     1       6.776   7.230  17.275  0.00  0.00    +0.000 A 
ATOM     18  C   UNL     1       7.813   7.070  18.192  0.00  0.00    +0.000 A 
ATOM     19  C   UNL     1       7.896   5.903  18.948  0.00  0.00    +0.000 A 
ATOM     20  C   UNL     1       6.942   4.894  18.787  0.00  0.00    +0.000 A 
ENDBRANCH  14  15
ENDBRANCH  13  14
ENDBRANCH  10  13
ENDBRANCH   4   7
BRANCH   1  21
ATOM     21  O   UNL     1      -0.357  11.663  18.730  0.00  0.00    +0.000 OA
BRANCH  21  26
ATOM     22  C   UNL     1      -4.937  12.732  20.875  0.00  0.00    +0.000 A 
ATOM     23  C   UNL     1      -3.619  12.874  21.336  0.00  0.00    +0.000 A 
ATOM     24  C   UNL     1      -2.514  12.510  20.548  0.00  0.00    +0.000 A 
ATOM     25  C   UNL     1      -2.700  11.975  19.253  0.00  0.00    +0.000 A 
ATOM     26  C   UNL     1      -1.700  11.555  18.358  0.00  0.00    +0.000 A 
ATOM     27  N   UNL     1      -1.960  11.034  17.140  0.00  0.00    +0.000 NA
ATOM     28  C   UNL     1      -3.242  11.011  16.780  0.00  0.00    +0.000 A 
ATOM     29  N   UNL     1      -4.277  11.383  17.539  0.00  0.00    +0.000 NA
ATOM     30  C   UNL     1      -4.002  11.840  18.767  0.00  0.00    +0.000 A 
ATOM     31  C   UNL     1      -5.074  12.201  19.582  0.00  0.00    +0.000 A 
BRANCH  22  33
ATOM     32  C   UNL     1      -7.181  13.776  21.062  0.00  0.00    +0.000 C 
ATOM     33  N   UNL     1      -6.043  13.074  21.657  0.00  0.00    +0.000 N 
ATOM     34  C   UNL     1      -5.890  13.189  23.105  0.00  0.00    +0.000 C 
ENDBRANCH  22  33
ENDBRANCH  21  26
ENDBRANCH   1  21
TORSDOF 7
ENDMDL
MODEL 8
REMARK VINA RESULT:      -8.1      3.862      4.865
REMARK  Name = 
REMARK  9 active torsions:
REMARK  status: ('A' for Active; 'I' for Inactive)
REMARK    1  A    between atoms: C_1  and  N_2
REMARK    2  A    between atoms: N_2  and  C_3
REMARK    3  A    between atoms: N_2  and  C_4
REMARK    4  A    between atoms: C_8  and  O_9
REMARK    5  A    between atoms: O_9  and  C_10
REMARK    6  A    between atoms: C_13  and  N_14
REMARK    7  A    between atoms: N_17  and  C_18
REMARK    8  A    between atoms: C_18  and  C_19
REMARK    9  A    between atoms: C_19  and  C_20
REMARK                            x       y       z     vdW  Elec       q    Type
REMARK                         _______ _______ _______ _____ _____    ______ ____
ROOT
ATOM      1  C   UNL     1       3.385   4.864  19.347  0.00  0.00    +0.000 A 
ATOM      2  C   UNL     1       3.043   6.047  18.703  0.00  0.00    +0.000 A 
ATOM      3  C   UNL     1       2.120   6.927  19.263  0.00  0.00    +0.000 A 
ATOM      4  C   UNL     1       1.441   6.629  20.444  0.00  0.00    +0.000 A 
ATOM      5  C   UNL     1       1.783   5.440  21.105  0.00  0.00    +0.000 A 
ATOM      6  C   UNL     1       2.752   4.563  20.558  0.00  0.00    +0.000 A 
ENDROOT
BRANCH   4   7
ATOM      7  N   UNL     1       0.402   7.463  20.950  0.00  0.00    +0.000 N 
ATOM      8  C   UNL     1       0.607   8.557  21.765  0.00  0.00    +0.000 C 
ATOM      9  O   UNL     1       1.677   8.913  22.251  0.00  0.00    +0.000 OA
ATOM     10  N   UNL     1      -0.528   9.307  22.018  0.00  0.00    +0.000 N 
ATOM     11  H   UNL     1      -0.537   7.282  20.626  0.00  0.00    +0.000 HD
ATOM     12  H   UNL     1      -1.446   8.954  21.799  0.00  0.00    +0.000 HD
BRANCH  10  13
ATOM     13  C   UNL     1      -0.352  10.455  22.901  0.00  0.00    +0.000 C 
BRANCH  13  14
ATOM     14  C   UNL     1      -0.497  11.828  22.255  0.00  0.00    +0.000 C 
BRANCH  14  15
ATOM     15  C   UNL     1      -1.592  12.613  22.951  0.00  0.00    +0.000 A 
ATOM     16  C   UNL     1      -1.385  13.949  23.325  0.00  0.00    +0.000 A 
ATOM     17  C   UNL     1      -2.365  14.648  24.036  0.00  0.00    +0.000 A 
ATOM     18  C   UNL     1      -3.558  14.019  24.386  0.00  0.00    +0.000 A 
ATOM     19  C   UNL     1      -3.774  12.691  24.024  0.00  0.00    +0.000 A 
ATOM     20  C   UNL     1      -2.796  11.991  23.313  0.00  0.00    +0.000 A 
ENDBRANCH  14  15
ENDBRANCH  13  14
ENDBRANCH  10  13
ENDBRANCH   4   7
BRANCH   1  21
ATOM     21  O   UNL     1       4.271   3.947  18.804  0.00  0.00    +0.000 OA
BRANCH  21  26
ATOM     22  C   UNL     1       6.617   4.605  14.244  0.00  0.00    +0.000 A 
ATOM     23  C   UNL     1       5.357   4.097  14.597  0.00  0.00    +0.000 A 
ATOM     24  C   UNL     1       4.934   4.024  15.935  0.00  0.00    +0.000 A 
ATOM     25  C   UNL     1       5.781   4.456  16.980  0.00  0.00    +0.000 A 
ATOM     26  C   UNL     1       5.505   4.432  18.359  0.00  0.00    +0.000 A 
ATOM     27  N   UNL     1       6.378   4.848  19.302  0.00  0.00    +0.000 NA
ATOM     28  C   UNL     1       7.515   5.373  18.849  0.00  0.00    +0.000 A 
ATOM     29  N   UNL     1       7.887   5.454  17.568  0.00  0.00    +0.000 NA
ATOM     30  C   UNL     1       7.033   4.980  16.652  0.00  0.00    +0.000 A 
ATOM     31  C   UNL     1       7.423   5.027  15.315  0.00  0.00    +0.000 A 
BRANCH  22  33
ATOM     32  C   UNL     1       6.806   3.548  12.006  0.00  0.00    +0.000 C 
ATOM     33  N   UNL     1       7.053   4.666  12.918  0.00  0.00    +0.000 N 
ATOM     34  C   UNL     1       8.143   5.571  12.562  0.00  0.00    +0.000 C 
ENDBRANCH  22  33
ENDBRANCH  21  26
ENDBRANCH   1  21
TORSDOF 7
ENDMDL
MODEL 9
REMARK VINA RESULT:      -8.1      1.885     10.700
REMARK  Name = 
REMARK  9 active torsions:
REMARK  status: ('A' for Active; 'I' for Inactive)
REMARK    1  A    between atoms: C_1  and  N_2
REMARK    2  A    between atoms: N_2  and  C_3
REMARK    3  A    between atoms: N_2  and  C_4
REMARK    4  A    between atoms: C_8  and  O_9
REMARK    5  A    between atoms: O_9  and  C_10
REMARK    6  A    between atoms: C_13  and  N_14
REMARK    7  A    between atoms: N_17  and  C_18
REMARK    8  A    between atoms: C_18  and  C_19
REMARK    9  A    between atoms: C_19  and  C_20
REMARK                            x       y       z     vdW  Elec       q    Type
REMARK                         _______ _______ _______ _____ _____    ______ ____
ROOT
ATOM      1  C   UNL     1       0.467  10.244  19.000  0.00  0.00    +0.000 A 
ATOM      2  C   UNL     1       0.256   9.627  20.227  0.00  0.00    +0.000 A 
ATOM      3  C   UNL     1       0.997   8.509  20.604  0.00  0.00    +0.000 A 
ATOM      4  C   UNL     1       1.921   7.914  19.744  0.00  0.00    +0.000 A 
ATOM      5  C   UNL     1       2.144   8.533  18.506  0.00  0.00    +0.000 A 
ATOM      6  C   UNL     1       1.421   9.693  18.137  0.00  0.00    +0.000 A 
ENDROOT
BRANCH   4   7
ATOM      7  N   UNL     1       2.583   6.696  20.074  0.00  0.00    +0.000 N 
ATOM      8  C   UNL     1       2.512   5.542  19.322  0.00  0.00    +0.000 C 
ATOM      9  O   UNL     1       1.807   5.358  18.334  0.00  0.00    +0.000 OA
ATOM     10  N   UNL     1       3.349   4.525  19.749  0.00  0.00    +0.000 N 
ATOM     11  H   UNL     1       3.203   6.707  20.870  0.00  0.00    +0.000 HD
ATOM     12  H   UNL     1       3.798   4.563  20.649  0.00  0.00    +0.000 HD
BRANCH  10  13
ATOM     13  C   UNL     1       3.277   3.280  18.992  0.00  0.00    +0.000 C 
BRANCH  13  14
ATOM     14  C   UNL     1       4.401   3.036  17.991  0.00  0.00    +0.000 C 
BRANCH  14  15
ATOM     15  C   UNL     1       5.143   4.330  17.720  0.00  0.00    +0.000 A 
ATOM     16  C   UNL     1       4.839   5.105  16.592  0.00  0.00    +0.000 A 
ATOM     17  C   UNL     1       5.576   6.256  16.301  0.00  0.00    +0.000 A 
ATOM     18  C   UNL     1       6.628   6.641  17.129  0.00  0.00    +0.000 A 
ATOM     19  C   UNL     1       6.943   5.878  18.250  0.00  0.00    +0.000 A 
ATOM     20  C   UNL     1       6.207   4.727  18.544  0.00  0.00    +0.000 A 
ENDBRANCH  14  15
ENDBRANCH  13  14
ENDBRANCH  10  13
ENDBRANCH   4   7
BRANCH   1  21
ATOM     21  O   UNL     1      -0.277  11.335  18.575  0.00  0.00    +0.000 OA
BRANCH  21  26
ATOM     22  C   UNL     1      -5.025  12.713  20.086  0.00  0.00    +0.000 A 
ATOM     23  C   UNL     1      -3.748  13.008  20.588  0.00  0.00    +0.000 A 
ATOM     24  C   UNL     1      -2.580  12.509  19.987  0.00  0.00    +0.000 A 
ATOM     25  C   UNL     1      -2.658  11.676  18.848  0.00  0.00    +0.000 A 
ATOM     26  C   UNL     1      -1.587  11.093  18.149  0.00  0.00    +0.000 A 
ATOM     27  N   UNL     1      -1.745  10.288  17.076  0.00  0.00    +0.000 NA
ATOM     28  C   UNL     1      -2.995  10.134  16.646  0.00  0.00    +0.000 A 
ATOM     29  N   UNL     1      -4.091  10.637  17.222  0.00  0.00    +0.000 NA
ATOM     30  C   UNL     1      -3.918  11.382  18.321  0.00  0.00    +0.000 A 
ATOM     31  C   UNL     1      -5.054  11.885  18.951  0.00  0.00    +0.000 A 
BRANCH  22  33
ATOM     32  C   UNL     1      -6.127  13.922  21.953  0.00  0.00    +0.000 C 
ATOM     33  N   UNL     1      -6.192  13.189  20.687  0.00  0.00    +0.000 N 
ATOM     34  C   UNL     1      -7.474  12.573  20.355  0.00  0.00    +0.000 C 
ENDBRANCH  22  33
ENDBRANCH  21  26
ENDBRANCH   1  21
TORSDOF 7
ENDMDL
