MODEL 1
REMARK VINA RESULT:      -9.0      0.000      0.000
REMARK  Name = 
REMARK  1 active torsions:
REMARK  status: ('A' for Active; 'I' for Inactive)
REMARK    1  A    between atoms: C_1  and  C_24
REMARK                            x       y       z     vdW  Elec       q    Type
REMARK                         _______ _______ _______ _____ _____    ______ ____
ROOT
ATOM      1  C   UNL     1       1.355   6.235  20.157  0.00  0.00    +0.000 C 
ATOM      2  C   UNL     1       2.055   7.241  19.574  0.00  0.00    +0.000 C 
ATOM      3  C   UNL     1       3.141   7.025  18.546  0.00  0.00    +0.000 A 
ATOM      4  C   UNL     1       3.047   7.890  17.439  0.00  0.00    +0.000 A 
ATOM      5  C   UNL     1       3.850   7.744  16.308  0.00  0.00    +0.000 A 
ATOM      6  C   UNL     1       4.753   6.697  16.238  0.00  0.00    +0.000 A 
ATOM      7  C   UNL     1       4.919   5.840  17.327  0.00  0.00    +0.000 A 
ATOM      8  C   UNL     1       5.822   4.770  17.216  0.00  0.00    +0.000 A 
ATOM      9  C   UNL     1       6.060   3.926  18.293  0.00  0.00    +0.000 A 
ATOM     10  C   UNL     1       5.468   4.202  19.516  0.00  0.00    +0.000 A 
ATOM     11  C   UNL     1       4.578   5.274  19.633  0.00  0.00    +0.000 A 
ATOM     12  C   UNL     1       4.184   6.052  18.529  0.00  0.00    +0.000 A 
ATOM     13  O   UNL     1       2.160   8.935  17.354  0.00  0.00    +0.000 OA
ATOM     14  C   UNL     1       1.602   9.404  18.517  0.00  0.00    +0.000 A 
ATOM     15  C   UNL     1       1.115  10.707  18.422  0.00  0.00    +0.000 A 
ATOM     16  C   UNL     1       0.489  11.292  19.506  0.00  0.00    +0.000 A 
ATOM     17  C   UNL     1       0.339  10.587  20.700  0.00  0.00    +0.000 A 
ATOM     18  C   UNL     1      -0.338  11.220  21.755  0.00  0.00    +0.000 A 
ATOM     19  C   UNL     1      -0.538  10.573  22.968  0.00  0.00    +0.000 A 
ATOM     20  C   UNL     1      -0.019   9.300  23.152  0.00  0.00    +0.000 A 
ATOM     21  C   UNL     1       0.686   8.670  22.117  0.00  0.00    +0.000 A 
ATOM     22  C   UNL     1       0.855   9.260  20.836  0.00  0.00    +0.000 A 
ATOM     23  C   UNL     1       1.487   8.644  19.697  0.00  0.00    +0.000 A 
ENDROOT
BRANCH   1  24
ATOM     24  C   UNL     1       1.507   4.767  20.169  0.00  0.00    +0.000 A 
ATOM     25  C   UNL     1       1.311   4.035  18.987  0.00  0.00    +0.000 A 
ATOM     26  C   UNL     1       1.503   2.650  18.961  0.00  0.00    +0.000 A 
ATOM     27  C   UNL     1       1.957   1.991  20.099  0.00  0.00    +0.000 A 
ATOM     28  C   UNL     1       2.203   2.716  21.265  0.00  0.00    +0.000 A 
ATOM     29  C   UNL     1       1.966   4.096  21.305  0.00  0.00    +0.000 A 
ENDBRANCH   1  24
TORSDOF 1
ENDMDL
MODEL 2
REMARK VINA RESULT:      -8.8      1.542      4.419
REMARK  Name = 
REMARK  1 active torsions:
REMARK  status: ('A' for Active; 'I' for Inactive)
REMARK    1  A    between atoms: C_1  and  C_24
REMARK                            x       y       z     vdW  Elec       q    Type
REMARK                         _______ _______ _______ _____ _____    ______ ____
ROOT
ATOM      1  C   UNL     1       3.798   7.177  18.398  0.00  0.00    +0.000 C 
ATOM      2  C   UNL     1       2.645   6.836  19.028  0.00  0.00    +0.000 C 
ATOM      3  C   UNL     1       2.276   5.420  19.400  0.00  0.00    +0.000 A 
ATOM      4  C   UNL     1       1.770   5.295  20.708  0.00  0.00    +0.000 A 
ATOM      5  C   UNL     1       1.528   4.055  21.299  0.00  0.00    +0.000 A 
ATOM      6  C   UNL     1       1.820   2.894  20.604  0.00  0.00    +0.000 A 
ATOM      7  C   UNL     1       2.278   2.962  19.287  0.00  0.00    +0.000 A 
ATOM      8  C   UNL     1       2.594   1.768  18.618  0.00  0.00    +0.000 A 
ATOM      9  C   UNL     1       3.000   1.784  17.289  0.00  0.00    +0.000 A 
ATOM     10  C   UNL     1       3.004   2.985  16.595  0.00  0.00    +0.000 A 
ATOM     11  C   UNL     1       2.677   4.173  17.255  0.00  0.00    +0.000 A 
ATOM     12  C   UNL     1       2.420   4.222  18.638  0.00  0.00    +0.000 A 
ATOM     13  O   UNL     1       1.487   6.360  21.526  0.00  0.00    +0.000 OA
ATOM     14  C   UNL     1       1.322   7.594  20.946  0.00  0.00    +0.000 A 
ATOM     15  C   UNL     1       0.595   8.490  21.727  0.00  0.00    +0.000 A 
ATOM     16  C   UNL     1       0.390   9.784  21.285  0.00  0.00    +0.000 A 
ATOM     17  C   UNL     1       0.906  10.201  20.058  0.00  0.00    +0.000 A 
ATOM     18  C   UNL     1       0.696  11.536  19.678  0.00  0.00    +0.000 A 
ATOM     19  C   UNL     1       1.194  12.026  18.478  0.00  0.00    +0.000 A 
ATOM     20  C   UNL     1       1.869  11.169  17.623  0.00  0.00    +0.000 A 
ATOM     21  C   UNL     1       2.057   9.825  17.976  0.00  0.00    +0.000 A 
ATOM     22  C   UNL     1       1.630   9.294  19.223  0.00  0.00    +0.000 A 
ATOM     23  C   UNL     1       1.863   7.954  19.696  0.00  0.00    +0.000 A 
ENDROOT
BRANCH   1  24
ATOM     24  C   UNL     1       4.867   6.395  17.745  0.00  0.00    +0.000 A 
ATOM     25  C   UNL     1       5.698   5.568  18.517  0.00  0.00    +0.000 A 
ATOM     26  C   UNL     1       6.681   4.777  17.915  0.00  0.00    +0.000 A 
ATOM     27  C   UNL     1       6.801   4.755  16.529  0.00  0.00    +0.000 A 
ATOM     28  C   UNL     1       5.947   5.535  15.749  0.00  0.00    +0.000 A 
ATOM     29  C   UNL     1       4.993   6.363  16.354  0.00  0.00    +0.000 A 
ENDBRANCH   1  24
TORSDOF 1
ENDMDL
MODEL 3
REMARK VINA RESULT:      -7.7      5.183     10.762
REMARK  Name = 
REMARK  1 active torsions:
REMARK  status: ('A' for Active; 'I' for Inactive)
REMARK    1  A    between atoms: C_1  and  C_24
REMARK                            x       y       z     vdW  Elec       q    Type
REMARK                         _______ _______ _______ _____ _____    ______ ____
ROOT
ATOM      1  C   UNL     1      -2.592  13.399  20.769  0.00  0.00    +0.000 C 
ATOM      2  C   UNL     1      -3.415  12.480  20.200  0.00  0.00    +0.000 C 
ATOM      3  C   UNL     1      -4.921  12.519  20.307  0.00  0.00    +0.000 A 
ATOM      4  C   UNL     1      -5.577  12.284  19.083  0.00  0.00    +0.000 A 
ATOM      5  C   UNL     1      -6.955  12.439  18.934  0.00  0.00    +0.000 A 
ATOM      6  C   UNL     1      -7.717  12.872  20.005  0.00  0.00    +0.000 A 
ATOM      7  C   UNL     1      -7.124  13.073  21.252  0.00  0.00    +0.000 A 
ATOM      8  C   UNL     1      -7.917  13.539  22.313  0.00  0.00    +0.000 A 
ATOM      9  C   UNL     1      -7.380  13.701  23.585  0.00  0.00    +0.000 A 
ATOM     10  C   UNL     1      -6.072  13.308  23.825  0.00  0.00    +0.000 A 
ATOM     11  C   UNL     1      -5.284  12.830  22.773  0.00  0.00    +0.000 A 
ATOM     12  C   UNL     1      -5.737  12.807  21.441  0.00  0.00    +0.000 A 
ATOM     13  O   UNL     1      -4.937  11.903  17.929  0.00  0.00    +0.000 OA
ATOM     14  C   UNL     1      -3.680  11.361  18.037  0.00  0.00    +0.000 A 
ATOM     15  C   UNL     1      -3.305  10.588  16.940  0.00  0.00    +0.000 A 
ATOM     16  C   UNL     1      -2.048  10.016  16.895  0.00  0.00    +0.000 A 
ATOM     17  C   UNL     1      -1.147  10.206  17.943  0.00  0.00    +0.000 A 
ATOM     18  C   UNL     1       0.128   9.631  17.825  0.00  0.00    +0.000 A 
ATOM     19  C   UNL     1       1.082   9.792  18.822  0.00  0.00    +0.000 A 
ATOM     20  C   UNL     1       0.750  10.494  19.971  0.00  0.00    +0.000 A 
ATOM     21  C   UNL     1      -0.530  11.046  20.115  0.00  0.00    +0.000 A 
ATOM     22  C   UNL     1      -1.516  10.970  19.095  0.00  0.00    +0.000 A 
ATOM     23  C   UNL     1      -2.818  11.584  19.129  0.00  0.00    +0.000 A 
ENDROOT
BRANCH   1  24
ATOM     24  C   UNL     1      -2.809  14.494  21.734  0.00  0.00    +0.000 A 
ATOM     25  C   UNL     1      -3.543  15.628  21.352  0.00  0.00    +0.000 A 
ATOM     26  C   UNL     1      -3.808  16.654  22.265  0.00  0.00    +0.000 A 
ATOM     27  C   UNL     1      -3.397  16.526  23.589  0.00  0.00    +0.000 A 
ATOM     28  C   UNL     1      -2.710  15.381  23.992  0.00  0.00    +0.000 A 
ATOM     29  C   UNL     1      -2.404  14.375  23.066  0.00  0.00    +0.000 A 
ENDBRANCH   1  24
TORSDOF 1
ENDMDL
MODEL 4
REMARK VINA RESULT:      -7.4      5.955     10.782
REMARK  Name = 
REMARK  1 active torsions:
REMARK  status: ('A' for Active; 'I' for Inactive)
REMARK    1  A    between atoms: C_1  and  C_24
REMARK                            x       y       z     vdW  Elec       q    Type
REMARK                         _______ _______ _______ _____ _____    ______ ____
ROOT
ATOM      1  C   UNL     1      -4.817  12.458  20.603  0.00  0.00    +0.000 C 
ATOM      2  C   UNL     1      -3.491  12.749  20.541  0.00  0.00    +0.000 C 
ATOM      3  C   UNL     1      -2.764  13.582  21.569  0.00  0.00    +0.000 A 
ATOM      4  C   UNL     1      -1.530  13.033  21.966  0.00  0.00    +0.000 A 
ATOM      5  C   UNL     1      -0.784  13.559  23.021  0.00  0.00    +0.000 A 
ATOM      6  C   UNL     1      -1.274  14.638  23.737  0.00  0.00    +0.000 A 
ATOM      7  C   UNL     1      -2.468  15.249  23.354  0.00  0.00    +0.000 A 
ATOM      8  C   UNL     1      -2.955  16.324  24.117  0.00  0.00    +0.000 A 
ATOM      9  C   UNL     1      -4.110  16.997  23.741  0.00  0.00    +0.000 A 
ATOM     10  C   UNL     1      -4.735  16.661  22.550  0.00  0.00    +0.000 A 
ATOM     11  C   UNL     1      -4.246  15.601  21.781  0.00  0.00    +0.000 A 
ATOM     12  C   UNL     1      -3.178  14.789  22.208  0.00  0.00    +0.000 A 
ATOM     13  O   UNL     1      -0.954  11.934  21.379  0.00  0.00    +0.000 OA
ATOM     14  C   UNL     1      -1.384  11.572  20.127  0.00  0.00    +0.000 A 
ATOM     15  C   UNL     1      -0.470  10.788  19.423  0.00  0.00    +0.000 A 
ATOM     16  C   UNL     1      -0.790  10.315  18.164  0.00  0.00    +0.000 A 
ATOM     17  C   UNL     1      -2.025  10.618  17.589  0.00  0.00    +0.000 A 
ATOM     18  C   UNL     1      -2.308  10.081  16.323  0.00  0.00    +0.000 A 
ATOM     19  C   UNL     1      -3.523  10.327  15.696  0.00  0.00    +0.000 A 
ATOM     20  C   UNL     1      -4.449  11.154  16.312  0.00  0.00    +0.000 A 
ATOM     21  C   UNL     1      -4.165  11.723  17.561  0.00  0.00    +0.000 A 
ATOM     22  C   UNL     1      -2.969  11.445  18.275  0.00  0.00    +0.000 A 
ATOM     23  C   UNL     1      -2.643  11.917  19.596  0.00  0.00    +0.000 A 
ENDROOT
BRANCH   1  24
ATOM     24  C   UNL     1      -5.923  12.946  21.450  0.00  0.00    +0.000 A 
ATOM     25  C   UNL     1      -5.921  12.674  22.827  0.00  0.00    +0.000 A 
ATOM     26  C   UNL     1      -6.929  13.171  23.659  0.00  0.00    +0.000 A 
ATOM     27  C   UNL     1      -7.916  13.999  23.132  0.00  0.00    +0.000 A 
ATOM     28  C   UNL     1      -7.900  14.317  21.774  0.00  0.00    +0.000 A 
ATOM     29  C   UNL     1      -6.916  13.781  20.933  0.00  0.00    +0.000 A 
ENDBRANCH   1  24
TORSDOF 1
ENDMDL
MODEL 5
REMARK VINA RESULT:      -7.3      9.013     10.611
REMARK  Name = 
REMARK  1 active torsions:
REMARK  status: ('A' for Active; 'I' for Inactive)
REMARK    1  A    between atoms: C_1  and  C_24
REMARK                            x       y       z     vdW  Elec       q    Type
REMARK                         _______ _______ _______ _____ _____    ______ ____
ROOT
ATOM      1  C   UNL     1       8.925  12.955  20.940  0.00  0.00    +0.000 C 
ATOM      2  C   UNL     1       8.420  14.197  21.159  0.00  0.00    +0.000 C 
ATOM      3  C   UNL     1       8.649  15.373  20.239  0.00  0.00    +0.000 A 
ATOM      4  C   UNL     1       7.482  16.113  19.973  0.00  0.00    +0.000 A 
ATOM      5  C   UNL     1       7.446  17.133  19.021  0.00  0.00    +0.000 A 
ATOM      6  C   UNL     1       8.578  17.419  18.278  0.00  0.00    +0.000 A 
ATOM      7  C   UNL     1       9.774  16.747  18.536  0.00  0.00    +0.000 A 
ATOM      8  C   UNL     1      10.899  17.038  17.747  0.00  0.00    +0.000 A 
ATOM      9  C   UNL     1      12.123  16.434  18.004  0.00  0.00    +0.000 A 
ATOM     10  C   UNL     1      12.254  15.607  19.109  0.00  0.00    +0.000 A 
ATOM     11  C   UNL     1      11.139  15.325  19.905  0.00  0.00    +0.000 A 
ATOM     12  C   UNL     1       9.848  15.784  19.584  0.00  0.00    +0.000 A 
ATOM     13  O   UNL     1       6.277  15.900  20.597  0.00  0.00    +0.000 OA
ATOM     14  C   UNL     1       6.279  15.211  21.784  0.00  0.00    +0.000 A 
ATOM     15  C   UNL     1       5.150  15.439  22.569  0.00  0.00    +0.000 A 
ATOM     16  C   UNL     1       4.999  14.776  23.772  0.00  0.00    +0.000 A 
ATOM     17  C   UNL     1       5.972  13.877  24.211  0.00  0.00    +0.000 A 
ATOM     18  C   UNL     1       5.747  13.207  25.424  0.00  0.00    +0.000 A 
ATOM     19  C   UNL     1       6.665  12.287  25.914  0.00  0.00    +0.000 A 
ATOM     20  C   UNL     1       7.841  12.063  25.215  0.00  0.00    +0.000 A 
ATOM     21  C   UNL     1       8.092  12.749  24.019  0.00  0.00    +0.000 A 
ATOM     22  C   UNL     1       7.155  13.646  23.440  0.00  0.00    +0.000 A 
ATOM     23  C   UNL     1       7.298  14.320  22.175  0.00  0.00    +0.000 A 
ENDROOT
BRANCH   1  24
ATOM     24  C   UNL     1       9.912  12.416  19.984  0.00  0.00    +0.000 A 
ATOM     25  C   UNL     1       9.604  12.367  18.615  0.00  0.00    +0.000 A 
ATOM     26  C   UNL     1      10.543  11.911  17.684  0.00  0.00    +0.000 A 
ATOM     27  C   UNL     1      11.822  11.561  18.104  0.00  0.00    +0.000 A 
ATOM     28  C   UNL     1      12.155  11.654  19.456  0.00  0.00    +0.000 A 
ATOM     29  C   UNL     1      11.201  12.066  20.394  0.00  0.00    +0.000 A 
ENDBRANCH   1  24
TORSDOF 1
ENDMDL
MODEL 6
REMARK VINA RESULT:      -7.3      5.786     10.574
REMARK  Name = 
REMARK  1 active torsions:
REMARK  status: ('A' for Active; 'I' for Inactive)
REMARK    1  A    between atoms: C_1  and  C_24
REMARK                            x       y       z     vdW  Elec       q    Type
REMARK                         _______ _______ _______ _____ _____    ______ ____
ROOT
ATOM      1  C   UNL     1      -4.663  12.431  20.255  0.00  0.00    +0.000 C 
ATOM      2  C   UNL     1      -3.327  12.666  20.178  0.00  0.00    +0.000 C 
ATOM      3  C   UNL     1      -2.562  13.506  21.172  0.00  0.00    +0.000 A 
ATOM      4  C   UNL     1      -1.349  12.922  21.586  0.00  0.00    +0.000 A 
ATOM      5  C   UNL     1      -0.578  13.456  22.619  0.00  0.00    +0.000 A 
ATOM      6  C   UNL     1      -1.020  14.580  23.296  0.00  0.00    +0.000 A 
ATOM      7  C   UNL     1      -2.191  15.224  22.894  0.00  0.00    +0.000 A 
ATOM      8  C   UNL     1      -2.631  16.345  23.618  0.00  0.00    +0.000 A 
ATOM      9  C   UNL     1      -3.759  17.050  23.221  0.00  0.00    +0.000 A 
ATOM     10  C   UNL     1      -4.402  16.696  22.044  0.00  0.00    +0.000 A 
ATOM     11  C   UNL     1      -3.960  15.589  21.314  0.00  0.00    +0.000 A 
ATOM     12  C   UNL     1      -2.924  14.751  21.768  0.00  0.00    +0.000 A 
ATOM     13  O   UNL     1      -0.821  11.779  21.039  0.00  0.00    +0.000 OA
ATOM     14  C   UNL     1      -1.270  11.389  19.801  0.00  0.00    +0.000 A 
ATOM     15  C   UNL     1      -0.393  10.544  19.125  0.00  0.00    +0.000 A 
ATOM     16  C   UNL     1      -0.737  10.038  17.885  0.00  0.00    +0.000 A 
ATOM     17  C   UNL     1      -1.960  10.369  17.302  0.00  0.00    +0.000 A 
ATOM     18  C   UNL     1      -2.271   9.798  16.058  0.00  0.00    +0.000 A 
ATOM     19  C   UNL     1      -3.477  10.070  15.426  0.00  0.00    +0.000 A 
ATOM     20  C   UNL     1      -4.366  10.956  16.014  0.00  0.00    +0.000 A 
ATOM     21  C   UNL     1      -4.054  11.559  17.240  0.00  0.00    +0.000 A 
ATOM     22  C   UNL     1      -2.867  11.259  17.961  0.00  0.00    +0.000 A 
ATOM     23  C   UNL     1      -2.516  11.765  19.262  0.00  0.00    +0.000 A 
ENDROOT
BRANCH   1  24
ATOM     24  C   UNL     1      -5.745  12.994  21.086  0.00  0.00    +0.000 A 
ATOM     25  C   UNL     1      -6.790  13.710  20.482  0.00  0.00    +0.000 A 
ATOM     26  C   UNL     1      -7.854  14.205  21.243  0.00  0.00    +0.000 A 
ATOM     27  C   UNL     1      -7.916  13.934  22.607  0.00  0.00    +0.000 A 
ATOM     28  C   UNL     1      -6.908  13.181  23.208  0.00  0.00    +0.000 A 
ATOM     29  C   UNL     1      -5.819  12.724  22.455  0.00  0.00    +0.000 A 
ENDBRANCH   1  24
TORSDOF 1
ENDMDL
MODEL 7
REMARK VINA RESULT:      -7.3      4.013      7.977
REMARK  Name = 
REMARK  1 active torsions:
REMARK  status: ('A' for Active; 'I' for Inactive)
REMARK    1  A    between atoms: C_1  and  C_24
REMARK                            x       y       z     vdW  Elec       q    Type
REMARK                         _______ _______ _______ _____ _____    ______ ____
ROOT
ATOM      1  C   UNL     1      -0.417  13.736  20.845  0.00  0.00    +0.000 C 
ATOM      2  C   UNL     1      -1.171  12.694  21.281  0.00  0.00    +0.000 C 
ATOM      3  C   UNL     1      -0.692  11.262  21.307  0.00  0.00    +0.000 A 
ATOM      4  C   UNL     1      -0.993  10.590  22.508  0.00  0.00    +0.000 A 
ATOM      5  C   UNL     1      -0.496   9.320  22.797  0.00  0.00    +0.000 A 
ATOM      6  C   UNL     1       0.353   8.694  21.899  0.00  0.00    +0.000 A 
ATOM      7  C   UNL     1       0.644   9.295  20.674  0.00  0.00    +0.000 A 
ATOM      8  C   UNL     1       1.531   8.650  19.797  0.00  0.00    +0.000 A 
ATOM      9  C   UNL     1       1.807   9.185  18.544  0.00  0.00    +0.000 A 
ATOM     10  C   UNL     1       1.126  10.318  18.125  0.00  0.00    +0.000 A 
ATOM     11  C   UNL     1       0.233  10.955  18.991  0.00  0.00    +0.000 A 
ATOM     12  C   UNL     1       0.049  10.542  20.324  0.00  0.00    +0.000 A 
ATOM     13  O   UNL     1      -1.777  11.115  23.506  0.00  0.00    +0.000 OA
ATOM     14  C   UNL     1      -2.611  12.159  23.189  0.00  0.00    +0.000 A 
ATOM     15  C   UNL     1      -3.676  12.316  24.075  0.00  0.00    +0.000 A 
ATOM     16  C   UNL     1      -4.571  13.354  23.902  0.00  0.00    +0.000 A 
ATOM     17  C   UNL     1      -4.418  14.251  22.844  0.00  0.00    +0.000 A 
ATOM     18  C   UNL     1      -5.337  15.307  22.740  0.00  0.00    +0.000 A 
ATOM     19  C   UNL     1      -5.237  16.246  21.722  0.00  0.00    +0.000 A 
ATOM     20  C   UNL     1      -4.240  16.109  20.768  0.00  0.00    +0.000 A 
ATOM     21  C   UNL     1      -3.335  15.040  20.842  0.00  0.00    +0.000 A 
ATOM     22  C   UNL     1      -3.352  14.096  21.903  0.00  0.00    +0.000 A 
ATOM     23  C   UNL     1      -2.407  13.027  22.099  0.00  0.00    +0.000 A 
ENDROOT
BRANCH   1  24
ATOM     24  C   UNL     1       0.877  13.826  20.139  0.00  0.00    +0.000 A 
ATOM     25  C   UNL     1       0.910  14.197  18.786  0.00  0.00    +0.000 A 
ATOM     26  C   UNL     1       2.127  14.342  18.112  0.00  0.00    +0.000 A 
ATOM     27  C   UNL     1       3.325  14.181  18.801  0.00  0.00    +0.000 A 
ATOM     28  C   UNL     1       3.304  13.861  20.159  0.00  0.00    +0.000 A 
ATOM     29  C   UNL     1       2.085  13.670  20.823  0.00  0.00    +0.000 A 
ENDBRANCH   1  24
TORSDOF 1
ENDMDL
MODEL 8
REMARK VINA RESULT:      -6.9      4.619      9.662
REMARK  Name = 
REMARK  1 active torsions:
REMARK  status: ('A' for Active; 'I' for Inactive)
REMARK    1  A    between atoms: C_1  and  C_24
REMARK                            x       y       z     vdW  Elec       q    Type
REMARK                         _______ _______ _______ _____ _____    ______ ____
ROOT
ATOM      1  C   UNL     1      -2.479  12.649  21.016  0.00  0.00    +0.000 C 
ATOM      2  C   UNL     1      -2.598  11.726  20.026  0.00  0.00    +0.000 C 
ATOM      3  C   UNL     1      -3.678  11.758  18.972  0.00  0.00    +0.000 A 
ATOM      4  C   UNL     1      -3.200  11.520  17.670  0.00  0.00    +0.000 A 
ATOM      5  C   UNL     1      -4.005  11.670  16.541  0.00  0.00    +0.000 A 
ATOM      6  C   UNL     1      -5.314  12.098  16.682  0.00  0.00    +0.000 A 
ATOM      7  C   UNL     1      -5.851  12.300  17.954  0.00  0.00    +0.000 A 
ATOM      8  C   UNL     1      -7.173  12.762  18.066  0.00  0.00    +0.000 A 
ATOM      9  C   UNL     1      -7.767  12.925  19.311  0.00  0.00    +0.000 A 
ATOM     10  C   UNL     1      -7.075  12.538  20.449  0.00  0.00    +0.000 A 
ATOM     11  C   UNL     1      -5.764  12.065  20.340  0.00  0.00    +0.000 A 
ATOM     12  C   UNL     1      -5.070  12.040  19.116  0.00  0.00    +0.000 A 
ATOM     13  O   UNL     1      -1.911  11.144  17.381  0.00  0.00    +0.000 OA
ATOM     14  C   UNL     1      -1.154  10.608  18.393  0.00  0.00    +0.000 A 
ATOM     15  C   UNL     1      -0.082   9.837  17.946  0.00  0.00    +0.000 A 
ATOM     16  C   UNL     1       0.790   9.271  18.857  0.00  0.00    +0.000 A 
ATOM     17  C   UNL     1       0.605   9.465  20.226  0.00  0.00    +0.000 A 
ATOM     18  C   UNL     1       1.543   8.896  21.102  0.00  0.00    +0.000 A 
ATOM     19  C   UNL     1       1.432   9.060  22.477  0.00  0.00    +0.000 A 
ATOM     20  C   UNL     1       0.351   9.759  22.991  0.00  0.00    +0.000 A 
ATOM     21  C   UNL     1      -0.611  10.305  22.129  0.00  0.00    +0.000 A 
ATOM     22  C   UNL     1      -0.503  10.226  20.714  0.00  0.00    +0.000 A 
ATOM     23  C   UNL     1      -1.397  10.834  19.763  0.00  0.00    +0.000 A 
ENDROOT
BRANCH   1  24
ATOM     24  C   UNL     1      -3.348  13.742  21.493  0.00  0.00    +0.000 A 
ATOM     25  C   UNL     1      -3.532  14.885  20.700  0.00  0.00    +0.000 A 
ATOM     26  C   UNL     1      -4.394  15.909  21.105  0.00  0.00    +0.000 A 
ATOM     27  C   UNL     1      -5.130  15.772  22.278  0.00  0.00    +0.000 A 
ATOM     28  C   UNL     1      -4.992  14.617  23.050  0.00  0.00    +0.000 A 
ATOM     29  C   UNL     1      -4.095  13.612  22.667  0.00  0.00    +0.000 A 
ENDBRANCH   1  24
TORSDOF 1
ENDMDL
MODEL 9
REMARK VINA RESULT:      -6.9      9.153     12.132
REMARK  Name = 
REMARK  1 active torsions:
REMARK  status: ('A' for Active; 'I' for Inactive)
REMARK    1  A    between atoms: C_1  and  C_24
REMARK                            x       y       z     vdW  Elec       q    Type
REMARK                         _______ _______ _______ _____ _____    ______ ____
ROOT
ATOM      1  C   UNL     1       8.197  15.150  20.979  0.00  0.00    +0.000 C 
ATOM      2  C   UNL     1       8.809  14.049  21.487  0.00  0.00    +0.000 C 
ATOM      3  C   UNL     1       8.652  13.582  22.915  0.00  0.00    +0.000 A 
ATOM      4  C   UNL     1       8.433  12.196  23.032  0.00  0.00    +0.000 A 
ATOM      5  C   UNL     1       8.100  11.594  24.245  0.00  0.00    +0.000 A 
ATOM      6  C   UNL     1       7.942  12.373  25.378  0.00  0.00    +0.000 A 
ATOM      7  C   UNL     1       8.195  13.745  25.327  0.00  0.00    +0.000 A 
ATOM      8  C   UNL     1       7.998  14.514  26.485  0.00  0.00    +0.000 A 
ATOM      9  C   UNL     1       8.289  15.872  26.495  0.00  0.00    +0.000 A 
ATOM     10  C   UNL     1       8.867  16.451  25.374  0.00  0.00    +0.000 A 
ATOM     11  C   UNL     1       9.077  15.684  24.224  0.00  0.00    +0.000 A 
ATOM     12  C   UNL     1       8.645  14.349  24.118  0.00  0.00    +0.000 A 
ATOM     13  O   UNL     1       8.505  11.315  21.981  0.00  0.00    +0.000 OA
ATOM     14  C   UNL     1       9.178  11.712  20.852  0.00  0.00    +0.000 A 
ATOM     15  C   UNL     1       9.612  10.653  20.055  0.00  0.00    +0.000 A 
ATOM     16  C   UNL     1      10.266  10.907  18.865  0.00  0.00    +0.000 A 
ATOM     17  C   UNL     1      10.499  12.220  18.452  0.00  0.00    +0.000 A 
ATOM     18  C   UNL     1      11.136  12.416  17.217  0.00  0.00    +0.000 A 
ATOM     19  C   UNL     1      11.387  13.695  16.735  0.00  0.00    +0.000 A 
ATOM     20  C   UNL     1      11.041  14.791  17.511  0.00  0.00    +0.000 A 
ATOM     21  C   UNL     1      10.433  14.608  18.760  0.00  0.00    +0.000 A 
ATOM     22  C   UNL     1      10.091  13.325  19.265  0.00  0.00    +0.000 A 
ATOM     23  C   UNL     1       9.389  13.058  20.493  0.00  0.00    +0.000 A 
ENDROOT
BRANCH   1  24
ATOM     24  C   UNL     1       7.434  16.257  21.588  0.00  0.00    +0.000 A 
ATOM     25  C   UNL     1       7.970  17.555  21.592  0.00  0.00    +0.000 A 
ATOM     26  C   UNL     1       7.243  18.630  22.115  0.00  0.00    +0.000 A 
ATOM     27  C   UNL     1       5.947  18.429  22.579  0.00  0.00    +0.000 A 
ATOM     28  C   UNL     1       5.386  17.153  22.534  0.00  0.00    +0.000 A 
ATOM     29  C   UNL     1       6.131  16.068  22.054  0.00  0.00    +0.000 A 
ENDBRANCH   1  24
TORSDOF 1
ENDMDL
