MODEL 1
REMARK VINA RESULT:      -7.2      0.000      0.000
REMARK  Name = 
REMARK  7 active torsions:
REMARK  status: ('A' for Active; 'I' for Inactive)
REMARK    1  A    between atoms: C_1  and  O_2
REMARK    2  A    between atoms: O_2  and  C_3
REMARK    3  A    between atoms: C_6  and  O_7
REMARK    4  A    between atoms: O_7  and  C_8
REMARK    5  A    between atoms: C_9  and  S_10
REMARK    6  A    between atoms: S_10  and  N_13
REMARK    7  A    between atoms: N_13  and  C_14
REMARK                            x       y       z     vdW  Elec       q    Type
REMARK                         _______ _______ _______ _____ _____    ______ ____
ROOT
ATOM      1  S   UNL     1       3.361   4.346  19.072  0.00  0.00    +0.000 S 
ATOM      2  O   UNL     1       2.261   4.053  18.161  0.00  0.00    +0.000 OA
ATOM      3  O   UNL     1       3.801   3.349  20.011  0.00  0.00    +0.000 OA
ENDROOT
BRANCH   1   8
ATOM      4  C   UNL     1       5.385   4.608  15.587  0.00  0.00    +0.000 A 
ATOM      5  C   UNL     1       6.637   5.081  15.933  0.00  0.00    +0.000 A 
ATOM      6  C   UNL     1       6.945   5.339  17.269  0.00  0.00    +0.000 A 
ATOM      7  C   UNL     1       6.030   5.080  18.319  0.00  0.00    +0.000 A 
ATOM      8  C   UNL     1       4.750   4.645  17.981  0.00  0.00    +0.000 A 
ATOM      9  C   UNL     1       4.439   4.425  16.601  0.00  0.00    +0.000 A 
BRANCH   4  11
ATOM     10  C   UNL     1       6.315   3.828  13.525  0.00  0.00    +0.000 C 
ATOM     11  O   UNL     1       5.240   4.405  14.248  0.00  0.00    +0.000 OA
ENDBRANCH   4  11
BRANCH   7  12
ATOM     12  O   UNL     1       6.385   5.265  19.629  0.00  0.00    +0.000 OA
ATOM     13  C   UNL     1       7.747   5.680  19.808  0.00  0.00    +0.000 C 
ENDBRANCH   7  12
ENDBRANCH   1   8
BRANCH   1  14
ATOM     14  N   UNL     1       2.749   5.645  19.940  0.00  0.00    +0.000 NA
ATOM     15  H   UNL     1       1.999   5.275  20.527  0.00  0.00    +0.000 HD
BRANCH  14  16
ATOM     16  C   UNL     1       2.631   7.126  19.724  0.00  0.00    +0.000 C 
ATOM     17  C   UNL     1       2.601   7.238  18.161  0.00  0.00    +0.000 C 
ATOM     18  C   UNL     1       2.774   8.659  17.669  0.00  0.00    +0.000 C 
ATOM     19  S   UNL     1       1.195   9.459  17.843  0.00  0.00    +0.000 S 
ATOM     20  C   UNL     1       1.088   9.236  19.610  0.00  0.00    +0.000 A 
ATOM     21  C   UNL     1       0.599  10.383  20.257  0.00  0.00    +0.000 A 
ATOM     22  C   UNL     1       0.478  10.396  21.638  0.00  0.00    +0.000 A 
ATOM     23  C   UNL     1       0.734   9.226  22.335  0.00  0.00    +0.000 A 
ATOM     24  C   UNL     1       1.235   8.077  21.689  0.00  0.00    +0.000 A 
ATOM     25  C   UNL     1       1.540   8.077  20.321  0.00  0.00    +0.000 A 
ENDBRANCH  14  16
ENDBRANCH   1  14
TORSDOF 5
ENDMDL
MODEL 2
REMARK VINA RESULT:      -7.1      2.119      2.773
REMARK  Name = 
REMARK  7 active torsions:
REMARK  status: ('A' for Active; 'I' for Inactive)
REMARK    1  A    between atoms: C_1  and  O_2
REMARK    2  A    between atoms: O_2  and  C_3
REMARK    3  A    between atoms: C_6  and  O_7
REMARK    4  A    between atoms: O_7  and  C_8
REMARK    5  A    between atoms: C_9  and  S_10
REMARK    6  A    between atoms: S_10  and  N_13
REMARK    7  A    between atoms: N_13  and  C_14
REMARK                            x       y       z     vdW  Elec       q    Type
REMARK                         _______ _______ _______ _____ _____    ______ ____
ROOT
ATOM      1  S   UNL     1       2.613   6.093  18.700  0.00  0.00    +0.000 S 
ATOM      2  O   UNL     1       1.827   5.258  17.799  0.00  0.00    +0.000 OA
ATOM      3  O   UNL     1       2.509   5.911  20.122  0.00  0.00    +0.000 OA
ENDROOT
BRANCH   1   8
ATOM      4  C   UNL     1       6.369   6.722  17.356  0.00  0.00    +0.000 A 
ATOM      5  C   UNL     1       7.027   5.522  17.554  0.00  0.00    +0.000 A 
ATOM      6  C   UNL     1       6.351   4.435  18.105  0.00  0.00    +0.000 A 
ATOM      7  C   UNL     1       4.973   4.485  18.428  0.00  0.00    +0.000 A 
ATOM      8  C   UNL     1       4.308   5.700  18.274  0.00  0.00    +0.000 A 
ATOM      9  C   UNL     1       5.029   6.818  17.746  0.00  0.00    +0.000 A 
BRANCH   4  11
ATOM     10  C   UNL     1       7.935   8.502  17.676  0.00  0.00    +0.000 C 
ATOM     11  O   UNL     1       7.163   7.686  16.811  0.00  0.00    +0.000 OA
ENDBRANCH   4  11
BRANCH   7  12
ATOM     12  O   UNL     1       4.313   3.378  18.891  0.00  0.00    +0.000 OA
ATOM     13  C   UNL     1       3.808   2.525  17.853  0.00  0.00    +0.000 C 
ENDBRANCH   7  12
ENDBRANCH   1   8
BRANCH   1  14
ATOM     14  N   UNL     1       2.044   7.627  18.328  0.00  0.00    +0.000 NA
ATOM     15  H   UNL     1       2.196   7.758  17.326  0.00  0.00    +0.000 HD
BRANCH  14  16
ATOM     16  C   UNL     1       1.895   8.929  19.061  0.00  0.00    +0.000 C 
ATOM     17  C   UNL     1       1.865   9.973  17.892  0.00  0.00    +0.000 C 
ATOM     18  C   UNL     1       2.008  11.401  18.374  0.00  0.00    +0.000 C 
ATOM     19  S   UNL     1       0.412  11.902  18.979  0.00  0.00    +0.000 S 
ATOM     20  C   UNL     1       0.308  10.643  20.239  0.00  0.00    +0.000 A 
ATOM     21  C   UNL     1      -0.206  11.147  21.446  0.00  0.00    +0.000 A 
ATOM     22  C   UNL     1      -0.330  10.310  22.544  0.00  0.00    +0.000 A 
ATOM     23  C   UNL     1      -0.050   8.962  22.384  0.00  0.00    +0.000 A 
ATOM     24  C   UNL     1       0.476   8.457  21.178  0.00  0.00    +0.000 A 
ATOM     25  C   UNL     1       0.783   9.299  20.099  0.00  0.00    +0.000 A 
ENDBRANCH  14  16
ENDBRANCH   1  14
TORSDOF 5
ENDMDL
MODEL 3
REMARK VINA RESULT:      -7.0      2.586      5.811
REMARK  Name = 
REMARK  7 active torsions:
REMARK  status: ('A' for Active; 'I' for Inactive)
REMARK    1  A    between atoms: C_1  and  O_2
REMARK    2  A    between atoms: O_2  and  C_3
REMARK    3  A    between atoms: C_6  and  O_7
REMARK    4  A    between atoms: O_7  and  C_8
REMARK    5  A    between atoms: C_9  and  S_10
REMARK    6  A    between atoms: S_10  and  N_13
REMARK    7  A    between atoms: N_13  and  C_14
REMARK                            x       y       z     vdW  Elec       q    Type
REMARK                         _______ _______ _______ _____ _____    ______ ____
ROOT
ATOM      1  S   UNL     1       3.220   2.845  18.255  0.00  0.00    +0.000 S 
ATOM      2  O   UNL     1       3.469   1.927  19.361  0.00  0.00    +0.000 OA
ATOM      3  O   UNL     1       2.167   2.570  17.316  0.00  0.00    +0.000 OA
ENDROOT
BRANCH   1   8
ATOM      4  C   UNL     1       2.427   6.789  18.620  0.00  0.00    +0.000 A 
ATOM      5  C   UNL     1       2.036   6.956  19.936  0.00  0.00    +0.000 A 
ATOM      6  C   UNL     1       2.003   5.864  20.802  0.00  0.00    +0.000 A 
ATOM      7  C   UNL     1       2.414   4.569  20.402  0.00  0.00    +0.000 A 
ATOM      8  C   UNL     1       2.769   4.377  19.068  0.00  0.00    +0.000 A 
ATOM      9  C   UNL     1       2.758   5.501  18.183  0.00  0.00    +0.000 A 
BRANCH   4  11
ATOM     10  C   UNL     1       1.519   8.978  18.299  0.00  0.00    +0.000 C 
ATOM     11  O   UNL     1       2.408   7.947  17.903  0.00  0.00    +0.000 OA
ENDBRANCH   4  11
BRANCH   7  12
ATOM     12  O   UNL     1       2.450   3.531  21.294  0.00  0.00    +0.000 OA
ATOM     13  C   UNL     1       1.193   2.857  21.453  0.00  0.00    +0.000 C 
ENDBRANCH   7  12
ENDBRANCH   1   8
BRANCH   1  14
ATOM     14  N   UNL     1       4.681   2.793  17.431  0.00  0.00    +0.000 NA
ATOM     15  H   UNL     1       5.140   1.923  17.709  0.00  0.00    +0.000 HD
BRANCH  14  16
ATOM     16  C   UNL     1       5.649   3.804  16.887  0.00  0.00    +0.000 C 
ATOM     17  C   UNL     1       4.971   4.228  15.539  0.00  0.00    +0.000 C 
ATOM     18  C   UNL     1       5.889   5.036  14.647  0.00  0.00    +0.000 C 
ATOM     19  S   UNL     1       5.881   6.701  15.274  0.00  0.00    +0.000 S 
ATOM     20  C   UNL     1       6.511   6.274  16.888  0.00  0.00    +0.000 A 
ATOM     21  C   UNL     1       7.475   7.193  17.337  0.00  0.00    +0.000 A 
ATOM     22  C   UNL     1       8.091   7.000  18.563  0.00  0.00    +0.000 A 
ATOM     23  C   UNL     1       7.652   5.962  19.369  0.00  0.00    +0.000 A 
ATOM     24  C   UNL     1       6.693   5.033  18.916  0.00  0.00    +0.000 A 
ATOM     25  C   UNL     1       6.173   5.087  17.615  0.00  0.00    +0.000 A 
ENDBRANCH  14  16
ENDBRANCH   1  14
TORSDOF 5
ENDMDL
MODEL 4
REMARK VINA RESULT:      -7.0      2.847      4.710
REMARK  Name = 
REMARK  7 active torsions:
REMARK  status: ('A' for Active; 'I' for Inactive)
REMARK    1  A    between atoms: C_1  and  O_2
REMARK    2  A    between atoms: O_2  and  C_3
REMARK    3  A    between atoms: C_6  and  O_7
REMARK    4  A    between atoms: O_7  and  C_8
REMARK    5  A    between atoms: C_9  and  S_10
REMARK    6  A    between atoms: S_10  and  N_13
REMARK    7  A    between atoms: N_13  and  C_14
REMARK                            x       y       z     vdW  Elec       q    Type
REMARK                         _______ _______ _______ _____ _____    ______ ____
ROOT
ATOM      1  S   UNL     1       5.795   5.354  15.663  0.00  0.00    +0.000 S 
ATOM      2  O   UNL     1       5.044   6.509  15.184  0.00  0.00    +0.000 OA
ATOM      3  O   UNL     1       6.704   4.673  14.783  0.00  0.00    +0.000 OA
ENDROOT
BRANCH   1   8
ATOM      4  C   UNL     1       7.941   8.097  17.710  0.00  0.00    +0.000 A 
ATOM      5  C   UNL     1       8.307   7.464  18.884  0.00  0.00    +0.000 A 
ATOM      6  C   UNL     1       7.926   6.143  19.116  0.00  0.00    +0.000 A 
ATOM      7  C   UNL     1       7.211   5.382  18.158  0.00  0.00    +0.000 A 
ATOM      8  C   UNL     1       6.798   6.020  16.990  0.00  0.00    +0.000 A 
ATOM      9  C   UNL     1       7.162   7.390  16.787  0.00  0.00    +0.000 A 
BRANCH   4  11
ATOM     10  C   UNL     1       8.970   9.971  18.782  0.00  0.00    +0.000 C 
ATOM     11  O   UNL     1       8.387   9.381  17.632  0.00  0.00    +0.000 OA
ENDBRANCH   4  11
BRANCH   7  12
ATOM     12  O   UNL     1       6.920   4.062  18.376  0.00  0.00    +0.000 OA
ATOM     13  C   UNL     1       6.014   3.838  19.467  0.00  0.00    +0.000 C 
ENDBRANCH   7  12
ENDBRANCH   1   8
BRANCH   1  14
ATOM     14  N   UNL     1       4.563   4.289  16.068  0.00  0.00    +0.000 NA
ATOM     15  H   UNL     1       4.385   3.722  15.236  0.00  0.00    +0.000 HD
BRANCH  14  16
ATOM     16  C   UNL     1       3.400   4.297  17.017  0.00  0.00    +0.000 C 
ATOM     17  C   UNL     1       3.342   2.803  17.491  0.00  0.00    +0.000 C 
ATOM     18  C   UNL     1       2.070   2.474  18.243  0.00  0.00    +0.000 C 
ATOM     19  S   UNL     1       2.282   3.082  19.902  0.00  0.00    +0.000 S 
ATOM     20  C   UNL     1       2.507   4.788  19.427  0.00  0.00    +0.000 A 
ATOM     21  C   UNL     1       1.818   5.667  20.280  0.00  0.00    +0.000 A 
ATOM     22  C   UNL     1       1.860   7.031  20.041  0.00  0.00    +0.000 A 
ATOM     23  C   UNL     1       2.682   7.501  19.028  0.00  0.00    +0.000 A 
ATOM     24  C   UNL     1       3.365   6.620  18.165  0.00  0.00    +0.000 A 
ATOM     25  C   UNL     1       3.210   5.230  18.260  0.00  0.00    +0.000 A 
ENDBRANCH  14  16
ENDBRANCH   1  14
TORSDOF 5
ENDMDL
MODEL 5
REMARK VINA RESULT:      -6.8      3.354      5.046
REMARK  Name = 
REMARK  7 active torsions:
REMARK  status: ('A' for Active; 'I' for Inactive)
REMARK    1  A    between atoms: C_1  and  O_2
REMARK    2  A    between atoms: O_2  and  C_3
REMARK    3  A    between atoms: C_6  and  O_7
REMARK    4  A    between atoms: O_7  and  C_8
REMARK    5  A    between atoms: C_9  and  S_10
REMARK    6  A    between atoms: S_10  and  N_13
REMARK    7  A    between atoms: N_13  and  C_14
REMARK                            x       y       z     vdW  Elec       q    Type
REMARK                         _______ _______ _______ _____ _____    ______ ____
ROOT
ATOM      1  S   UNL     1       6.418   4.828  16.007  0.00  0.00    +0.000 S 
ATOM      2  O   UNL     1       7.742   4.533  16.540  0.00  0.00    +0.000 OA
ATOM      3  O   UNL     1       5.867   6.149  16.140  0.00  0.00    +0.000 OA
ENDROOT
BRANCH   1   8
ATOM      4  C   UNL     1       5.528   3.350  12.355  0.00  0.00    +0.000 A 
ATOM      5  C   UNL     1       6.466   3.906  11.504  0.00  0.00    +0.000 A 
ATOM      6  C   UNL     1       7.444   4.765  12.004  0.00  0.00    +0.000 A 
ATOM      7  C   UNL     1       7.558   5.059  13.385  0.00  0.00    +0.000 A 
ATOM      8  C   UNL     1       6.594   4.540  14.248  0.00  0.00    +0.000 A 
ATOM      9  C   UNL     1       5.573   3.693  13.710  0.00  0.00    +0.000 A 
BRANCH   4  11
ATOM     10  C   UNL     1       3.638   3.121  10.907  0.00  0.00    +0.000 C 
ATOM     11  O   UNL     1       4.643   2.534  11.717  0.00  0.00    +0.000 OA
ENDBRANCH   4  11
BRANCH   7  12
ATOM     12  O   UNL     1       8.577   5.840  13.860  0.00  0.00    +0.000 OA
ATOM     13  C   UNL     1       9.526   6.232  12.857  0.00  0.00    +0.000 C 
ENDBRANCH   7  12
ENDBRANCH   1   8
BRANCH   1  14
ATOM     14  N   UNL     1       5.453   3.770  16.883  0.00  0.00    +0.000 NA
ATOM     15  H   UNL     1       5.778   2.827  16.659  0.00  0.00    +0.000 HD
BRANCH  14  16
ATOM     16  C   UNL     1       4.051   3.782  17.419  0.00  0.00    +0.000 C 
ATOM     17  C   UNL     1       3.757   2.256  17.628  0.00  0.00    +0.000 C 
ATOM     18  C   UNL     1       2.294   1.970  17.894  0.00  0.00    +0.000 C 
ATOM     19  S   UNL     1       2.001   2.350  19.608  0.00  0.00    +0.000 S 
ATOM     20  C   UNL     1       2.466   4.068  19.480  0.00  0.00    +0.000 A 
ATOM     21  C   UNL     1       1.594   4.904  20.198  0.00  0.00    +0.000 A 
ATOM     22  C   UNL     1       1.790   6.276  20.186  0.00  0.00    +0.000 A 
ATOM     23  C   UNL     1       2.919   6.778  19.557  0.00  0.00    +0.000 A 
ATOM     24  C   UNL     1       3.788   5.942  18.827  0.00  0.00    +0.000 A 
ATOM     25  C   UNL     1       3.530   4.573  18.665  0.00  0.00    +0.000 A 
ENDBRANCH  14  16
ENDBRANCH   1  14
TORSDOF 5
ENDMDL
MODEL 6
REMARK VINA RESULT:      -6.8      1.576      2.742
REMARK  Name = 
REMARK  7 active torsions:
REMARK  status: ('A' for Active; 'I' for Inactive)
REMARK    1  A    between atoms: C_1  and  O_2
REMARK    2  A    between atoms: O_2  and  C_3
REMARK    3  A    between atoms: C_6  and  O_7
REMARK    4  A    between atoms: O_7  and  C_8
REMARK    5  A    between atoms: C_9  and  S_10
REMARK    6  A    between atoms: S_10  and  N_13
REMARK    7  A    between atoms: N_13  and  C_14
REMARK                            x       y       z     vdW  Elec       q    Type
REMARK                         _______ _______ _______ _____ _____    ______ ____
ROOT
ATOM      1  S   UNL     1       2.369   4.748  20.032  0.00  0.00    +0.000 S 
ATOM      2  O   UNL     1       1.192   4.614  19.183  0.00  0.00    +0.000 OA
ATOM      3  O   UNL     1       2.645   3.760  21.039  0.00  0.00    +0.000 OA
ENDROOT
BRANCH   1   8
ATOM      4  C   UNL     1       6.062   5.470  18.564  0.00  0.00    +0.000 A 
ATOM      5  C   UNL     1       6.129   4.744  17.388  0.00  0.00    +0.000 A 
ATOM      6  C   UNL     1       5.033   3.994  16.964  0.00  0.00    +0.000 A 
ATOM      7  C   UNL     1       3.804   3.983  17.670  0.00  0.00    +0.000 A 
ATOM      8  C   UNL     1       3.737   4.674  18.878  0.00  0.00    +0.000 A 
ATOM      9  C   UNL     1       4.886   5.405  19.319  0.00  0.00    +0.000 A 
BRANCH   4  11
ATOM     10  C   UNL     1       7.710   7.062  17.879  0.00  0.00    +0.000 C 
ATOM     11  O   UNL     1       7.210   6.149  18.841  0.00  0.00    +0.000 OA
ENDBRANCH   4  11
BRANCH   7  12
ATOM     12  O   UNL     1       2.718   3.304  17.188  0.00  0.00    +0.000 OA
ATOM     13  C   UNL     1       2.610   1.958  17.677  0.00  0.00    +0.000 C 
ENDBRANCH   7  12
ENDBRANCH   1   8
BRANCH   1  14
ATOM     14  N   UNL     1       2.070   6.209  20.803  0.00  0.00    +0.000 NA
ATOM     15  H   UNL     1       1.475   5.996  21.607  0.00  0.00    +0.000 HD
BRANCH  14  16
ATOM     16  C   UNL     1       1.980   7.649  20.388  0.00  0.00    +0.000 C 
ATOM     17  C   UNL     1       2.057   7.554  18.825  0.00  0.00    +0.000 C 
ATOM     18  C   UNL     1       2.276   8.899  18.164  0.00  0.00    +0.000 C 
ATOM     19  S   UNL     1       0.696   9.715  18.124  0.00  0.00    +0.000 S 
ATOM     20  C   UNL     1       0.468   9.725  19.894  0.00  0.00    +0.000 A 
ATOM     21  C   UNL     1      -0.054  10.948  20.350  0.00  0.00    +0.000 A 
ATOM     22  C   UNL     1      -0.269  11.141  21.706  0.00  0.00    +0.000 A 
ATOM     23  C   UNL     1      -0.071  10.072  22.566  0.00  0.00    +0.000 A 
ATOM     24  C   UNL     1       0.462   8.849  22.111  0.00  0.00    +0.000 A 
ATOM     25  C   UNL     1       0.860   8.670  20.779  0.00  0.00    +0.000 A 
ENDBRANCH  14  16
ENDBRANCH   1  14
TORSDOF 5
ENDMDL
MODEL 7
REMARK VINA RESULT:      -6.8      3.997      8.662
REMARK  Name = 
REMARK  7 active torsions:
REMARK  status: ('A' for Active; 'I' for Inactive)
REMARK    1  A    between atoms: C_1  and  O_2
REMARK    2  A    between atoms: O_2  and  C_3
REMARK    3  A    between atoms: C_6  and  O_7
REMARK    4  A    between atoms: O_7  and  C_8
REMARK    5  A    between atoms: C_9  and  S_10
REMARK    6  A    between atoms: S_10  and  N_13
REMARK    7  A    between atoms: N_13  and  C_14
REMARK                            x       y       z     vdW  Elec       q    Type
REMARK                         _______ _______ _______ _____ _____    ______ ____
ROOT
ATOM      1  S   UNL     1       0.430   9.016  21.498  0.00  0.00    +0.000 S 
ATOM      2  O   UNL     1       1.466   9.372  22.461  0.00  0.00    +0.000 OA
ATOM      3  O   UNL     1      -0.576   8.051  21.850  0.00  0.00    +0.000 OA
ENDROOT
BRANCH   1   8
ATOM      4  C   UNL     1      -1.691  12.328  22.418  0.00  0.00    +0.000 A 
ATOM      5  C   UNL     1      -1.812  13.019  21.227  0.00  0.00    +0.000 A 
ATOM      6  C   UNL     1      -1.258  12.503  20.057  0.00  0.00    +0.000 A 
ATOM      7  C   UNL     1      -0.607  11.244  20.019  0.00  0.00    +0.000 A 
ATOM      8  C   UNL     1      -0.440  10.558  21.220  0.00  0.00    +0.000 A 
ATOM      9  C   UNL     1      -0.979  11.123  22.419  0.00  0.00    +0.000 A 
BRANCH   4  11
ATOM     10  C   UNL     1      -3.540  12.488  23.929  0.00  0.00    +0.000 C 
ATOM     11  O   UNL     1      -2.284  12.961  23.469  0.00  0.00    +0.000 OA
ENDBRANCH   4  11
BRANCH   7  12
ATOM     12  O   UNL     1      -0.144  10.722  18.841  0.00  0.00    +0.000 OA
ATOM     13  C   UNL     1      -1.181  10.292  17.948  0.00  0.00    +0.000 C 
ENDBRANCH   7  12
ENDBRANCH   1   8
BRANCH   1  14
ATOM     14  N   UNL     1       1.339   8.387  20.235  0.00  0.00    +0.000 NA
ATOM     15  H   UNL     1       0.890   8.699  19.372  0.00  0.00    +0.000 HD
BRANCH  14  16
ATOM     16  C   UNL     1       2.206   7.179  20.029  0.00  0.00    +0.000 C 
ATOM     17  C   UNL     1       1.376   6.045  20.723  0.00  0.00    +0.000 C 
ATOM     18  C   UNL     1       2.166   4.767  20.908  0.00  0.00    +0.000 C 
ATOM     19  S   UNL     1       2.162   3.929  19.338  0.00  0.00    +0.000 S 
ATOM     20  C   UNL     1       2.973   5.244  18.444  0.00  0.00    +0.000 A 
ATOM     21  C   UNL     1       3.943   4.754  17.554  0.00  0.00    +0.000 A 
ATOM     22  C   UNL     1       4.691   5.641  16.796  0.00  0.00    +0.000 A 
ATOM     23  C   UNL     1       4.377   6.990  16.854  0.00  0.00    +0.000 A 
ATOM     24  C   UNL     1       3.411   7.483  17.754  0.00  0.00    +0.000 A 
ATOM     25  C   UNL     1       2.756   6.642  18.665  0.00  0.00    +0.000 A 
ENDBRANCH  14  16
ENDBRANCH   1  14
TORSDOF 5
ENDMDL
MODEL 8
REMARK VINA RESULT:      -6.7      3.836      7.805
REMARK  Name = 
REMARK  7 active torsions:
REMARK  status: ('A' for Active; 'I' for Inactive)
REMARK    1  A    between atoms: C_1  and  O_2
REMARK    2  A    between atoms: O_2  and  C_3
REMARK    3  A    between atoms: C_6  and  O_7
REMARK    4  A    between atoms: O_7  and  C_8
REMARK    5  A    between atoms: C_9  and  S_10
REMARK    6  A    between atoms: S_10  and  N_13
REMARK    7  A    between atoms: N_13  and  C_14
REMARK                            x       y       z     vdW  Elec       q    Type
REMARK                         _______ _______ _______ _____ _____    ______ ____
ROOT
ATOM      1  S   UNL     1       0.838   8.595  21.374  0.00  0.00    +0.000 S 
ATOM      2  O   UNL     1       1.539   9.239  22.478  0.00  0.00    +0.000 OA
ATOM      3  O   UNL     1      -0.216   7.654  21.642  0.00  0.00    +0.000 OA
ENDROOT
BRANCH   1   8
ATOM      4  C   UNL     1      -1.393  11.925  20.871  0.00  0.00    +0.000 A 
ATOM      5  C   UNL     1      -1.237  12.264  19.539  0.00  0.00    +0.000 A 
ATOM      6  C   UNL     1      -0.442  11.479  18.704  0.00  0.00    +0.000 A 
ATOM      7  C   UNL     1       0.184  10.290  19.154  0.00  0.00    +0.000 A 
ATOM      8  C   UNL     1       0.071   9.961  20.503  0.00  0.00    +0.000 A 
ATOM      9  C   UNL     1      -0.715  10.800  21.355  0.00  0.00    +0.000 A 
BRANCH   4  11
ATOM     10  C   UNL     1      -2.527  14.029  20.954  0.00  0.00    +0.000 C 
ATOM     11  O   UNL     1      -2.197  12.787  21.553  0.00  0.00    +0.000 OA
ENDBRANCH   4  11
BRANCH   7  12
ATOM     12  O   UNL     1       0.892   9.494  18.293  0.00  0.00    +0.000 OA
ATOM     13  C   UNL     1       2.098  10.097  17.803  0.00  0.00    +0.000 C 
ENDBRANCH   7  12
ENDBRANCH   1   8
BRANCH   1  14
ATOM     14  N   UNL     1       2.086   7.775  20.607  0.00  0.00    +0.000 NA
ATOM     15  H   UNL     1       2.862   8.435  20.531  0.00  0.00    +0.000 HD
BRANCH  14  16
ATOM     16  C   UNL     1       2.189   6.649  19.620  0.00  0.00    +0.000 C 
ATOM     17  C   UNL     1       3.448   7.054  18.778  0.00  0.00    +0.000 C 
ATOM     18  C   UNL     1       3.606   6.225  17.520  0.00  0.00    +0.000 C 
ATOM     19  S   UNL     1       4.327   4.675  18.013  0.00  0.00    +0.000 S 
ATOM     20  C   UNL     1       2.996   4.214  19.109  0.00  0.00    +0.000 A 
ATOM     21  C   UNL     1       2.660   2.855  18.986  0.00  0.00    +0.000 A 
ATOM     22  C   UNL     1       1.626   2.330  19.745  0.00  0.00    +0.000 A 
ATOM     23  C   UNL     1       1.026   3.140  20.696  0.00  0.00    +0.000 A 
ATOM     24  C   UNL     1       1.354   4.506  20.814  0.00  0.00    +0.000 A 
ATOM     25  C   UNL     1       2.268   5.120  19.946  0.00  0.00    +0.000 A 
ENDBRANCH  14  16
ENDBRANCH   1  14
TORSDOF 5
ENDMDL
MODEL 9
REMARK VINA RESULT:      -6.7      3.708      7.643
REMARK  Name = 
REMARK  7 active torsions:
REMARK  status: ('A' for Active; 'I' for Inactive)
REMARK    1  A    between atoms: C_1  and  O_2
REMARK    2  A    between atoms: O_2  and  C_3
REMARK    3  A    between atoms: C_6  and  O_7
REMARK    4  A    between atoms: O_7  and  C_8
REMARK    5  A    between atoms: C_9  and  S_10
REMARK    6  A    between atoms: S_10  and  N_13
REMARK    7  A    between atoms: N_13  and  C_14
REMARK                            x       y       z     vdW  Elec       q    Type
REMARK                         _______ _______ _______ _____ _____    ______ ____
ROOT
ATOM      1  S   UNL     1       1.428   9.436  18.304  0.00  0.00    +0.000 S 
ATOM      2  O   UNL     1       0.655   8.773  17.260  0.00  0.00    +0.000 OA
ATOM      3  O   UNL     1       2.474  10.357  17.948  0.00  0.00    +0.000 OA
ENDROOT
BRANCH   1   8
ATOM      4  C   UNL     1      -1.953  11.570  18.876  0.00  0.00    +0.000 A 
ATOM      5  C   UNL     1      -1.970  11.861  20.228  0.00  0.00    +0.000 A 
ATOM      6  C   UNL     1      -0.931  11.428  21.051  0.00  0.00    +0.000 A 
ATOM      7  C   UNL     1       0.196  10.734  20.545  0.00  0.00    +0.000 A 
ATOM      8  C   UNL     1       0.205  10.397  19.193  0.00  0.00    +0.000 A 
ATOM      9  C   UNL     1      -0.889  10.814  18.371  0.00  0.00    +0.000 A 
BRANCH   4  11
ATOM     10  C   UNL     1      -4.330  11.668  18.628  0.00  0.00    +0.000 C 
ATOM     11  O   UNL     1      -3.034  12.061  18.208  0.00  0.00    +0.000 OA
ENDBRANCH   4  11
BRANCH   7  12
ATOM     12  O   UNL     1       1.241  10.392  21.362  0.00  0.00    +0.000 OA
ATOM     13  C   UNL     1       0.915   9.388  22.334  0.00  0.00    +0.000 C 
ENDBRANCH   7  12
ENDBRANCH   1   8
BRANCH   1  14
ATOM     14  N   UNL     1       2.129   8.131  19.093  0.00  0.00    +0.000 NA
ATOM     15  H   UNL     1       2.709   8.520  19.838  0.00  0.00    +0.000 HD
BRANCH  14  16
ATOM     16  C   UNL     1       2.536   6.736  18.716  0.00  0.00    +0.000 C 
ATOM     17  C   UNL     1       3.842   6.978  17.884  0.00  0.00    +0.000 C 
ATOM     18  C   UNL     1       4.303   5.743  17.139  0.00  0.00    +0.000 C 
ATOM     19  S   UNL     1       5.144   4.714  18.322  0.00  0.00    +0.000 S 
ATOM     20  C   UNL     1       3.736   4.514  19.400  0.00  0.00    +0.000 A 
ATOM     21  C   UNL     1       3.612   3.193  19.864  0.00  0.00    +0.000 A 
ATOM     22  C   UNL     1       2.554   2.852  20.693  0.00  0.00    +0.000 A 
ATOM     23  C   UNL     1       1.710   3.858  21.138  0.00  0.00    +0.000 A 
ATOM     24  C   UNL     1       1.827   5.180  20.665  0.00  0.00    +0.000 A 
ATOM     25  C   UNL     1       2.771   5.533  19.690  0.00  0.00    +0.000 A 
ENDBRANCH  14  16
ENDBRANCH   1  14
TORSDOF 5
ENDMDL
