MODEL 1
REMARK VINA RESULT:      -7.1      0.000      0.000
REMARK  Name = 
REMARK  13 active torsions:
REMARK  status: ('A' for Active; 'I' for Inactive)
REMARK    1  A    between atoms: C_1  and  O_2
REMARK    2  A    between atoms: O_2  and  C_3
REMARK    3  A    between atoms: C_6  and  C_7
REMARK    4  A    between atoms: C_9  and  C_10
REMARK    5  A    between atoms: N_12  and  C_13
REMARK    6  A    between atoms: C_15  and  O_16
REMARK    7  A    between atoms: O_16  and  C_17
REMARK    8  A    between atoms: C_18  and  O_19
REMARK    9  A    between atoms: O_19  and  C_20
REMARK   10  A    between atoms: C_21  and  O_22
REMARK   11  A    between atoms: O_22  and  C_23
REMARK   12  A    between atoms: C_28  and  O_29
REMARK   13  A    between atoms: O_29  and  C_30
REMARK                            x       y       z     vdW  Elec       q    Type
REMARK                         _______ _______ _______ _____ _____    ______ ____
ROOT
ATOM      1  C   UNL     1      -0.133  10.419  22.488  0.00  0.00    +0.000 C 
ATOM      2  O   UNL     1      -0.041  10.067  23.657  0.00  0.00    +0.000 OA
ATOM      3  N   UNL     1      -0.835  11.515  22.002  0.00  0.00    +0.000 N 
ATOM      4  H   UNL     1      -0.905  11.578  20.989  0.00  0.00    +0.000 HD
ENDROOT
BRANCH   3   5
ATOM      5  C   UNL     1      -1.520  12.470  22.782  0.00  0.00    +0.000 A 
ATOM      6  C   UNL     1      -0.929  13.673  23.153  0.00  0.00    +0.000 A 
ATOM      7  C   UNL     1      -1.606  14.609  23.930  0.00  0.00    +0.000 A 
ATOM      8  C   UNL     1      -2.906  14.323  24.386  0.00  0.00    +0.000 A 
ATOM      9  C   UNL     1      -3.525  13.108  24.015  0.00  0.00    +0.000 A 
ATOM     10  C   UNL     1      -2.832  12.205  23.187  0.00  0.00    +0.000 A 
BRANCH   7  11
ATOM     11  O   UNL     1      -1.046  15.814  24.289  0.00  0.00    +0.000 OA
ATOM     12  C   UNL     1      -0.656  16.667  23.212  0.00  0.00    +0.000 C 
ENDBRANCH   7  11
BRANCH   8  13
ATOM     13  O   UNL     1      -3.439  15.261  25.240  0.00  0.00    +0.000 OA
ATOM     14  C   UNL     1      -4.324  16.218  24.675  0.00  0.00    +0.000 C 
ENDBRANCH   8  13
BRANCH   9  15
ATOM     15  O   UNL     1      -4.776  12.857  24.517  0.00  0.00    +0.000 OA
ATOM     16  C   UNL     1      -5.891  12.943  23.642  0.00  0.00    +0.000 C 
ENDBRANCH   9  15
ENDBRANCH   3   5
BRANCH   1  19
ATOM     17  C   UNL     1       1.509   7.967  20.386  0.00  0.00    +0.000 A 
ATOM     18  C   UNL     1       1.062   8.335  21.628  0.00  0.00    +0.000 A 
ATOM     19  C   UNL     1       0.503   9.619  21.443  0.00  0.00    +0.000 A 
ATOM     20  N   UNL     1       0.622  10.027  20.170  0.00  0.00    +0.000 NA
ATOM     21  O   UNL     1       1.264   8.988  19.513  0.00  0.00    +0.000 OA
BRANCH  17  25
ATOM     22  C   UNL     1       3.587   4.507  18.987  0.00  0.00    +0.000 A 
ATOM     23  C   UNL     1       3.543   5.675  18.210  0.00  0.00    +0.000 A 
ATOM     24  C   UNL     1       2.856   6.805  18.650  0.00  0.00    +0.000 A 
ATOM     25  C   UNL     1       2.166   6.782  19.862  0.00  0.00    +0.000 A 
ATOM     26  C   UNL     1       2.125   5.578  20.581  0.00  0.00    +0.000 A 
ATOM     27  C   UNL     1       2.819   4.434  20.156  0.00  0.00    +0.000 A 
BRANCH  22  29
ATOM     28  C   UNL     1       3.744   2.591  17.628  0.00  0.00    +0.000 C 
ATOM     29  O   UNL     1       4.354   3.442  18.600  0.00  0.00    +0.000 OA
ENDBRANCH  22  29
BRANCH  27  30
ATOM     30  O   UNL     1       2.645   3.385  21.016  0.00  0.00    +0.000 OA
ATOM     31  C   UNL     1       1.565   2.490  20.804  0.00  0.00    +0.000 C 
ENDBRANCH  27  30
ENDBRANCH  17  25
ENDBRANCH   1  19
TORSDOF 8
ENDMDL
MODEL 2
REMARK VINA RESULT:      -7.0      1.223     11.000
REMARK  Name = 
REMARK  13 active torsions:
REMARK  status: ('A' for Active; 'I' for Inactive)
REMARK    1  A    between atoms: C_1  and  O_2
REMARK    2  A    between atoms: O_2  and  C_3
REMARK    3  A    between atoms: C_6  and  C_7
REMARK    4  A    between atoms: C_9  and  C_10
REMARK    5  A    between atoms: N_12  and  C_13
REMARK    6  A    between atoms: C_15  and  O_16
REMARK    7  A    between atoms: O_16  and  C_17
REMARK    8  A    between atoms: C_18  and  O_19
REMARK    9  A    between atoms: O_19  and  C_20
REMARK   10  A    between atoms: C_21  and  O_22
REMARK   11  A    between atoms: O_22  and  C_23
REMARK   12  A    between atoms: C_28  and  O_29
REMARK   13  A    between atoms: O_29  and  C_30
REMARK                            x       y       z     vdW  Elec       q    Type
REMARK                         _______ _______ _______ _____ _____    ______ ____
ROOT
ATOM      1  C   UNL     1       1.007   8.901  20.548  0.00  0.00    +0.000 C 
ATOM      2  O   UNL     1       1.032   9.316  19.396  0.00  0.00    +0.000 OA
ATOM      3  N   UNL     1       1.473   7.672  20.999  0.00  0.00    +0.000 N 
ATOM      4  H   UNL     1       1.252   7.447  21.966  0.00  0.00    +0.000 HD
ENDROOT
BRANCH   3   5
ATOM      5  C   UNL     1       2.127   6.698  20.216  0.00  0.00    +0.000 A 
ATOM      6  C   UNL     1       2.156   5.358  20.588  0.00  0.00    +0.000 A 
ATOM      7  C   UNL     1       2.811   4.401  19.816  0.00  0.00    +0.000 A 
ATOM      8  C   UNL     1       3.494   4.798  18.651  0.00  0.00    +0.000 A 
ATOM      9  C   UNL     1       3.472   6.154  18.256  0.00  0.00    +0.000 A 
ATOM     10  C   UNL     1       2.759   7.087  19.031  0.00  0.00    +0.000 A 
BRANCH   7  11
ATOM     11  O   UNL     1       2.832   3.068  20.155  0.00  0.00    +0.000 OA
ATOM     12  C   UNL     1       1.644   2.330  19.862  0.00  0.00    +0.000 C 
ENDBRANCH   7  11
BRANCH   8  13
ATOM     13  O   UNL     1       4.203   3.797  18.028  0.00  0.00    +0.000 OA
ATOM     14  C   UNL     1       3.676   3.299  16.806  0.00  0.00    +0.000 C 
ENDBRANCH   8  13
BRANCH   9  15
ATOM     15  O   UNL     1       4.186   6.498  17.137  0.00  0.00    +0.000 OA
ATOM     16  C   UNL     1       5.558   6.835  17.281  0.00  0.00    +0.000 C 
ENDBRANCH   9  15
ENDBRANCH   3   5
BRANCH   1  19
ATOM     17  C   UNL     1      -0.823  11.235  22.628  0.00  0.00    +0.000 A 
ATOM     18  C   UNL     1      -0.491  10.794  21.374  0.00  0.00    +0.000 A 
ATOM     19  C   UNL     1       0.396   9.718  21.595  0.00  0.00    +0.000 A 
ATOM     20  N   UNL     1       0.617   9.525  22.905  0.00  0.00    +0.000 NA
ATOM     21  O   UNL     1      -0.146  10.488  23.548  0.00  0.00    +0.000 OA
BRANCH  17  25
ATOM     22  C   UNL     1      -3.463  14.336  23.917  0.00  0.00    +0.000 A 
ATOM     23  C   UNL     1      -2.099  14.599  23.717  0.00  0.00    +0.000 A 
ATOM     24  C   UNL     1      -1.226  13.591  23.311  0.00  0.00    +0.000 A 
ATOM     25  C   UNL     1      -1.690  12.289  23.129  0.00  0.00    +0.000 A 
ATOM     26  C   UNL     1      -3.031  12.012  23.434  0.00  0.00    +0.000 A 
ATOM     27  C   UNL     1      -3.925  13.016  23.836  0.00  0.00    +0.000 A 
BRANCH  22  29
ATOM     28  C   UNL     1      -3.767  16.418  24.974  0.00  0.00    +0.000 C 
ATOM     29  O   UNL     1      -4.332  15.352  24.208  0.00  0.00    +0.000 OA
ENDBRANCH  22  29
BRANCH  27  30
ATOM     30  O   UNL     1      -5.178  12.520  24.067  0.00  0.00    +0.000 OA
ATOM     31  C   UNL     1      -6.228  12.851  23.173  0.00  0.00    +0.000 C 
ENDBRANCH  27  30
ENDBRANCH  17  25
ENDBRANCH   1  19
TORSDOF 8
ENDMDL
MODEL 3
REMARK VINA RESULT:      -6.9      0.596      2.341
REMARK  Name = 
REMARK  13 active torsions:
REMARK  status: ('A' for Active; 'I' for Inactive)
REMARK    1  A    between atoms: C_1  and  O_2
REMARK    2  A    between atoms: O_2  and  C_3
REMARK    3  A    between atoms: C_6  and  C_7
REMARK    4  A    between atoms: C_9  and  C_10
REMARK    5  A    between atoms: N_12  and  C_13
REMARK    6  A    between atoms: C_15  and  O_16
REMARK    7  A    between atoms: O_16  and  C_17
REMARK    8  A    between atoms: C_18  and  O_19
REMARK    9  A    between atoms: O_19  and  C_20
REMARK   10  A    between atoms: C_21  and  O_22
REMARK   11  A    between atoms: O_22  and  C_23
REMARK   12  A    between atoms: C_28  and  O_29
REMARK   13  A    between atoms: O_29  and  C_30
REMARK                            x       y       z     vdW  Elec       q    Type
REMARK                         _______ _______ _______ _____ _____    ______ ____
ROOT
ATOM      1  C   UNL     1      -0.160  10.525  22.380  0.00  0.00    +0.000 C 
ATOM      2  O   UNL     1      -0.001  10.139  23.531  0.00  0.00    +0.000 OA
ATOM      3  N   UNL     1      -0.927  11.606  21.963  0.00  0.00    +0.000 N 
ATOM      4  H   UNL     1      -1.046  11.698  20.957  0.00  0.00    +0.000 HD
ENDROOT
BRANCH   3   5
ATOM      5  C   UNL     1      -1.611  12.507  22.805  0.00  0.00    +0.000 A 
ATOM      6  C   UNL     1      -2.924  12.283  23.205  0.00  0.00    +0.000 A 
ATOM      7  C   UNL     1      -3.599  13.180  24.029  0.00  0.00    +0.000 A 
ATOM      8  C   UNL     1      -2.956  14.363  24.441  0.00  0.00    +0.000 A 
ATOM      9  C   UNL     1      -1.621  14.606  24.047  0.00  0.00    +0.000 A 
ATOM     10  C   UNL     1      -0.951  13.655  23.255  0.00  0.00    +0.000 A 
BRANCH   7  11
ATOM     11  O   UNL     1      -4.890  12.965  24.454  0.00  0.00    +0.000 OA
ATOM     12  C   UNL     1      -5.887  12.935  23.432  0.00  0.00    +0.000 C 
ENDBRANCH   7  11
BRANCH   8  13
ATOM     13  O   UNL     1      -3.748  15.233  25.154  0.00  0.00    +0.000 OA
ATOM     14  C   UNL     1      -4.377  16.277  24.425  0.00  0.00    +0.000 C 
ENDBRANCH   8  13
BRANCH   9  15
ATOM     15  O   UNL     1      -1.052  15.790  24.439  0.00  0.00    +0.000 OA
ATOM     16  C   UNL     1      -0.566  16.676  23.441  0.00  0.00    +0.000 C 
ENDBRANCH   9  15
ENDBRANCH   3   5
BRANCH   1  19
ATOM     17  C   UNL     1       1.515   8.228  20.133  0.00  0.00    +0.000 A 
ATOM     18  C   UNL     1       1.138   8.554  21.409  0.00  0.00    +0.000 A 
ATOM     19  C   UNL     1       0.457   9.784  21.281  0.00  0.00    +0.000 A 
ATOM     20  N   UNL     1       0.438  10.203  20.005  0.00  0.00    +0.000 NA
ATOM     21  O   UNL     1       1.113   9.225  19.291  0.00  0.00    +0.000 OA
BRANCH  17  25
ATOM     22  C   UNL     1       3.758   4.953  18.557  0.00  0.00    +0.000 A 
ATOM     23  C   UNL     1       3.652   6.155  17.840  0.00  0.00    +0.000 A 
ATOM     24  C   UNL     1       2.911   7.225  18.338  0.00  0.00    +0.000 A 
ATOM     25  C   UNL     1       2.228   7.105  19.548  0.00  0.00    +0.000 A 
ATOM     26  C   UNL     1       2.251   5.867  20.205  0.00  0.00    +0.000 A 
ATOM     27  C   UNL     1       2.999   4.782  19.722  0.00  0.00    +0.000 A 
BRANCH  22  29
ATOM     28  C   UNL     1       5.961   4.293  18.050  0.00  0.00    +0.000 C 
ATOM     29  O   UNL     1       4.576   3.948  18.115  0.00  0.00    +0.000 OA
ENDBRANCH  22  29
BRANCH  27  30
ATOM     30  O   UNL     1       2.882   3.683  20.527  0.00  0.00    +0.000 OA
ATOM     31  C   UNL     1       1.610   3.077  20.689  0.00  0.00    +0.000 C 
ENDBRANCH  27  30
ENDBRANCH  17  25
ENDBRANCH   1  19
TORSDOF 8
ENDMDL
MODEL 4
REMARK VINA RESULT:      -6.8      2.974      4.251
REMARK  Name = 
REMARK  13 active torsions:
REMARK  status: ('A' for Active; 'I' for Inactive)
REMARK    1  A    between atoms: C_1  and  O_2
REMARK    2  A    between atoms: O_2  and  C_3
REMARK    3  A    between atoms: C_6  and  C_7
REMARK    4  A    between atoms: C_9  and  C_10
REMARK    5  A    between atoms: N_12  and  C_13
REMARK    6  A    between atoms: C_15  and  O_16
REMARK    7  A    between atoms: O_16  and  C_17
REMARK    8  A    between atoms: C_18  and  O_19
REMARK    9  A    between atoms: O_19  and  C_20
REMARK   10  A    between atoms: C_21  and  O_22
REMARK   11  A    between atoms: O_22  and  C_23
REMARK   12  A    between atoms: C_28  and  O_29
REMARK   13  A    between atoms: O_29  and  C_30
REMARK                            x       y       z     vdW  Elec       q    Type
REMARK                         _______ _______ _______ _____ _____    ______ ____
ROOT
ATOM      1  C   UNL     1       0.983   8.450  20.770  0.00  0.00    +0.000 C 
ATOM      2  O   UNL     1       0.448   8.340  21.866  0.00  0.00    +0.000 OA
ATOM      3  N   UNL     1       0.912   9.543  19.915  0.00  0.00    +0.000 N 
ATOM      4  H   UNL     1       1.314   9.405  18.991  0.00  0.00    +0.000 HD
ENDROOT
BRANCH   3   5
ATOM      5  C   UNL     1       0.260  10.764  20.187  0.00  0.00    +0.000 A 
ATOM      6  C   UNL     1       0.852  11.754  20.963  0.00  0.00    +0.000 A 
ATOM      7  C   UNL     1       0.201  12.954  21.236  0.00  0.00    +0.000 A 
ATOM      8  C   UNL     1      -1.103  13.163  20.749  0.00  0.00    +0.000 A 
ATOM      9  C   UNL     1      -1.719  12.170  19.955  0.00  0.00    +0.000 A 
ATOM     10  C   UNL     1      -1.014  10.989  19.656  0.00  0.00    +0.000 A 
BRANCH   7  11
ATOM     11  O   UNL     1       0.779  13.955  21.984  0.00  0.00    +0.000 OA
ATOM     12  C   UNL     1       1.948  14.555  21.425  0.00  0.00    +0.000 C 
ENDBRANCH   7  11
BRANCH   8  13
ATOM     13  O   UNL     1      -1.698  14.329  21.171  0.00  0.00    +0.000 OA
ATOM     14  C   UNL     1      -2.543  14.246  22.311  0.00  0.00    +0.000 C 
ENDBRANCH   8  13
BRANCH   9  15
ATOM     15  O   UNL     1      -3.005  12.402  19.538  0.00  0.00    +0.000 OA
ATOM     16  C   UNL     1      -3.532  11.613  18.482  0.00  0.00    +0.000 C 
ENDBRANCH   9  15
ENDBRANCH   3   5
BRANCH   1  19
ATOM     17  C   UNL     1       3.132   6.136  18.994  0.00  0.00    +0.000 A 
ATOM     18  C   UNL     1       2.610   7.398  19.109  0.00  0.00    +0.000 A 
ATOM     19  C   UNL     1       1.754   7.332  20.230  0.00  0.00    +0.000 A 
ATOM     20  N   UNL     1       1.732   6.097  20.758  0.00  0.00    +0.000 NA
ATOM     21  O   UNL     1       2.593   5.348  19.970  0.00  0.00    +0.000 OA
BRANCH  17  25
ATOM     22  C   UNL     1       5.835   4.436  16.156  0.00  0.00    +0.000 A 
ATOM     23  C   UNL     1       4.755   3.687  16.649  0.00  0.00    +0.000 A 
ATOM     24  C   UNL     1       3.875   4.228  17.586  0.00  0.00    +0.000 A 
ATOM     25  C   UNL     1       4.076   5.516  18.079  0.00  0.00    +0.000 A 
ATOM     26  C   UNL     1       5.217   6.218  17.662  0.00  0.00    +0.000 A 
ATOM     27  C   UNL     1       6.108   5.692  16.714  0.00  0.00    +0.000 A 
BRANCH  22  29
ATOM     28  C   UNL     1       6.091   4.090  13.842  0.00  0.00    +0.000 C 
ATOM     29  O   UNL     1       6.627   3.940  15.157  0.00  0.00    +0.000 OA
ENDBRANCH  22  29
BRANCH  27  30
ATOM     30  O   UNL     1       7.139   6.552  16.452  0.00  0.00    +0.000 OA
ATOM     31  C   UNL     1       7.610   7.400  17.486  0.00  0.00    +0.000 C 
ENDBRANCH  27  30
ENDBRANCH  17  25
ENDBRANCH   1  19
TORSDOF 8
ENDMDL
MODEL 5
REMARK VINA RESULT:      -6.8      2.377      3.614
REMARK  Name = 
REMARK  13 active torsions:
REMARK  status: ('A' for Active; 'I' for Inactive)
REMARK    1  A    between atoms: C_1  and  O_2
REMARK    2  A    between atoms: O_2  and  C_3
REMARK    3  A    between atoms: C_6  and  C_7
REMARK    4  A    between atoms: C_9  and  C_10
REMARK    5  A    between atoms: N_12  and  C_13
REMARK    6  A    between atoms: C_15  and  O_16
REMARK    7  A    between atoms: O_16  and  C_17
REMARK    8  A    between atoms: C_18  and  O_19
REMARK    9  A    between atoms: O_19  and  C_20
REMARK   10  A    between atoms: C_21  and  O_22
REMARK   11  A    between atoms: O_22  and  C_23
REMARK   12  A    between atoms: C_28  and  O_29
REMARK   13  A    between atoms: O_29  and  C_30
REMARK                            x       y       z     vdW  Elec       q    Type
REMARK                         _______ _______ _______ _____ _____    ______ ____
ROOT
ATOM      1  C   UNL     1       0.797   9.844  19.664  0.00  0.00    +0.000 C 
ATOM      2  O   UNL     1       0.182  10.322  18.718  0.00  0.00    +0.000 OA
ATOM      3  N   UNL     1       0.907  10.380  20.940  0.00  0.00    +0.000 N 
ATOM      4  H   UNL     1       1.564   9.911  21.559  0.00  0.00    +0.000 HD
ENDROOT
BRANCH   3   5
ATOM      5  C   UNL     1       0.268  11.549  21.405  0.00  0.00    +0.000 A 
ATOM      6  C   UNL     1       0.790  12.815  21.164  0.00  0.00    +0.000 A 
ATOM      7  C   UNL     1       0.160  13.965  21.632  0.00  0.00    +0.000 A 
ATOM      8  C   UNL     1      -1.014  13.850  22.399  0.00  0.00    +0.000 A 
ATOM      9  C   UNL     1      -1.562  12.572  22.651  0.00  0.00    +0.000 A 
ATOM     10  C   UNL     1      -0.928  11.433  22.121  0.00  0.00    +0.000 A 
BRANCH   7  11
ATOM     11  O   UNL     1       0.650  15.227  21.385  0.00  0.00    +0.000 OA
ATOM     12  C   UNL     1       1.943  15.511  21.919  0.00  0.00    +0.000 C 
ENDBRANCH   7  11
BRANCH   8  13
ATOM     13  O   UNL     1      -1.490  15.036  22.909  0.00  0.00    +0.000 OA
ATOM     14  C   UNL     1      -1.144  15.347  24.251  0.00  0.00    +0.000 C 
ENDBRANCH   8  13
BRANCH   9  15
ATOM     15  O   UNL     1      -2.684  12.509  23.437  0.00  0.00    +0.000 OA
ATOM     16  C   UNL     1      -3.957  12.618  22.818  0.00  0.00    +0.000 C 
ENDBRANCH   9  15
ENDBRANCH   3   5
BRANCH   1  19
ATOM     17  C   UNL     1       2.840   7.044  18.610  0.00  0.00    +0.000 A 
ATOM     18  C   UNL     1       2.284   8.263  18.322  0.00  0.00    +0.000 A 
ATOM     19  C   UNL     1       1.550   8.606  19.479  0.00  0.00    +0.000 A 
ATOM     20  N   UNL     1       1.629   7.643  20.412  0.00  0.00    +0.000 NA
ATOM     21  O   UNL     1       2.433   6.660  19.855  0.00  0.00    +0.000 OA
BRANCH  17  25
ATOM     22  C   UNL     1       5.355   4.482  16.296  0.00  0.00    +0.000 A 
ATOM     23  C   UNL     1       4.125   4.018  16.788  0.00  0.00    +0.000 A 
ATOM     24  C   UNL     1       3.303   4.841  17.557  0.00  0.00    +0.000 A 
ATOM     25  C   UNL     1       3.708   6.135  17.880  0.00  0.00    +0.000 A 
ATOM     26  C   UNL     1       4.984   6.555  17.475  0.00  0.00    +0.000 A 
ATOM     27  C   UNL     1       5.820   5.742  16.694  0.00  0.00    +0.000 A 
BRANCH  22  29
ATOM     28  C   UNL     1       5.986   4.048  14.069  0.00  0.00    +0.000 C 
ATOM     29  O   UNL     1       6.103   3.707  15.452  0.00  0.00    +0.000 OA
ENDBRANCH  22  29
BRANCH  27  30
ATOM     30  O   UNL     1       7.007   6.358  16.408  0.00  0.00    +0.000 OA
ATOM     31  C   UNL     1       7.565   7.254  17.356  0.00  0.00    +0.000 C 
ENDBRANCH  27  30
ENDBRANCH  17  25
ENDBRANCH   1  19
TORSDOF 8
ENDMDL
MODEL 6
REMARK VINA RESULT:      -6.8      1.374     10.784
REMARK  Name = 
REMARK  13 active torsions:
REMARK  status: ('A' for Active; 'I' for Inactive)
REMARK    1  A    between atoms: C_1  and  O_2
REMARK    2  A    between atoms: O_2  and  C_3
REMARK    3  A    between atoms: C_6  and  C_7
REMARK    4  A    between atoms: C_9  and  C_10
REMARK    5  A    between atoms: N_12  and  C_13
REMARK    6  A    between atoms: C_15  and  O_16
REMARK    7  A    between atoms: O_16  and  C_17
REMARK    8  A    between atoms: C_18  and  O_19
REMARK    9  A    between atoms: O_19  and  C_20
REMARK   10  A    between atoms: C_21  and  O_22
REMARK   11  A    between atoms: O_22  and  C_23
REMARK   12  A    between atoms: C_28  and  O_29
REMARK   13  A    between atoms: O_29  and  C_30
REMARK                            x       y       z     vdW  Elec       q    Type
REMARK                         _______ _______ _______ _____ _____    ______ ____
ROOT
ATOM      1  C   UNL     1       1.085   8.659  20.620  0.00  0.00    +0.000 C 
ATOM      2  O   UNL     1       1.252   9.042  19.469  0.00  0.00    +0.000 OA
ATOM      3  N   UNL     1       1.371   7.397  21.126  0.00  0.00    +0.000 N 
ATOM      4  H   UNL     1       1.046   7.220  22.073  0.00  0.00    +0.000 HD
ENDROOT
BRANCH   3   5
ATOM      5  C   UNL     1       1.976   6.339  20.416  0.00  0.00    +0.000 A 
ATOM      6  C   UNL     1       3.079   6.544  19.595  0.00  0.00    +0.000 A 
ATOM      7  C   UNL     1       3.669   5.498  18.890  0.00  0.00    +0.000 A 
ATOM      8  C   UNL     1       3.118   4.206  18.976  0.00  0.00    +0.000 A 
ATOM      9  C   UNL     1       1.999   3.977  19.809  0.00  0.00    +0.000 A 
ATOM     10  C   UNL     1       1.459   5.047  20.547  0.00  0.00    +0.000 A 
BRANCH   7  11
ATOM     11  O   UNL     1       4.774   5.677  18.089  0.00  0.00    +0.000 OA
ATOM     12  C   UNL     1       4.609   6.573  16.990  0.00  0.00    +0.000 C 
ENDBRANCH   7  11
BRANCH   8  13
ATOM     13  O   UNL     1       3.702   3.272  18.152  0.00  0.00    +0.000 OA
ATOM     14  C   UNL     1       4.377   2.190  18.780  0.00  0.00    +0.000 C 
ENDBRANCH   8  13
BRANCH   9  15
ATOM     15  O   UNL     1       1.474   2.711  19.828  0.00  0.00    +0.000 OA
ATOM     16  C   UNL     1       0.595   2.322  18.782  0.00  0.00    +0.000 C 
ENDBRANCH   9  15
ENDBRANCH   3   5
BRANCH   1  19
ATOM     17  C   UNL     1      -0.723  11.166  22.509  0.00  0.00    +0.000 A 
ATOM     18  C   UNL     1      -0.398  10.623  21.294  0.00  0.00    +0.000 A 
ATOM     19  C   UNL     1       0.483   9.562  21.598  0.00  0.00    +0.000 A 
ATOM     20  N   UNL     1       0.707   9.475  22.920  0.00  0.00    +0.000 NA
ATOM     21  O   UNL     1      -0.046  10.492  23.485  0.00  0.00    +0.000 OA
BRANCH  17  25
ATOM     22  C   UNL     1      -3.305  14.409  23.538  0.00  0.00    +0.000 A 
ATOM     23  C   UNL     1      -1.911  14.567  23.580  0.00  0.00    +0.000 A 
ATOM     24  C   UNL     1      -1.059  13.511  23.260  0.00  0.00    +0.000 A 
ATOM     25  C   UNL     1      -1.582  12.262  22.926  0.00  0.00    +0.000 A 
ATOM     26  C   UNL     1      -2.971  12.083  22.990  0.00  0.00    +0.000 A 
ATOM     27  C   UNL     1      -3.843  13.138  23.301  0.00  0.00    +0.000 A 
BRANCH  22  29
ATOM     28  C   UNL     1      -3.795  16.284  24.876  0.00  0.00    +0.000 C 
ATOM     29  O   UNL     1      -4.133  15.479  23.745  0.00  0.00    +0.000 OA
ENDBRANCH  22  29
BRANCH  27  30
ATOM     30  O   UNL     1      -5.151  12.737  23.295  0.00  0.00    +0.000 OA
ATOM     31  C   UNL     1      -5.858  12.707  22.066  0.00  0.00    +0.000 C 
ENDBRANCH  27  30
ENDBRANCH  17  25
ENDBRANCH   1  19
TORSDOF 8
ENDMDL
MODEL 7
REMARK VINA RESULT:      -6.8      2.293      3.751
REMARK  Name = 
REMARK  13 active torsions:
REMARK  status: ('A' for Active; 'I' for Inactive)
REMARK    1  A    between atoms: C_1  and  O_2
REMARK    2  A    between atoms: O_2  and  C_3
REMARK    3  A    between atoms: C_6  and  C_7
REMARK    4  A    between atoms: C_9  and  C_10
REMARK    5  A    between atoms: N_12  and  C_13
REMARK    6  A    between atoms: C_15  and  O_16
REMARK    7  A    between atoms: O_16  and  C_17
REMARK    8  A    between atoms: C_18  and  O_19
REMARK    9  A    between atoms: O_19  and  C_20
REMARK   10  A    between atoms: C_21  and  O_22
REMARK   11  A    between atoms: O_22  and  C_23
REMARK   12  A    between atoms: C_28  and  O_29
REMARK   13  A    between atoms: O_29  and  C_30
REMARK                            x       y       z     vdW  Elec       q    Type
REMARK                         _______ _______ _______ _____ _____    ______ ____
ROOT
ATOM      1  C   UNL     1       0.644  10.127  19.655  0.00  0.00    +0.000 C 
ATOM      2  O   UNL     1      -0.199  10.450  18.828  0.00  0.00    +0.000 OA
ATOM      3  N   UNL     1       1.006  10.836  20.793  0.00  0.00    +0.000 N 
ATOM      4  H   UNL     1       1.815  10.478  21.295  0.00  0.00    +0.000 HD
ENDROOT
BRANCH   3   5
ATOM      5  C   UNL     1       0.416  12.035  21.244  0.00  0.00    +0.000 A 
ATOM      6  C   UNL     1      -0.588  12.041  22.206  0.00  0.00    +0.000 A 
ATOM      7  C   UNL     1      -1.174  13.227  22.641  0.00  0.00    +0.000 A 
ATOM      8  C   UNL     1      -0.773  14.450  22.072  0.00  0.00    +0.000 A 
ATOM      9  C   UNL     1       0.248  14.463  21.095  0.00  0.00    +0.000 A 
ATOM     10  C   UNL     1       0.855  13.252  20.714  0.00  0.00    +0.000 A 
BRANCH   7  11
ATOM     11  O   UNL     1      -2.153  13.255  23.608  0.00  0.00    +0.000 OA
ATOM     12  C   UNL     1      -3.162  12.249  23.505  0.00  0.00    +0.000 C 
ENDBRANCH   7  11
BRANCH   8  13
ATOM     13  O   UNL     1      -1.494  15.545  22.487  0.00  0.00    +0.000 OA
ATOM     14  C   UNL     1      -2.589  15.942  21.673  0.00  0.00    +0.000 C 
ENDBRANCH   8  13
BRANCH   9  15
ATOM     15  O   UNL     1       0.576  15.674  20.541  0.00  0.00    +0.000 OA
ATOM     16  C   UNL     1       0.815  15.741  19.143  0.00  0.00    +0.000 C 
ENDBRANCH   9  15
ENDBRANCH   3   5
BRANCH   1  19
ATOM     17  C   UNL     1       2.642   7.321  18.533  0.00  0.00    +0.000 A 
ATOM     18  C   UNL     1       2.011   8.501  18.241  0.00  0.00    +0.000 A 
ATOM     19  C   UNL     1       1.414   8.900  19.457  0.00  0.00    +0.000 A 
ATOM     20  N   UNL     1       1.643   8.007  20.433  0.00  0.00    +0.000 NA
ATOM     21  O   UNL     1       2.408   7.012  19.842  0.00  0.00    +0.000 OA
BRANCH  17  25
ATOM     22  C   UNL     1       5.121   4.552  16.427  0.00  0.00    +0.000 A 
ATOM     23  C   UNL     1       5.173   5.923  16.131  0.00  0.00    +0.000 A 
ATOM     24  C   UNL     1       4.358   6.834  16.802  0.00  0.00    +0.000 A 
ATOM     25  C   UNL     1       3.447   6.390  17.760  0.00  0.00    +0.000 A 
ATOM     26  C   UNL     1       3.325   5.009  17.973  0.00  0.00    +0.000 A 
ATOM     27  C   UNL     1       4.143   4.080  17.312  0.00  0.00    +0.000 A 
BRANCH  22  29
ATOM     28  C   UNL     1       6.354   4.003  14.497  0.00  0.00    +0.000 C 
ATOM     29  O   UNL     1       6.000   3.681  15.844  0.00  0.00    +0.000 OA
ENDBRANCH  22  29
BRANCH  27  30
ATOM     30  O   UNL     1       3.857   2.795  17.682  0.00  0.00    +0.000 OA
ATOM     31  C   UNL     1       2.510   2.350  17.646  0.00  0.00    +0.000 C 
ENDBRANCH  27  30
ENDBRANCH  17  25
ENDBRANCH   1  19
TORSDOF 8
ENDMDL
MODEL 8
REMARK VINA RESULT:      -6.7      2.249     10.984
REMARK  Name = 
REMARK  13 active torsions:
REMARK  status: ('A' for Active; 'I' for Inactive)
REMARK    1  A    between atoms: C_1  and  O_2
REMARK    2  A    between atoms: O_2  and  C_3
REMARK    3  A    between atoms: C_6  and  C_7
REMARK    4  A    between atoms: C_9  and  C_10
REMARK    5  A    between atoms: N_12  and  C_13
REMARK    6  A    between atoms: C_15  and  O_16
REMARK    7  A    between atoms: O_16  and  C_17
REMARK    8  A    between atoms: C_18  and  O_19
REMARK    9  A    between atoms: O_19  and  C_20
REMARK   10  A    between atoms: C_21  and  O_22
REMARK   11  A    between atoms: O_22  and  C_23
REMARK   12  A    between atoms: C_28  and  O_29
REMARK   13  A    between atoms: O_29  and  C_30
REMARK                            x       y       z     vdW  Elec       q    Type
REMARK                         _______ _______ _______ _____ _____    ______ ____
ROOT
ATOM      1  C   UNL     1       1.980   8.616  18.378  0.00  0.00    +0.000 C 
ATOM      2  O   UNL     1       2.392   8.632  17.225  0.00  0.00    +0.000 OA
ATOM      3  N   UNL     1       2.022   7.545  19.262  0.00  0.00    +0.000 N 
ATOM      4  H   UNL     1       1.517   7.675  20.135  0.00  0.00    +0.000 HD
ENDROOT
BRANCH   3   5
ATOM      5  C   UNL     1       2.616   6.290  19.013  0.00  0.00    +0.000 A 
ATOM      6  C   UNL     1       1.878   5.211  18.538  0.00  0.00    +0.000 A 
ATOM      7  C   UNL     1       2.467   3.972  18.301  0.00  0.00    +0.000 A 
ATOM      8  C   UNL     1       3.833   3.788  18.582  0.00  0.00    +0.000 A 
ATOM      9  C   UNL     1       4.601   4.873  19.061  0.00  0.00    +0.000 A 
ATOM     10  C   UNL     1       3.986   6.126  19.242  0.00  0.00    +0.000 A 
BRANCH   7  11
ATOM     11  O   UNL     1       1.758   2.899  17.810  0.00  0.00    +0.000 OA
ATOM     12  C   UNL     1       0.794   2.330  18.697  0.00  0.00    +0.000 C 
ENDBRANCH   7  11
BRANCH   8  13
ATOM     13  O   UNL     1       4.288   2.498  18.423  0.00  0.00    +0.000 OA
ATOM     14  C   UNL     1       4.393   1.704  19.596  0.00  0.00    +0.000 C 
ENDBRANCH   8  13
BRANCH   9  15
ATOM     15  O   UNL     1       5.918   4.634  19.359  0.00  0.00    +0.000 OA
ATOM     16  C   UNL     1       6.875   5.642  19.073  0.00  0.00    +0.000 C 
ENDBRANCH   9  15
ENDBRANCH   3   5
BRANCH   1  19
ATOM     17  C   UNL     1       0.005  11.113  20.107  0.00  0.00    +0.000 A 
ATOM     18  C   UNL     1       0.278   9.791  19.873  0.00  0.00    +0.000 A 
ATOM     19  C   UNL     1       1.324   9.802  18.924  0.00  0.00    +0.000 A 
ATOM     20  N   UNL     1       1.657  11.056  18.576  0.00  0.00    +0.000 NA
ATOM     21  O   UNL     1       0.817  11.875  19.316  0.00  0.00    +0.000 OA
BRANCH  17  25
ATOM     22  C   UNL     1      -2.694  13.341  22.556  0.00  0.00    +0.000 A 
ATOM     23  C   UNL     1      -1.586  12.693  23.124  0.00  0.00    +0.000 A 
ATOM     24  C   UNL     1      -0.707  11.951  22.336  0.00  0.00    +0.000 A 
ATOM     25  C   UNL     1      -0.936  11.811  20.967  0.00  0.00    +0.000 A 
ATOM     26  C   UNL     1      -2.102  12.371  20.427  0.00  0.00    +0.000 A 
ATOM     27  C   UNL     1      -2.993  13.128  21.204  0.00  0.00    +0.000 A 
BRANCH  22  29
ATOM     28  C   UNL     1      -2.866  14.657  24.501  0.00  0.00    +0.000 C 
ATOM     29  O   UNL     1      -3.488  14.156  23.316  0.00  0.00    +0.000 OA
ENDBRANCH  22  29
BRANCH  27  30
ATOM     30  O   UNL     1      -4.051  13.584  20.468  0.00  0.00    +0.000 OA
ATOM     31  C   UNL     1      -5.004  12.653  19.979  0.00  0.00    +0.000 C 
ENDBRANCH  27  30
ENDBRANCH  17  25
ENDBRANCH   1  19
TORSDOF 8
ENDMDL
MODEL 9
REMARK VINA RESULT:      -6.7      3.202      4.673
REMARK  Name = 
REMARK  13 active torsions:
REMARK  status: ('A' for Active; 'I' for Inactive)
REMARK    1  A    between atoms: C_1  and  O_2
REMARK    2  A    between atoms: O_2  and  C_3
REMARK    3  A    between atoms: C_6  and  C_7
REMARK    4  A    between atoms: C_9  and  C_10
REMARK    5  A    between atoms: N_12  and  C_13
REMARK    6  A    between atoms: C_15  and  O_16
REMARK    7  A    between atoms: O_16  and  C_17
REMARK    8  A    between atoms: C_18  and  O_19
REMARK    9  A    between atoms: O_19  and  C_20
REMARK   10  A    between atoms: C_21  and  O_22
REMARK   11  A    between atoms: O_22  and  C_23
REMARK   12  A    between atoms: C_28  and  O_29
REMARK   13  A    between atoms: O_29  and  C_30
REMARK                            x       y       z     vdW  Elec       q    Type
REMARK                         _______ _______ _______ _____ _____    ______ ____
ROOT
ATOM      1  C   UNL     1       0.815  10.068  18.995  0.00  0.00    +0.000 C 
ATOM      2  O   UNL     1       1.225  11.091  18.461  0.00  0.00    +0.000 OA
ATOM      3  N   UNL     1      -0.372   9.917  19.700  0.00  0.00    +0.000 N 
ATOM      4  H   UNL     1      -0.486   9.029  20.183  0.00  0.00    +0.000 HD
ENDROOT
BRANCH   3   5
ATOM      5  C   UNL     1      -1.364  10.905  19.873  0.00  0.00    +0.000 A 
ATOM      6  C   UNL     1      -2.432  11.033  18.992  0.00  0.00    +0.000 A 
ATOM      7  C   UNL     1      -3.404  12.015  19.161  0.00  0.00    +0.000 A 
ATOM      8  C   UNL     1      -3.290  12.928  20.226  0.00  0.00    +0.000 A 
ATOM      9  C   UNL     1      -2.213  12.812  21.134  0.00  0.00    +0.000 A 
ATOM     10  C   UNL     1      -1.275  11.776  20.963  0.00  0.00    +0.000 A 
BRANCH   7  11
ATOM     11  O   UNL     1      -4.480  12.143  18.313  0.00  0.00    +0.000 OA
ATOM     12  C   UNL     1      -5.383  11.037  18.278  0.00  0.00    +0.000 C 
ENDBRANCH   7  11
BRANCH   8  13
ATOM     13  O   UNL     1      -4.235  13.927  20.235  0.00  0.00    +0.000 OA
ATOM     14  C   UNL     1      -5.338  13.764  21.116  0.00  0.00    +0.000 C 
ENDBRANCH   8  13
BRANCH   9  15
ATOM     15  O   UNL     1      -2.122  13.749  22.130  0.00  0.00    +0.000 OA
ATOM     16  C   UNL     1      -2.199  13.318  23.481  0.00  0.00    +0.000 C 
ENDBRANCH   9  15
ENDBRANCH   3   5
BRANCH   1  19
ATOM     17  C   UNL     1       3.023   7.284  18.286  0.00  0.00    +0.000 A 
ATOM     18  C   UNL     1       2.409   8.431  17.857  0.00  0.00    +0.000 A 
ATOM     19  C   UNL     1       1.636   8.860  18.959  0.00  0.00    +0.000 A 
ATOM     20  N   UNL     1       1.748   8.013  19.995  0.00  0.00    +0.000 NA
ATOM     21  O   UNL     1       2.614   7.019  19.562  0.00  0.00    +0.000 OA
BRANCH  17  25
ATOM     22  C   UNL     1       5.732   4.638  16.310  0.00  0.00    +0.000 A 
ATOM     23  C   UNL     1       4.459   4.193  16.702  0.00  0.00    +0.000 A 
ATOM     24  C   UNL     1       3.573   5.044  17.360  0.00  0.00    +0.000 A 
ATOM     25  C   UNL     1       3.951   6.349  17.674  0.00  0.00    +0.000 A 
ATOM     26  C   UNL     1       5.261   6.752  17.375  0.00  0.00    +0.000 A 
ATOM     27  C   UNL     1       6.163   5.911  16.705  0.00  0.00    +0.000 A 
BRANCH  22  29
ATOM     28  C   UNL     1       6.356   3.923  14.156  0.00  0.00    +0.000 C 
ATOM     29  O   UNL     1       6.552   3.833  15.568  0.00  0.00    +0.000 OA
ENDBRANCH  22  29
BRANCH  27  30
ATOM     30  O   UNL     1       7.375   6.515  16.510  0.00  0.00    +0.000 OA
ATOM     31  C   UNL     1       7.770   7.566  17.377  0.00  0.00    +0.000 C 
ENDBRANCH  27  30
ENDBRANCH  17  25
ENDBRANCH   1  19
TORSDOF 8
ENDMDL
