MODEL 1
REMARK VINA RESULT:      -8.0      0.000      0.000
REMARK  Name = 
REMARK  4 active torsions:
REMARK  status: ('A' for Active; 'I' for Inactive)
REMARK    1  A    between atoms: C_2  and  C_11
REMARK    2  A    between atoms: N_3  and  C_4
REMARK    3  A    between atoms: C_9  and  O_10
REMARK    4  A    between atoms: C_20  and  O_21
REMARK                            x       y       z     vdW  Elec       q    Type
REMARK                         _______ _______ _______ _____ _____    ______ ____
ROOT
ATOM      1  O   UNL     1       2.706   5.576  17.865  0.00  0.00    +0.000 OA
ATOM      2  C   UNL     1       3.124   6.735  17.928  0.00  0.00    +0.000 C 
ATOM      3  N   UNL     1       4.414   7.111  17.448  0.00  0.00    +0.000 N 
ATOM      4  H   UNL     1       4.742   8.069  17.512  0.00  0.00    +0.000 HD
ENDROOT
BRANCH   2   5
ATOM      5  C   UNL     1       2.245   7.761  18.624  0.00  0.00    +0.000 A 
ATOM      6  C   UNL     1       1.780   8.891  17.980  0.00  0.00    +0.000 A 
ATOM      7  C   UNL     1       1.036   9.850  18.655  0.00  0.00    +0.000 A 
ATOM      8  C   UNL     1       0.764   9.659  19.981  0.00  0.00    +0.000 A 
ATOM      9  C   UNL     1       0.065  10.665  20.510  0.00  0.00    +0.000 A 
ATOM     10  C   UNL     1      -0.255  10.455  21.831  0.00  0.00    +0.000 A 
ATOM     11  C   UNL     1      -0.572  10.306  23.019  0.00  0.00    +0.000 A 
ATOM     12  C   UNL     1       0.452   8.951  22.133  0.00  0.00    +0.000 A 
ATOM     13  C   UNL     1       1.120   8.600  20.703  0.00  0.00    +0.000 A 
ATOM     14  C   UNL     1       1.918   7.601  19.988  0.00  0.00    +0.000 A 
BRANCH  14  15
ATOM     15  O   UNL     1       2.384   6.505  20.651  0.00  0.00    +0.000 OA
ATOM     16  H   UNL     1       2.544   6.630  21.596  0.00  0.00    +0.000 HD
ENDBRANCH  14  15
ENDBRANCH   2   5
BRANCH   3  17
ATOM     17  C   UNL     1       5.281   6.110  16.862  0.00  0.00    +0.000 A 
ATOM     18  C   UNL     1       5.302   5.806  15.494  0.00  0.00    +0.000 A 
ATOM     19  C   UNL     1       6.268   4.952  14.960  0.00  0.00    +0.000 A 
ATOM     20  C   UNL     1       7.206   4.376  15.785  0.00  0.00    +0.000 A 
ATOM     21  C   UNL     1       7.182   4.635  17.137  0.00  0.00    +0.000 A 
ATOM     22  C   UNL     1       6.227   5.474  17.667  0.00  0.00    +0.000 A 
BRANCH  22  23
ATOM     23  O   UNL     1       6.196   5.668  19.018  0.00  0.00    +0.000 OA
ATOM     24  H   UNL     1       6.130   4.864  19.555  0.00  0.00    +0.000 HD
ENDBRANCH  22  23
ENDBRANCH   3  17
TORSDOF 4
ENDMDL
MODEL 2
REMARK VINA RESULT:      -7.9      3.628      4.784
REMARK  Name = 
REMARK  4 active torsions:
REMARK  status: ('A' for Active; 'I' for Inactive)
REMARK    1  A    between atoms: C_2  and  C_11
REMARK    2  A    between atoms: N_3  and  C_4
REMARK    3  A    between atoms: C_9  and  O_10
REMARK    4  A    between atoms: C_20  and  O_21
REMARK                            x       y       z     vdW  Elec       q    Type
REMARK                         _______ _______ _______ _____ _____    ______ ____
ROOT
ATOM      1  O   UNL     1       4.983   6.319  15.541  0.00  0.00    +0.000 OA
ATOM      2  C   UNL     1       4.892   5.210  16.075  0.00  0.00    +0.000 C 
ATOM      3  N   UNL     1       5.478   4.037  15.508  0.00  0.00    +0.000 N 
ATOM      4  H   UNL     1       5.389   3.133  15.959  0.00  0.00    +0.000 HD
ENDROOT
BRANCH   2   5
ATOM      5  C   UNL     1       4.049   5.103  17.334  0.00  0.00    +0.000 A 
ATOM      6  C   UNL     1       3.484   6.209  17.940  0.00  0.00    +0.000 A 
ATOM      7  C   UNL     1       2.775   6.096  19.129  0.00  0.00    +0.000 A 
ATOM      8  C   UNL     1       2.639   4.861  19.699  0.00  0.00    +0.000 A 
ATOM      9  C   UNL     1       1.959   4.900  20.846  0.00  0.00    +0.000 A 
ATOM     10  C   UNL     1       1.775   3.654  21.400  0.00  0.00    +0.000 A 
ATOM     11  C   UNL     1       1.580   2.552  21.931  0.00  0.00    +0.000 A 
ATOM     12  C   UNL     1       2.562   2.653  20.289  0.00  0.00    +0.000 A 
ATOM     13  C   UNL     1       3.101   3.718  19.198  0.00  0.00    +0.000 A 
ATOM     14  C   UNL     1       3.860   3.848  17.953  0.00  0.00    +0.000 A 
BRANCH  14  15
ATOM     15  O   UNL     1       4.427   2.745  17.387  0.00  0.00    +0.000 OA
ATOM     16  H   UNL     1       3.910   2.328  16.685  0.00  0.00    +0.000 HD
ENDBRANCH  14  15
ENDBRANCH   2   5
BRANCH   3  17
ATOM     17  C   UNL     1       6.209   4.132  14.261  0.00  0.00    +0.000 A 
ATOM     18  C   UNL     1       5.848   3.440  13.098  0.00  0.00    +0.000 A 
ATOM     19  C   UNL     1       6.488   3.692  11.883  0.00  0.00    +0.000 A 
ATOM     20  C   UNL     1       7.505   4.617  11.821  0.00  0.00    +0.000 A 
ATOM     21  C   UNL     1       7.897   5.281  12.961  0.00  0.00    +0.000 A 
ATOM     22  C   UNL     1       7.271   5.032  14.162  0.00  0.00    +0.000 A 
BRANCH  22  23
ATOM     23  O   UNL     1       7.718   5.667  15.284  0.00  0.00    +0.000 OA
ATOM     24  H   UNL     1       7.716   5.136  16.095  0.00  0.00    +0.000 HD
ENDBRANCH  22  23
ENDBRANCH   3  17
TORSDOF 4
ENDMDL
MODEL 3
REMARK VINA RESULT:      -7.6      0.895      1.444
REMARK  Name = 
REMARK  4 active torsions:
REMARK  status: ('A' for Active; 'I' for Inactive)
REMARK    1  A    between atoms: C_2  and  C_11
REMARK    2  A    between atoms: N_3  and  C_4
REMARK    3  A    between atoms: C_9  and  O_10
REMARK    4  A    between atoms: C_20  and  O_21
REMARK                            x       y       z     vdW  Elec       q    Type
REMARK                         _______ _______ _______ _____ _____    ______ ____
ROOT
ATOM      1  O   UNL     1       2.847   5.697  17.905  0.00  0.00    +0.000 OA
ATOM      2  C   UNL     1       3.236   6.861  18.024  0.00  0.00    +0.000 C 
ATOM      3  N   UNL     1       4.550   7.273  17.646  0.00  0.00    +0.000 N 
ATOM      4  H   UNL     1       4.854   8.234  17.756  0.00  0.00    +0.000 HD
ENDROOT
BRANCH   2   5
ATOM      5  C   UNL     1       2.291   7.855  18.679  0.00  0.00    +0.000 A 
ATOM      6  C   UNL     1       1.811   8.966  18.012  0.00  0.00    +0.000 A 
ATOM      7  C   UNL     1       1.004   9.897  18.652  0.00  0.00    +0.000 A 
ATOM      8  C   UNL     1       0.682   9.697  19.966  0.00  0.00    +0.000 A 
ATOM      9  C   UNL     1      -0.077  10.676  20.461  0.00  0.00    +0.000 A 
ATOM     10  C   UNL     1      -0.446  10.456  21.768  0.00  0.00    +0.000 A 
ATOM     11  C   UNL     1      -0.809  10.295  22.942  0.00  0.00    +0.000 A 
ATOM     12  C   UNL     1       0.304   8.979  22.104  0.00  0.00    +0.000 A 
ATOM     13  C   UNL     1       1.046   8.653  20.705  0.00  0.00    +0.000 A 
ATOM     14  C   UNL     1       1.910   7.684  20.027  0.00  0.00    +0.000 A 
BRANCH  14  15
ATOM     15  O   UNL     1       2.388   6.607  20.713  0.00  0.00    +0.000 OA
ATOM     16  H   UNL     1       2.396   6.699  21.675  0.00  0.00    +0.000 HD
ENDBRANCH  14  15
ENDBRANCH   2   5
BRANCH   3  17
ATOM     17  C   UNL     1       5.476   6.301  17.101  0.00  0.00    +0.000 A 
ATOM     18  C   UNL     1       6.231   5.423  17.888  0.00  0.00    +0.000 A 
ATOM     19  C   UNL     1       6.983   4.400  17.308  0.00  0.00    +0.000 A 
ATOM     20  C   UNL     1       7.007   4.257  15.940  0.00  0.00    +0.000 A 
ATOM     21  C   UNL     1       6.300   5.132  15.147  0.00  0.00    +0.000 A 
ATOM     22  C   UNL     1       5.561   6.145  15.716  0.00  0.00    +0.000 A 
BRANCH  22  23
ATOM     23  O   UNL     1       4.914   7.028  14.901  0.00  0.00    +0.000 OA
ATOM     24  H   UNL     1       5.356   7.226  14.063  0.00  0.00    +0.000 HD
ENDBRANCH  22  23
ENDBRANCH   3  17
TORSDOF 4
ENDMDL
MODEL 4
REMARK VINA RESULT:      -7.4      1.026      1.838
REMARK  Name = 
REMARK  4 active torsions:
REMARK  status: ('A' for Active; 'I' for Inactive)
REMARK    1  A    between atoms: C_2  and  C_11
REMARK    2  A    between atoms: N_3  and  C_4
REMARK    3  A    between atoms: C_9  and  O_10
REMARK    4  A    between atoms: C_20  and  O_21
REMARK                            x       y       z     vdW  Elec       q    Type
REMARK                         _______ _______ _______ _____ _____    ______ ____
ROOT
ATOM      1  O   UNL     1       2.685   5.484  18.025  0.00  0.00    +0.000 OA
ATOM      2  C   UNL     1       3.125   6.620  18.218  0.00  0.00    +0.000 C 
ATOM      3  N   UNL     1       4.406   7.036  17.746  0.00  0.00    +0.000 N 
ATOM      4  H   UNL     1       4.753   7.973  17.918  0.00  0.00    +0.000 HD
ENDROOT
BRANCH   2   5
ATOM      5  C   UNL     1       2.287   7.562  19.067  0.00  0.00    +0.000 A 
ATOM      6  C   UNL     1       1.933   7.265  20.368  0.00  0.00    +0.000 A 
ATOM      7  C   UNL     1       1.109   8.109  21.102  0.00  0.00    +0.000 A 
ATOM      8  C   UNL     1       0.651   9.255  20.514  0.00  0.00    +0.000 A 
ATOM      9  C   UNL     1      -0.147   9.959  21.320  0.00  0.00    +0.000 A 
ATOM     10  C   UNL     1      -0.572  11.138  20.752  0.00  0.00    +0.000 A 
ATOM     11  C   UNL     1      -0.973  12.212  20.284  0.00  0.00    +0.000 A 
ATOM     12  C   UNL     1       0.164  11.085  19.232  0.00  0.00    +0.000 A 
ATOM     13  C   UNL     1       0.949   9.672  19.287  0.00  0.00    +0.000 A 
ATOM     14  C   UNL     1       1.805   8.769  18.515  0.00  0.00    +0.000 A 
BRANCH  14  15
ATOM     15  O   UNL     1       2.123   9.074  17.225  0.00  0.00    +0.000 OA
ATOM     16  H   UNL     1       2.906   8.629  16.875  0.00  0.00    +0.000 HD
ENDBRANCH  14  15
ENDBRANCH   2   5
BRANCH   3  17
ATOM     17  C   UNL     1       5.236   6.105  17.010  0.00  0.00    +0.000 A 
ATOM     18  C   UNL     1       5.176   5.945  15.619  0.00  0.00    +0.000 A 
ATOM     19  C   UNL     1       6.109   5.155  14.945  0.00  0.00    +0.000 A 
ATOM     20  C   UNL     1       7.092   4.501  15.650  0.00  0.00    +0.000 A 
ATOM     21  C   UNL     1       7.147   4.618  17.020  0.00  0.00    +0.000 A 
ATOM     22  C   UNL     1       6.226   5.393  17.689  0.00  0.00    +0.000 A 
BRANCH  22  23
ATOM     23  O   UNL     1       6.273   5.445  19.052  0.00  0.00    +0.000 OA
ATOM     24  H   UNL     1       6.985   4.936  19.467  0.00  0.00    +0.000 HD
ENDBRANCH  22  23
ENDBRANCH   3  17
TORSDOF 4
ENDMDL
MODEL 5
REMARK VINA RESULT:      -7.3      2.685      3.167
REMARK  Name = 
REMARK  4 active torsions:
REMARK  status: ('A' for Active; 'I' for Inactive)
REMARK    1  A    between atoms: C_2  and  C_11
REMARK    2  A    between atoms: N_3  and  C_4
REMARK    3  A    between atoms: C_9  and  O_10
REMARK    4  A    between atoms: C_20  and  O_21
REMARK                            x       y       z     vdW  Elec       q    Type
REMARK                         _______ _______ _______ _____ _____    ______ ____
ROOT
ATOM      1  O   UNL     1       3.558   6.685  17.969  0.00  0.00    +0.000 OA
ATOM      2  C   UNL     1       2.604   6.685  18.750  0.00  0.00    +0.000 C 
ATOM      3  N   UNL     1       2.092   5.487  19.334  0.00  0.00    +0.000 N 
ATOM      4  H   UNL     1       1.304   5.507  19.972  0.00  0.00    +0.000 HD
ENDROOT
BRANCH   2   5
ATOM      5  C   UNL     1       1.914   8.013  19.017  0.00  0.00    +0.000 A 
ATOM      6  C   UNL     1       1.734   8.962  18.029  0.00  0.00    +0.000 A 
ATOM      7  C   UNL     1       1.163  10.196  18.311  0.00  0.00    +0.000 A 
ATOM      8  C   UNL     1       0.773  10.463  19.594  0.00  0.00    +0.000 A 
ATOM      9  C   UNL     1       0.264  11.689  19.729  0.00  0.00    +0.000 A 
ATOM     10  C   UNL     1      -0.176  11.946  21.006  0.00  0.00    +0.000 A 
ATOM     11  C   UNL     1      -0.592  12.219  22.141  0.00  0.00    +0.000 A 
ATOM     12  C   UNL     1       0.185  10.500  21.803  0.00  0.00    +0.000 A 
ATOM     13  C   UNL     1       0.856   9.623  20.622  0.00  0.00    +0.000 A 
ATOM     14  C   UNL     1       1.474   8.331  20.320  0.00  0.00    +0.000 A 
BRANCH  14  15
ATOM     15  O   UNL     1       1.661   7.419  21.316  0.00  0.00    +0.000 OA
ATOM     16  H   UNL     1       2.065   6.584  21.044  0.00  0.00    +0.000 HD
ENDBRANCH  14  15
ENDBRANCH   2   5
BRANCH   3  17
ATOM     17  C   UNL     1       2.702   4.214  19.009  0.00  0.00    +0.000 A 
ATOM     18  C   UNL     1       3.777   3.666  19.720  0.00  0.00    +0.000 A 
ATOM     19  C   UNL     1       4.219   2.366  19.468  0.00  0.00    +0.000 A 
ATOM     20  C   UNL     1       3.609   1.610  18.494  0.00  0.00    +0.000 A 
ATOM     21  C   UNL     1       2.573   2.144  17.761  0.00  0.00    +0.000 A 
ATOM     22  C   UNL     1       2.138   3.427  18.004  0.00  0.00    +0.000 A 
BRANCH  22  23
ATOM     23  O   UNL     1       1.144   3.946  17.225  0.00  0.00    +0.000 OA
ATOM     24  H   UNL     1       0.724   4.750  17.564  0.00  0.00    +0.000 HD
ENDBRANCH  22  23
ENDBRANCH   3  17
TORSDOF 4
ENDMDL
MODEL 6
REMARK VINA RESULT:      -7.3      4.527      5.046
REMARK  Name = 
REMARK  4 active torsions:
REMARK  status: ('A' for Active; 'I' for Inactive)
REMARK    1  A    between atoms: C_2  and  C_11
REMARK    2  A    between atoms: N_3  and  C_4
REMARK    3  A    between atoms: C_9  and  O_10
REMARK    4  A    between atoms: C_20  and  O_21
REMARK                            x       y       z     vdW  Elec       q    Type
REMARK                         _______ _______ _______ _____ _____    ______ ____
ROOT
ATOM      1  O   UNL     1       4.785   5.806  16.038  0.00  0.00    +0.000 OA
ATOM      2  C   UNL     1       4.658   4.600  16.262  0.00  0.00    +0.000 C 
ATOM      3  N   UNL     1       5.366   3.605  15.522  0.00  0.00    +0.000 N 
ATOM      4  H   UNL     1       5.246   2.617  15.717  0.00  0.00    +0.000 HD
ENDROOT
BRANCH   2   5
ATOM      5  C   UNL     1       3.642   4.182  17.312  0.00  0.00    +0.000 A 
ATOM      6  C   UNL     1       2.282   4.335  17.123  0.00  0.00    +0.000 A 
ATOM      7  C   UNL     1       1.375   4.011  18.124  0.00  0.00    +0.000 A 
ATOM      8  C   UNL     1       1.849   3.530  19.312  0.00  0.00    +0.000 A 
ATOM      9  C   UNL     1       0.875   3.282  20.189  0.00  0.00    +0.000 A 
ATOM     10  C   UNL     1       1.342   2.751  21.369  0.00  0.00    +0.000 A 
ATOM     11  C   UNL     1       1.717   2.264  22.444  0.00  0.00    +0.000 A 
ATOM     12  C   UNL     1       3.009   2.691  21.096  0.00  0.00    +0.000 A 
ATOM     13  C   UNL     1       3.127   3.301  19.603  0.00  0.00    +0.000 A 
ATOM     14  C   UNL     1       4.078   3.661  18.549  0.00  0.00    +0.000 A 
BRANCH  14  15
ATOM     15  O   UNL     1       5.416   3.521  18.767  0.00  0.00    +0.000 OA
ATOM     16  H   UNL     1       5.778   2.646  18.576  0.00  0.00    +0.000 HD
ENDBRANCH  14  15
ENDBRANCH   2   5
BRANCH   3  17
ATOM     17  C   UNL     1       6.270   4.006  14.464  0.00  0.00    +0.000 A 
ATOM     18  C   UNL     1       6.097   3.652  13.120  0.00  0.00    +0.000 A 
ATOM     19  C   UNL     1       6.903   4.200  12.121  0.00  0.00    +0.000 A 
ATOM     20  C   UNL     1       7.902   5.085  12.453  0.00  0.00    +0.000 A 
ATOM     21  C   UNL     1       8.111   5.419  13.772  0.00  0.00    +0.000 A 
ATOM     22  C   UNL     1       7.320   4.878  14.760  0.00  0.00    +0.000 A 
BRANCH  22  23
ATOM     23  O   UNL     1       7.586   5.186  16.063  0.00  0.00    +0.000 OA
ATOM     24  H   UNL     1       7.444   6.112  16.312  0.00  0.00    +0.000 HD
ENDBRANCH  22  23
ENDBRANCH   3  17
TORSDOF 4
ENDMDL
MODEL 7
REMARK VINA RESULT:      -7.1      2.641      7.859
REMARK  Name = 
REMARK  4 active torsions:
REMARK  status: ('A' for Active; 'I' for Inactive)
REMARK    1  A    between atoms: C_2  and  C_11
REMARK    2  A    between atoms: N_3  and  C_4
REMARK    3  A    between atoms: C_9  and  O_10
REMARK    4  A    between atoms: C_20  and  O_21
REMARK                            x       y       z     vdW  Elec       q    Type
REMARK                         _______ _______ _______ _____ _____    ______ ____
ROOT
ATOM      1  O   UNL     1      -0.506  10.019  19.451  0.00  0.00    +0.000 OA
ATOM      2  C   UNL     1       0.523   9.723  20.062  0.00  0.00    +0.000 C 
ATOM      3  N   UNL     1       0.853  10.293  21.329  0.00  0.00    +0.000 N 
ATOM      4  H   UNL     1       1.707  10.040  21.815  0.00  0.00    +0.000 HD
ENDROOT
BRANCH   2   5
ATOM      5  C   UNL     1       1.498   8.778  19.380  0.00  0.00    +0.000 A 
ATOM      6  C   UNL     1       1.930   8.975  18.082  0.00  0.00    +0.000 A 
ATOM      7  C   UNL     1       2.767   8.062  17.455  0.00  0.00    +0.000 A 
ATOM      8  C   UNL     1       3.167   6.953  18.147  0.00  0.00    +0.000 A 
ATOM      9  C   UNL     1       3.947   6.151  17.420  0.00  0.00    +0.000 A 
ATOM     10  C   UNL     1       4.394   5.058  18.126  0.00  0.00    +0.000 A 
ATOM     11  C   UNL     1       4.826   4.063  18.725  0.00  0.00    +0.000 A 
ATOM     12  C   UNL     1       3.675   5.294  19.637  0.00  0.00    +0.000 A 
ATOM     13  C   UNL     1       2.854   6.669  19.408  0.00  0.00    +0.000 A 
ATOM     14  C   UNL     1       1.958   7.628  20.057  0.00  0.00    +0.000 A 
BRANCH  14  15
ATOM     15  O   UNL     1       1.529   7.400  21.330  0.00  0.00    +0.000 OA
ATOM     16  H   UNL     1       1.969   7.921  22.015  0.00  0.00    +0.000 HD
ENDBRANCH  14  15
ENDBRANCH   2   5
BRANCH   3  17
ATOM     17  C   UNL     1      -0.041  11.258  21.936  0.00  0.00    +0.000 A 
ATOM     18  C   UNL     1      -0.081  12.611  21.575  0.00  0.00    +0.000 A 
ATOM     19  C   UNL     1      -1.070  13.460  22.073  0.00  0.00    +0.000 A 
ATOM     20  C   UNL     1      -2.013  12.976  22.950  0.00  0.00    +0.000 A 
ATOM     21  C   UNL     1      -1.970  11.657  23.343  0.00  0.00    +0.000 A 
ATOM     22  C   UNL     1      -0.993  10.819  22.857  0.00  0.00    +0.000 A 
BRANCH  22  23
ATOM     23  O   UNL     1      -0.944   9.530  23.307  0.00  0.00    +0.000 OA
ATOM     24  H   UNL     1      -0.845   9.425  24.265  0.00  0.00    +0.000 HD
ENDBRANCH  22  23
ENDBRANCH   3  17
TORSDOF 4
ENDMDL
MODEL 8
REMARK VINA RESULT:      -7.1      2.421      4.148
REMARK  Name = 
REMARK  4 active torsions:
REMARK  status: ('A' for Active; 'I' for Inactive)
REMARK    1  A    between atoms: C_2  and  C_11
REMARK    2  A    between atoms: N_3  and  C_4
REMARK    3  A    between atoms: C_9  and  O_10
REMARK    4  A    between atoms: C_20  and  O_21
REMARK                            x       y       z     vdW  Elec       q    Type
REMARK                         _______ _______ _______ _____ _____    ______ ____
ROOT
ATOM      1  O   UNL     1       6.460   3.833  16.836  0.00  0.00    +0.000 OA
ATOM      2  C   UNL     1       5.343   4.286  16.579  0.00  0.00    +0.000 C 
ATOM      3  N   UNL     1       4.918   4.566  15.245  0.00  0.00    +0.000 N 
ATOM      4  H   UNL     1       3.996   4.944  15.053  0.00  0.00    +0.000 HD
ENDROOT
BRANCH   2   5
ATOM      5  C   UNL     1       4.438   4.631  17.750  0.00  0.00    +0.000 A 
ATOM      6  C   UNL     1       4.010   3.679  18.656  0.00  0.00    +0.000 A 
ATOM      7  C   UNL     1       3.127   4.004  19.678  0.00  0.00    +0.000 A 
ATOM      8  C   UNL     1       2.684   5.292  19.781  0.00  0.00    +0.000 A 
ATOM      9  C   UNL     1       1.826   5.459  20.789  0.00  0.00    +0.000 A 
ATOM     10  C   UNL     1       1.414   6.764  20.929  0.00  0.00    +0.000 A 
ATOM     11  C   UNL     1       1.022   7.927  21.097  0.00  0.00    +0.000 A 
ATOM     12  C   UNL     1       2.242   7.534  19.672  0.00  0.00    +0.000 A 
ATOM     13  C   UNL     1       3.049   6.305  18.999  0.00  0.00    +0.000 A 
ATOM     14  C   UNL     1       3.967   5.951  17.914  0.00  0.00    +0.000 A 
BRANCH  14  15
ATOM     15  O   UNL     1       4.357   6.903  17.020  0.00  0.00    +0.000 OA
ATOM     16  H   UNL     1       5.104   6.660  16.456  0.00  0.00    +0.000 HD
ENDBRANCH  14  15
ENDBRANCH   2   5
BRANCH   3  17
ATOM     17  C   UNL     1       5.818   4.315  14.138  0.00  0.00    +0.000 A 
ATOM     18  C   UNL     1       5.506   3.477  13.060  0.00  0.00    +0.000 A 
ATOM     19  C   UNL     1       6.340   3.398  11.944  0.00  0.00    +0.000 A 
ATOM     20  C   UNL     1       7.500   4.135  11.901  0.00  0.00    +0.000 A 
ATOM     21  C   UNL     1       7.842   4.938  12.965  0.00  0.00    +0.000 A 
ATOM     22  C   UNL     1       7.023   5.015  14.069  0.00  0.00    +0.000 A 
BRANCH  22  23
ATOM     23  O   UNL     1       7.416   5.778  15.131  0.00  0.00    +0.000 OA
ATOM     24  H   UNL     1       7.712   6.675  14.915  0.00  0.00    +0.000 HD
ENDBRANCH  22  23
ENDBRANCH   3  17
TORSDOF 4
ENDMDL
MODEL 9
REMARK VINA RESULT:      -7.0      2.885      3.745
REMARK  Name = 
REMARK  4 active torsions:
REMARK  status: ('A' for Active; 'I' for Inactive)
REMARK    1  A    between atoms: C_2  and  C_11
REMARK    2  A    between atoms: N_3  and  C_4
REMARK    3  A    between atoms: C_9  and  O_10
REMARK    4  A    between atoms: C_20  and  O_21
REMARK                            x       y       z     vdW  Elec       q    Type
REMARK                         _______ _______ _______ _____ _____    ______ ____
ROOT
ATOM      1  O   UNL     1       3.513   6.676  18.630  0.00  0.00    +0.000 OA
ATOM      2  C   UNL     1       2.531   6.565  19.367  0.00  0.00    +0.000 C 
ATOM      3  N   UNL     1       1.989   5.297  19.736  0.00  0.00    +0.000 N 
ATOM      4  H   UNL     1       1.177   5.226  20.340  0.00  0.00    +0.000 HD
ENDROOT
BRANCH   2   5
ATOM      5  C   UNL     1       1.842   7.843  19.816  0.00  0.00    +0.000 A 
ATOM      6  C   UNL     1       1.389   8.021  21.110  0.00  0.00    +0.000 A 
ATOM      7  C   UNL     1       0.701   9.169  21.480  0.00  0.00    +0.000 A 
ATOM      8  C   UNL     1       0.476  10.135  20.539  0.00  0.00    +0.000 A 
ATOM      9  C   UNL     1      -0.215  11.169  21.022  0.00  0.00    +0.000 A 
ATOM     10  C   UNL     1      -0.401  12.166  20.093  0.00  0.00    +0.000 A 
ATOM     11  C   UNL     1      -0.586  13.093  19.292  0.00  0.00    +0.000 A 
ATOM     12  C   UNL     1       0.372  11.532  18.731  0.00  0.00    +0.000 A 
ATOM     13  C   UNL     1       0.892  10.100  19.276  0.00  0.00    +0.000 A 
ATOM     14  C   UNL     1       1.603   8.880  18.889  0.00  0.00    +0.000 A 
BRANCH  14  15
ATOM     15  O   UNL     1       2.020   8.718  17.601  0.00  0.00    +0.000 OA
ATOM     16  H   UNL     1       2.795   9.239  17.348  0.00  0.00    +0.000 HD
ENDBRANCH  14  15
ENDBRANCH   2   5
BRANCH   3  17
ATOM     17  C   UNL     1       2.600   4.083  19.235  0.00  0.00    +0.000 A 
ATOM     18  C   UNL     1       3.634   3.406  19.895  0.00  0.00    +0.000 A 
ATOM     19  C   UNL     1       4.073   2.157  19.454  0.00  0.00    +0.000 A 
ATOM     20  C   UNL     1       3.504   1.583  18.341  0.00  0.00    +0.000 A 
ATOM     21  C   UNL     1       2.511   2.248  17.658  0.00  0.00    +0.000 A 
ATOM     22  C   UNL     1       2.078   3.482  18.088  0.00  0.00    +0.000 A 
BRANCH  22  23
ATOM     23  O   UNL     1       1.130   4.140  17.359  0.00  0.00    +0.000 OA
ATOM     24  H   UNL     1       0.561   4.743  17.860  0.00  0.00    +0.000 HD
ENDBRANCH  22  23
ENDBRANCH   3  17
TORSDOF 4
ENDMDL
