MODEL 1
REMARK VINA RESULT:      -7.9      0.000      0.000
REMARK  Name = 
REMARK  5 active torsions:
REMARK  status: ('A' for Active; 'I' for Inactive)
REMARK    1  A    between atoms: C_1  and  C_2
REMARK    2  A    between atoms: C_5  and  C_6
REMARK    3  A    between atoms: C_6  and  N_7
REMARK    4  A    between atoms: N_7  and  C_8
REMARK    5  A    between atoms: N_14  and  C_15
REMARK                            x       y       z     vdW  Elec       q    Type
REMARK                         _______ _______ _______ _____ _____    ______ ____
ROOT
ATOM      1  C   UNL     1       2.595   6.770  18.585  0.00  0.00    +0.000 A 
ATOM      2  N   UNL     1       2.144   7.868  19.215  0.00  0.00    +0.000 NA
ATOM      3  C   UNL     1       1.550   7.737  20.414  0.00  0.00    +0.000 A 
ATOM      4  N   UNL     1       1.011   8.863  20.998  0.00  0.00    +0.000 N 
ATOM      5  C   UNL     1       0.392   8.766  22.322  0.00  0.00    +0.000 C 
ATOM      6  C   UNL     1      -0.612   9.937  22.494  0.00  0.00    +0.000 C 
ATOM      7  N   UNL     1      -0.005  11.272  22.264  0.00  0.00    +0.000 NA
ATOM      8  C   UNL     1      -1.030  12.315  22.320  0.00  0.00    +0.000 C 
ATOM      9  C   UNL     1       0.668  11.291  20.942  0.00  0.00    +0.000 C 
ATOM     10  C   UNL     1       1.686  10.142  20.760  0.00  0.00    +0.000 C 
ATOM     11  N   UNL     1       1.381   6.549  21.005  0.00  0.00    +0.000 NA
ATOM     12  C   UNL     1       1.850   5.454  20.397  0.00  0.00    +0.000 A 
ATOM     13  C   UNL     1       1.666   4.215  21.003  0.00  0.00    +0.000 A 
ATOM     14  C   UNL     1       2.108   3.024  20.416  0.00  0.00    +0.000 A 
ATOM     15  C   UNL     1       2.769   3.071  19.199  0.00  0.00    +0.000 A 
ATOM     16 CL   UNL     1       3.308   1.623  18.447  0.00  0.00    +0.000 Cl
ATOM     17  C   UNL     1       2.981   4.295  18.578  0.00  0.00    +0.000 A 
ATOM     18  C   UNL     1       2.505   5.496  19.162  0.00  0.00    +0.000 A 
ENDROOT
BRANCH   1  19
ATOM     19  N   UNL     1       3.255   6.919  17.347  0.00  0.00    +0.000 N 
ATOM     20  H   UNL     1       2.833   7.663  16.805  0.00  0.00    +0.000 HD
BRANCH  19  21
ATOM     21  C   UNL     1       4.687   7.193  17.430  0.00  0.00    +0.000 C 
BRANCH  21  26
ATOM     22  C   UNL     1       6.207   3.907  13.768  0.00  0.00    +0.000 C 
ATOM     23  C   UNL     1       6.222   4.625  15.074  0.00  0.00    +0.000 A 
ATOM     24  C   UNL     1       7.172   4.462  16.064  0.00  0.00    +0.000 A 
ATOM     25  S   UNL     1       6.878   5.449  17.431  0.00  0.00    +0.000 S 
ATOM     26  C   UNL     1       5.471   6.119  16.721  0.00  0.00    +0.000 A 
ATOM     27  C   UNL     1       5.246   5.597  15.464  0.00  0.00    +0.000 A 
ENDBRANCH  21  26
ENDBRANCH  19  21
ENDBRANCH   1  19
TORSDOF 3
ENDMDL
MODEL 2
REMARK VINA RESULT:      -7.4      4.112      8.279
REMARK  Name = 
REMARK  5 active torsions:
REMARK  status: ('A' for Active; 'I' for Inactive)
REMARK    1  A    between atoms: C_1  and  C_2
REMARK    2  A    between atoms: C_5  and  C_6
REMARK    3  A    between atoms: C_6  and  N_7
REMARK    4  A    between atoms: N_7  and  C_8
REMARK    5  A    between atoms: N_14  and  C_15
REMARK                            x       y       z     vdW  Elec       q    Type
REMARK                         _______ _______ _______ _____ _____    ______ ____
ROOT
ATOM      1  C   UNL     1       0.995  10.334  19.381  0.00  0.00    +0.000 A 
ATOM      2  N   UNL     1       1.639   9.235  18.955  0.00  0.00    +0.000 NA
ATOM      3  C   UNL     1       1.682   8.152  19.749  0.00  0.00    +0.000 A 
ATOM      4  N   UNL     1       2.427   7.070  19.333  0.00  0.00    +0.000 N 
ATOM      5  C   UNL     1       2.463   5.858  20.154  0.00  0.00    +0.000 C 
ATOM      6  C   UNL     1       3.754   5.063  19.819  0.00  0.00    +0.000 C 
ATOM      7  N   UNL     1       3.900   4.757  18.374  0.00  0.00    +0.000 NA
ATOM      8  C   UNL     1       5.192   4.120  18.115  0.00  0.00    +0.000 C 
ATOM      9  C   UNL     1       3.784   6.009  17.586  0.00  0.00    +0.000 C 
ATOM     10  C   UNL     1       2.493   6.803  17.894  0.00  0.00    +0.000 C 
ATOM     11  N   UNL     1       1.113   8.128  20.960  0.00  0.00    +0.000 NA
ATOM     12  C   UNL     1       0.448   9.209  21.382  0.00  0.00    +0.000 A 
ATOM     13  C   UNL     1      -0.134   9.191  22.645  0.00  0.00    +0.000 A 
ATOM     14  C   UNL     1      -0.825  10.293  23.164  0.00  0.00    +0.000 A 
ATOM     15  C   UNL     1      -0.954  11.438  22.393  0.00  0.00    +0.000 A 
ATOM     16 CL   UNL     1      -1.783  12.811  23.011  0.00  0.00    +0.000 Cl
ATOM     17  C   UNL     1      -0.396  11.478  21.123  0.00  0.00    +0.000 A 
ATOM     18  C   UNL     1       0.328  10.370  20.613  0.00  0.00    +0.000 A 
ENDROOT
BRANCH   1  19
ATOM     19  N   UNL     1       0.918  11.453  18.525  0.00  0.00    +0.000 N 
ATOM     20  H   UNL     1       0.127  12.036  18.770  0.00  0.00    +0.000 HD
BRANCH  19  21
ATOM     21  C   UNL     1       2.102  12.307  18.501  0.00  0.00    +0.000 C 
BRANCH  21  26
ATOM     22  C   UNL     1      -0.773  16.535  19.113  0.00  0.00    +0.000 C 
ATOM     23  C   UNL     1       0.446  15.717  18.855  0.00  0.00    +0.000 A 
ATOM     24  C   UNL     1       1.713  16.223  18.629  0.00  0.00    +0.000 A 
ATOM     25  S   UNL     1       2.876  14.995  18.370  0.00  0.00    +0.000 S 
ATOM     26  C   UNL     1       1.705  13.759  18.558  0.00  0.00    +0.000 A 
ATOM     27  C   UNL     1       0.458  14.287  18.821  0.00  0.00    +0.000 A 
ENDBRANCH  21  26
ENDBRANCH  19  21
ENDBRANCH   1  19
TORSDOF 3
ENDMDL
MODEL 3
REMARK VINA RESULT:      -7.2      1.247      1.343
REMARK  Name = 
REMARK  5 active torsions:
REMARK  status: ('A' for Active; 'I' for Inactive)
REMARK    1  A    between atoms: C_1  and  C_2
REMARK    2  A    between atoms: C_5  and  C_6
REMARK    3  A    between atoms: C_6  and  N_7
REMARK    4  A    between atoms: N_7  and  C_8
REMARK    5  A    between atoms: N_14  and  C_15
REMARK                            x       y       z     vdW  Elec       q    Type
REMARK                         _______ _______ _______ _____ _____    ______ ____
ROOT
ATOM      1  C   UNL     1       2.856   7.309  18.126  0.00  0.00    +0.000 A 
ATOM      2  N   UNL     1       2.295   8.500  18.389  0.00  0.00    +0.000 NA
ATOM      3  C   UNL     1       1.582   8.654  19.518  0.00  0.00    +0.000 A 
ATOM      4  N   UNL     1       0.937   9.855  19.722  0.00  0.00    +0.000 N 
ATOM      5  C   UNL     1       0.186  10.073  20.960  0.00  0.00    +0.000 C 
ATOM      6  C   UNL     1      -0.878  11.175  20.714  0.00  0.00    +0.000 C 
ATOM      7  N   UNL     1      -0.307  12.439  20.184  0.00  0.00    +0.000 NA
ATOM      8  C   UNL     1      -1.374  13.386  19.860  0.00  0.00    +0.000 C 
ATOM      9  C   UNL     1       0.502  12.151  18.974  0.00  0.00    +0.000 C 
ATOM     10  C   UNL     1       1.581  11.067  19.207  0.00  0.00    +0.000 C 
ATOM     11  N   UNL     1       1.401   7.658  20.393  0.00  0.00    +0.000 NA
ATOM     12  C   UNL     1       1.977   6.476  20.152  0.00  0.00    +0.000 A 
ATOM     13  C   UNL     1       1.780   5.434  21.053  0.00  0.00    +0.000 A 
ATOM     14  C   UNL     1       2.332   4.162  20.856  0.00  0.00    +0.000 A 
ATOM     15  C   UNL     1       3.116   3.928  19.738  0.00  0.00    +0.000 A 
ATOM     16 CL   UNL     1       3.792   2.373  19.462  0.00  0.00    +0.000 Cl
ATOM     17  C   UNL     1       3.342   4.954  18.830  0.00  0.00    +0.000 A 
ATOM     18  C   UNL     1       2.758   6.232  19.018  0.00  0.00    +0.000 A 
ENDROOT
BRANCH   1  19
ATOM     19  N   UNL     1       3.637   7.166  16.961  0.00  0.00    +0.000 N 
ATOM     20  H   UNL     1       3.437   7.910  16.303  0.00  0.00    +0.000 HD
BRANCH  19  21
ATOM     21  C   UNL     1       5.082   7.146  17.174  0.00  0.00    +0.000 C 
BRANCH  21  26
ATOM     22  C   UNL     1       6.156   3.804  13.406  0.00  0.00    +0.000 C 
ATOM     23  C   UNL     1       6.255   4.464  14.739  0.00  0.00    +0.000 A 
ATOM     24  C   UNL     1       7.151   4.122  15.735  0.00  0.00    +0.000 A 
ATOM     25  S   UNL     1       6.983   5.091  17.135  0.00  0.00    +0.000 S 
ATOM     26  C   UNL     1       5.707   5.992  16.433  0.00  0.00    +0.000 A 
ATOM     27  C   UNL     1       5.430   5.557  15.154  0.00  0.00    +0.000 A 
ENDBRANCH  21  26
ENDBRANCH  19  21
ENDBRANCH   1  19
TORSDOF 3
ENDMDL
MODEL 4
REMARK VINA RESULT:      -7.2      4.256      8.293
REMARK  Name = 
REMARK  5 active torsions:
REMARK  status: ('A' for Active; 'I' for Inactive)
REMARK    1  A    between atoms: C_1  and  C_2
REMARK    2  A    between atoms: C_5  and  C_6
REMARK    3  A    between atoms: C_6  and  N_7
REMARK    4  A    between atoms: N_7  and  C_8
REMARK    5  A    between atoms: N_14  and  C_15
REMARK                            x       y       z     vdW  Elec       q    Type
REMARK                         _______ _______ _______ _____ _____    ______ ____
ROOT
ATOM      1  C   UNL     1       0.949  10.223  19.395  0.00  0.00    +0.000 A 
ATOM      2  N   UNL     1       1.632   9.158  18.944  0.00  0.00    +0.000 NA
ATOM      3  C   UNL     1       1.754   8.076  19.732  0.00  0.00    +0.000 A 
ATOM      4  N   UNL     1       2.537   7.033  19.287  0.00  0.00    +0.000 N 
ATOM      5  C   UNL     1       2.660   5.822  20.101  0.00  0.00    +0.000 C 
ATOM      6  C   UNL     1       3.976   5.092  19.721  0.00  0.00    +0.000 C 
ATOM      7  N   UNL     1       4.089   4.797  18.270  0.00  0.00    +0.000 NA
ATOM      8  C   UNL     1       5.401   4.225  17.967  0.00  0.00    +0.000 C 
ATOM      9  C   UNL     1       3.885   6.044  17.492  0.00  0.00    +0.000 C 
ATOM     10  C   UNL     1       2.568   6.773  17.845  0.00  0.00    +0.000 C 
ATOM     11  N   UNL     1       1.227   8.021  20.961  0.00  0.00    +0.000 NA
ATOM     12  C   UNL     1       0.525   9.067  21.408  0.00  0.00    +0.000 A 
ATOM     13  C   UNL     1      -0.014   9.018  22.690  0.00  0.00    +0.000 A 
ATOM     14  C   UNL     1      -0.741  10.083  23.236  0.00  0.00    +0.000 A 
ATOM     15  C   UNL     1      -0.951  11.222  22.475  0.00  0.00    +0.000 A 
ATOM     16 CL   UNL     1      -1.825  12.551  23.125  0.00  0.00    +0.000 Cl
ATOM     17  C   UNL     1      -0.438  11.292  21.187  0.00  0.00    +0.000 A 
ATOM     18  C   UNL     1       0.322  10.223  20.649  0.00  0.00    +0.000 A 
ENDROOT
BRANCH   1  19
ATOM     19  N   UNL     1       0.789  11.338  18.547  0.00  0.00    +0.000 N 
ATOM     20  H   UNL     1      -0.042  11.861  18.797  0.00  0.00    +0.000 HD
BRANCH  19  21
ATOM     21  C   UNL     1       1.908  12.276  18.528  0.00  0.00    +0.000 C 
BRANCH  21  26
ATOM     22  C   UNL     1       1.916  17.415  18.869  0.00  0.00    +0.000 C 
ATOM     23  C   UNL     1       1.357  16.034  18.801  0.00  0.00    +0.000 A 
ATOM     24  C   UNL     1       0.012  15.717  18.797  0.00  0.00    +0.000 A 
ATOM     25  S   UNL     1      -0.267  14.031  18.709  0.00  0.00    +0.000 S 
ATOM     26  C   UNL     1       1.411  13.692  18.671  0.00  0.00    +0.000 A 
ATOM     27  C   UNL     1       2.158  14.851  18.717  0.00  0.00    +0.000 A 
ENDBRANCH  21  26
ENDBRANCH  19  21
ENDBRANCH   1  19
TORSDOF 3
ENDMDL
MODEL 5
REMARK VINA RESULT:      -7.2      4.380      8.302
REMARK  Name = 
REMARK  5 active torsions:
REMARK  status: ('A' for Active; 'I' for Inactive)
REMARK    1  A    between atoms: C_1  and  C_2
REMARK    2  A    between atoms: C_5  and  C_6
REMARK    3  A    between atoms: C_6  and  N_7
REMARK    4  A    between atoms: N_7  and  C_8
REMARK    5  A    between atoms: N_14  and  C_15
REMARK                            x       y       z     vdW  Elec       q    Type
REMARK                         _______ _______ _______ _____ _____    ______ ____
ROOT
ATOM      1  C   UNL     1       0.536   9.714  19.161  0.00  0.00    +0.000 A 
ATOM      2  N   UNL     1       1.332   8.726  18.720  0.00  0.00    +0.000 NA
ATOM      3  C   UNL     1       1.837   7.847  19.604  0.00  0.00    +0.000 A 
ATOM      4  N   UNL     1       2.725   6.900  19.144  0.00  0.00    +0.000 N 
ATOM      5  C   UNL     1       3.263   5.902  20.070  0.00  0.00    +0.000 C 
ATOM      6  C   UNL     1       4.607   5.366  19.506  0.00  0.00    +0.000 C 
ATOM      7  N   UNL     1       4.497   4.836  18.124  0.00  0.00    +0.000 NA
ATOM      8  C   UNL     1       5.817   4.465  17.614  0.00  0.00    +0.000 C 
ATOM      9  C   UNL     1       3.881   5.860  17.246  0.00  0.00    +0.000 C 
ATOM     10  C   UNL     1       2.531   6.391  17.783  0.00  0.00    +0.000 C 
ATOM     11  N   UNL     1       1.583   7.924  20.916  0.00  0.00    +0.000 NA
ATOM     12  C   UNL     1       0.771   8.889  21.360  0.00  0.00    +0.000 A 
ATOM     13  C   UNL     1       0.516   8.979  22.725  0.00  0.00    +0.000 A 
ATOM     14  C   UNL     1      -0.305   9.976  23.266  0.00  0.00    +0.000 A 
ATOM     15  C   UNL     1      -0.901  10.898  22.421  0.00  0.00    +0.000 A 
ATOM     16 CL   UNL     1      -1.899  12.143  23.060  0.00  0.00    +0.000 Cl
ATOM     17  C   UNL     1      -0.675  10.823  21.053  0.00  0.00    +0.000 A 
ATOM     18  C   UNL     1       0.179   9.829  20.512  0.00  0.00    +0.000 A 
ENDROOT
BRANCH   1  19
ATOM     19  N   UNL     1      -0.024  10.606  18.224  0.00  0.00    +0.000 N 
ATOM     20  H   UNL     1       0.704  11.108  17.730  0.00  0.00    +0.000 HD
BRANCH  19  21
ATOM     21  C   UNL     1      -0.894   9.997  17.222  0.00  0.00    +0.000 C 
BRANCH  21  26
ATOM     22  C   UNL     1      -5.109  12.293  19.087  0.00  0.00    +0.000 C 
ATOM     23  C   UNL     1      -4.205  11.672  18.078  0.00  0.00    +0.000 A 
ATOM     24  C   UNL     1      -4.478  11.553  16.728  0.00  0.00    +0.000 A 
ATOM     25  S   UNL     1      -3.214  10.786  15.866  0.00  0.00    +0.000 S 
ATOM     26  C   UNL     1      -2.274  10.601  17.285  0.00  0.00    +0.000 A 
ATOM     27  C   UNL     1      -2.919  11.125  18.386  0.00  0.00    +0.000 A 
ENDBRANCH  21  26
ENDBRANCH  19  21
ENDBRANCH   1  19
TORSDOF 3
ENDMDL
MODEL 6
REMARK VINA RESULT:      -7.1      4.482      6.677
REMARK  Name = 
REMARK  5 active torsions:
REMARK  status: ('A' for Active; 'I' for Inactive)
REMARK    1  A    between atoms: C_1  and  C_2
REMARK    2  A    between atoms: C_5  and  C_6
REMARK    3  A    between atoms: C_6  and  N_7
REMARK    4  A    between atoms: N_7  and  C_8
REMARK    5  A    between atoms: N_14  and  C_15
REMARK                            x       y       z     vdW  Elec       q    Type
REMARK                         _______ _______ _______ _____ _____    ______ ____
ROOT
ATOM      1  C   UNL     1      -1.131  10.736  18.229  0.00  0.00    +0.000 A 
ATOM      2  N   UNL     1      -1.168  11.280  19.457  0.00  0.00    +0.000 NA
ATOM      3  C   UNL     1      -2.274  11.937  19.848  0.00  0.00    +0.000 A 
ATOM      4  N   UNL     1      -2.256  12.567  21.074  0.00  0.00    +0.000 N 
ATOM      5  C   UNL     1      -3.455  13.258  21.550  0.00  0.00    +0.000 C 
ATOM      6  C   UNL     1      -3.037  14.329  22.594  0.00  0.00    +0.000 C 
ATOM      7  N   UNL     1      -2.235  13.778  23.715  0.00  0.00    +0.000 NA
ATOM      8  C   UNL     1      -1.773  14.856  24.589  0.00  0.00    +0.000 C 
ATOM      9  C   UNL     1      -1.074  13.028  23.174  0.00  0.00    +0.000 C 
ATOM     10  C   UNL     1      -1.475  11.944  22.147  0.00  0.00    +0.000 C 
ATOM     11  N   UNL     1      -3.341  12.081  19.055  0.00  0.00    +0.000 NA
ATOM     12  C   UNL     1      -3.322  11.522  17.840  0.00  0.00    +0.000 A 
ATOM     13  C   UNL     1      -4.425  11.680  17.008  0.00  0.00    +0.000 A 
ATOM     14  C   UNL     1      -4.468  11.143  15.715  0.00  0.00    +0.000 A 
ATOM     15  C   UNL     1      -3.387  10.414  15.247  0.00  0.00    +0.000 A 
ATOM     16 CL   UNL     1      -3.406   9.758  13.659  0.00  0.00    +0.000 Cl
ATOM     17  C   UNL     1      -2.279  10.227  16.061  0.00  0.00    +0.000 A 
ATOM     18  C   UNL     1      -2.228  10.796  17.359  0.00  0.00    +0.000 A 
ENDROOT
BRANCH   1  19
ATOM     19  N   UNL     1       0.015  10.011  17.841  0.00  0.00    +0.000 N 
ATOM     20  H   UNL     1       0.373  10.355  16.958  0.00  0.00    +0.000 HD
BRANCH  19  21
ATOM     21  C   UNL     1       1.119  10.026  18.797  0.00  0.00    +0.000 C 
BRANCH  21  26
ATOM     22  C   UNL     1       4.057   6.069  17.305  0.00  0.00    +0.000 C 
ATOM     23  C   UNL     1       3.173   6.877  18.191  0.00  0.00    +0.000 A 
ATOM     24  C   UNL     1       2.792   6.526  19.473  0.00  0.00    +0.000 A 
ATOM     25  S   UNL     1       1.771   7.691  20.199  0.00  0.00    +0.000 S 
ATOM     26  C   UNL     1       1.821   8.693  18.811  0.00  0.00    +0.000 A 
ATOM     27  C   UNL     1       2.611   8.141  17.824  0.00  0.00    +0.000 A 
ENDBRANCH  21  26
ENDBRANCH  19  21
ENDBRANCH   1  19
TORSDOF 3
ENDMDL
MODEL 7
REMARK VINA RESULT:      -7.1      4.361      7.087
REMARK  Name = 
REMARK  5 active torsions:
REMARK  status: ('A' for Active; 'I' for Inactive)
REMARK    1  A    between atoms: C_1  and  C_2
REMARK    2  A    between atoms: C_5  and  C_6
REMARK    3  A    between atoms: C_6  and  N_7
REMARK    4  A    between atoms: N_7  and  C_8
REMARK    5  A    between atoms: N_14  and  C_15
REMARK                            x       y       z     vdW  Elec       q    Type
REMARK                         _______ _______ _______ _____ _____    ______ ____
ROOT
ATOM      1  C   UNL     1      -1.164  11.356  18.880  0.00  0.00    +0.000 A 
ATOM      2  N   UNL     1      -1.377  11.902  20.089  0.00  0.00    +0.000 NA
ATOM      3  C   UNL     1      -2.606  12.349  20.398  0.00  0.00    +0.000 A 
ATOM      4  N   UNL     1      -2.780  12.990  21.605  0.00  0.00    +0.000 N 
ATOM      5  C   UNL     1      -4.115  13.454  21.993  0.00  0.00    +0.000 C 
ATOM      6  C   UNL     1      -3.966  14.600  23.029  0.00  0.00    +0.000 C 
ATOM      7  N   UNL     1      -3.146  14.225  24.209  0.00  0.00    +0.000 NA
ATOM      8  C   UNL     1      -2.946  15.384  25.080  0.00  0.00    +0.000 C 
ATOM      9  C   UNL     1      -1.836  13.696  23.757  0.00  0.00    +0.000 C 
ATOM     10  C   UNL     1      -1.966  12.541  22.737  0.00  0.00    +0.000 C 
ATOM     11  N   UNL     1      -3.631  12.279  19.540  0.00  0.00    +0.000 NA
ATOM     12  C   UNL     1      -3.434  11.714  18.345  0.00  0.00    +0.000 A 
ATOM     13  C   UNL     1      -4.494  11.651  17.446  0.00  0.00    +0.000 A 
ATOM     14  C   UNL     1      -4.358  11.095  16.168  0.00  0.00    +0.000 A 
ATOM     15  C   UNL     1      -3.134  10.572  15.783  0.00  0.00    +0.000 A 
ATOM     16 CL   UNL     1      -2.933   9.899  14.214  0.00  0.00    +0.000 Cl
ATOM     17  C   UNL     1      -2.062  10.608  16.665  0.00  0.00    +0.000 A 
ATOM     18  C   UNL     1      -2.197  11.197  17.947  0.00  0.00    +0.000 A 
ENDROOT
BRANCH   1  19
ATOM     19  N   UNL     1       0.118  10.851  18.578  0.00  0.00    +0.000 N 
ATOM     20  H   UNL     1       0.679  11.554  18.112  0.00  0.00    +0.000 HD
BRANCH  19  21
ATOM     21  C   UNL     1       0.886  10.367  19.722  0.00  0.00    +0.000 C 
BRANCH  21  26
ATOM     22  C   UNL     1       2.555   5.523  20.244  0.00  0.00    +0.000 C 
ATOM     23  C   UNL     1       2.286   6.829  19.577  0.00  0.00    +0.000 A 
ATOM     24  C   UNL     1       2.580   7.127  18.260  0.00  0.00    +0.000 A 
ATOM     25  S   UNL     1       2.133   8.722  17.830  0.00  0.00    +0.000 S 
ATOM     26  C   UNL     1       1.533   9.044  19.401  0.00  0.00    +0.000 A 
ATOM     27  C   UNL     1       1.669   7.946  20.225  0.00  0.00    +0.000 A 
ENDBRANCH  21  26
ENDBRANCH  19  21
ENDBRANCH   1  19
TORSDOF 3
ENDMDL
MODEL 8
REMARK VINA RESULT:      -7.1      4.003      8.029
REMARK  Name = 
REMARK  5 active torsions:
REMARK  status: ('A' for Active; 'I' for Inactive)
REMARK    1  A    between atoms: C_1  and  C_2
REMARK    2  A    between atoms: C_5  and  C_6
REMARK    3  A    between atoms: C_6  and  N_7
REMARK    4  A    between atoms: N_7  and  C_8
REMARK    5  A    between atoms: N_14  and  C_15
REMARK                            x       y       z     vdW  Elec       q    Type
REMARK                         _______ _______ _______ _____ _____    ______ ____
ROOT
ATOM      1  C   UNL     1       1.012  10.465  19.465  0.00  0.00    +0.000 A 
ATOM      2  N   UNL     1       1.654   9.375  19.013  0.00  0.00    +0.000 NA
ATOM      3  C   UNL     1       1.664   8.262  19.767  0.00  0.00    +0.000 A 
ATOM      4  N   UNL     1       2.407   7.187  19.329  0.00  0.00    +0.000 N 
ATOM      5  C   UNL     1       2.408   5.944  20.104  0.00  0.00    +0.000 C 
ATOM      6  C   UNL     1       3.698   5.147  19.771  0.00  0.00    +0.000 C 
ATOM      7  N   UNL     1       3.876   4.893  18.319  0.00  0.00    +0.000 NA
ATOM      8  C   UNL     1       5.166   4.250  18.069  0.00  0.00    +0.000 C 
ATOM      9  C   UNL     1       3.793   6.175  17.577  0.00  0.00    +0.000 C 
ATOM     10  C   UNL     1       2.505   6.974  17.883  0.00  0.00    +0.000 C 
ATOM     11  N   UNL     1       1.065   8.200  20.962  0.00  0.00    +0.000 NA
ATOM     12  C   UNL     1       0.403   9.272  21.408  0.00  0.00    +0.000 A 
ATOM     13  C   UNL     1      -0.211   9.215  22.655  0.00  0.00    +0.000 A 
ATOM     14  C   UNL     1      -0.902  10.305  23.198  0.00  0.00    +0.000 A 
ATOM     15  C   UNL     1      -0.998  11.479  22.468  0.00  0.00    +0.000 A 
ATOM     16 CL   UNL     1      -1.826  12.839  23.116  0.00  0.00    +0.000 Cl
ATOM     17  C   UNL     1      -0.409  11.560  21.214  0.00  0.00    +0.000 A 
ATOM     18  C   UNL     1       0.315  10.463  20.680  0.00  0.00    +0.000 A 
ENDROOT
BRANCH   1  19
ATOM     19  N   UNL     1       0.969  11.616  18.650  0.00  0.00    +0.000 N 
ATOM     20  H   UNL     1       0.491  12.372  19.124  0.00  0.00    +0.000 HD
BRANCH  19  21
ATOM     21  C   UNL     1       2.267  12.122  18.213  0.00  0.00    +0.000 C 
BRANCH  21  26
ATOM     22  C   UNL     1       3.070  15.368  22.129  0.00  0.00    +0.000 C 
ATOM     23  C   UNL     1       3.035  14.884  20.720  0.00  0.00    +0.000 A 
ATOM     24  C   UNL     1       3.457  15.603  19.618  0.00  0.00    +0.000 A 
ATOM     25  S   UNL     1       3.271  14.736  18.154  0.00  0.00    +0.000 S 
ATOM     26  C   UNL     1       2.624  13.376  18.969  0.00  0.00    +0.000 A 
ATOM     27  C   UNL     1       2.564  13.590  20.331  0.00  0.00    +0.000 A 
ENDBRANCH  21  26
ENDBRANCH  19  21
ENDBRANCH   1  19
TORSDOF 3
ENDMDL
MODEL 9
REMARK VINA RESULT:      -7.1      3.037      6.978
REMARK  Name = 
REMARK  5 active torsions:
REMARK  status: ('A' for Active; 'I' for Inactive)
REMARK    1  A    between atoms: C_1  and  C_2
REMARK    2  A    between atoms: C_5  and  C_6
REMARK    3  A    between atoms: C_6  and  N_7
REMARK    4  A    between atoms: N_7  and  C_8
REMARK    5  A    between atoms: N_14  and  C_15
REMARK                            x       y       z     vdW  Elec       q    Type
REMARK                         _______ _______ _______ _____ _____    ______ ____
ROOT
ATOM      1  C   UNL     1       2.654   6.340  19.915  0.00  0.00    +0.000 A 
ATOM      2  N   UNL     1       3.520   5.848  19.013  0.00  0.00    +0.000 NA
ATOM      3  C   UNL     1       3.798   6.567  17.912  0.00  0.00    +0.000 A 
ATOM      4  N   UNL     1       4.614   6.002  16.956  0.00  0.00    +0.000 N 
ATOM      5  C   UNL     1       4.971   6.772  15.762  0.00  0.00    +0.000 C 
ATOM      6  C   UNL     1       5.364   5.788  14.628  0.00  0.00    +0.000 C 
ATOM      7  N   UNL     1       6.438   4.839  15.016  0.00  0.00    +0.000 NA
ATOM      8  C   UNL     1       6.669   3.866  13.948  0.00  0.00    +0.000 C 
ATOM      9  C   UNL     1       6.056   4.140  16.268  0.00  0.00    +0.000 C 
ATOM     10  C   UNL     1       5.680   5.107  17.415  0.00  0.00    +0.000 C 
ATOM     11  N   UNL     1       3.236   7.757  17.672  0.00  0.00    +0.000 NA
ATOM     12  C   UNL     1       2.393   8.266  18.576  0.00  0.00    +0.000 A 
ATOM     13  C   UNL     1       1.798   9.498  18.325  0.00  0.00    +0.000 A 
ATOM     14  C   UNL     1       0.888  10.083  19.213  0.00  0.00    +0.000 A 
ATOM     15  C   UNL     1       0.576   9.429  20.395  0.00  0.00    +0.000 A 
ATOM     16 CL   UNL     1      -0.550  10.116  21.496  0.00  0.00    +0.000 Cl
ATOM     17  C   UNL     1       1.167   8.205  20.679  0.00  0.00    +0.000 A 
ATOM     18  C   UNL     1       2.066   7.603  19.763  0.00  0.00    +0.000 A 
ENDROOT
BRANCH   1  19
ATOM     19  N   UNL     1       2.400   5.599  21.088  0.00  0.00    +0.000 N 
ATOM     20  H   UNL     1       2.033   6.200  21.817  0.00  0.00    +0.000 HD
BRANCH  19  21
ATOM     21  C   UNL     1       1.473   4.481  20.933  0.00  0.00    +0.000 C 
BRANCH  21  26
ATOM     22  C   UNL     1       4.288   0.841  18.620  0.00  0.00    +0.000 C 
ATOM     23  C   UNL     1       3.205   1.851  18.792  0.00  0.00    +0.000 A 
ATOM     24  C   UNL     1       2.216   2.127  17.866  0.00  0.00    +0.000 A 
ATOM     25  S   UNL     1       1.138   3.345  18.396  0.00  0.00    +0.000 S 
ATOM     26  C   UNL     1       1.972   3.526  19.880  0.00  0.00    +0.000 A 
ATOM     27  C   UNL     1       3.046   2.662  19.960  0.00  0.00    +0.000 A 
ENDBRANCH  21  26
ENDBRANCH  19  21
ENDBRANCH   1  19
TORSDOF 3
ENDMDL
