MODEL 1
REMARK VINA RESULT:      -7.9      0.000      0.000
REMARK  Name = 
REMARK  2 active torsions:
REMARK  status: ('A' for Active; 'I' for Inactive)
REMARK    1  A    between atoms: C_4  and  N_5
REMARK    2  A    between atoms: C_10  and  N_11
REMARK                            x       y       z     vdW  Elec       q    Type
REMARK                         _______ _______ _______ _____ _____    ______ ____
ROOT
ATOM      1  N   UNL     1       0.118  10.236  20.832  0.00  0.00    +0.000 N 
ATOM      2  C   UNL     1      -0.214   9.012  21.373  0.00  0.00    +0.000 A 
ATOM      3  N   UNL     1       0.887   8.277  21.573  0.00  0.00    +0.000 NA
ATOM      4  C   UNL     1       1.431   8.469  20.345  0.00  0.00    +0.000 A 
ATOM      5  C   UNL     1       2.242   7.473  19.740  0.00  0.00    +0.000 A 
ATOM      6  C   UNL     1       2.569   7.414  18.381  0.00  0.00    +0.000 A 
ATOM      7  C   UNL     1       2.110   8.553  17.695  0.00  0.00    +0.000 A 
ATOM      8  C   UNL     1       1.372   9.716  18.335  0.00  0.00    +0.000 A 
ATOM      9  C   UNL     1       0.952   9.654  19.715  0.00  0.00    +0.000 A 
ENDROOT
BRANCH   6  10
ATOM     10  N   UNL     1       3.224   6.237  17.909  0.00  0.00    +0.000 N 
ATOM     11  C   UNL     1       2.963   4.845  17.844  0.00  0.00    +0.000 A 
ATOM     12  C   UNL     1       1.685   4.300  17.852  0.00  0.00    +0.000 A 
ATOM     13  N   UNL     1       1.390   2.970  17.930  0.00  0.00    +0.000 NA
ATOM     14  C   UNL     1       2.446   2.141  17.963  0.00  0.00    +0.000 A 
ATOM     15  C   UNL     1       3.736   2.628  17.856  0.00  0.00    +0.000 A 
ATOM     16  N   UNL     1       4.021   3.966  17.793  0.00  0.00    +0.000 NA
ATOM     17  H   UNL     1       4.233   6.339  17.810  0.00  0.00    +0.000 HD
ENDBRANCH   6  10
BRANCH   1  21
ATOM     18  C   UNL     1      -3.194  12.608  22.483  0.00  0.00    +0.000 A 
ATOM     19  C   UNL     1      -2.410  11.867  23.330  0.00  0.00    +0.000 A 
ATOM     20  C   UNL     1      -1.226  11.232  22.810  0.00  0.00    +0.000 A 
ATOM     21  C   UNL     1      -0.813  11.279  21.406  0.00  0.00    +0.000 A 
ATOM     22  C   UNL     1      -1.570  12.144  20.629  0.00  0.00    +0.000 A 
ATOM     23  C   UNL     1      -2.752  12.770  21.152  0.00  0.00    +0.000 A 
ENDBRANCH   1  21
TORSDOF 2
ENDMDL
MODEL 2
REMARK VINA RESULT:      -7.7      5.960      9.063
REMARK  Name = 
REMARK  2 active torsions:
REMARK  status: ('A' for Active; 'I' for Inactive)
REMARK    1  A    between atoms: C_4  and  N_5
REMARK    2  A    between atoms: C_10  and  N_11
REMARK                            x       y       z     vdW  Elec       q    Type
REMARK                         _______ _______ _______ _____ _____    ______ ____
ROOT
ATOM      1  N   UNL     1       4.806   4.930  18.060  0.00  0.00    +0.000 N 
ATOM      2  C   UNL     1       4.054   6.068  17.864  0.00  0.00    +0.000 A 
ATOM      3  N   UNL     1       4.596   6.825  16.901  0.00  0.00    +0.000 NA
ATOM      4  C   UNL     1       5.866   6.799  17.376  0.00  0.00    +0.000 A 
ATOM      5  C   UNL     1       6.747   7.893  17.169  0.00  0.00    +0.000 A 
ATOM      6  C   UNL     1       7.932   8.120  17.879  0.00  0.00    +0.000 A 
ATOM      7  C   UNL     1       8.227   7.047  18.739  0.00  0.00    +0.000 A 
ATOM      8  C   UNL     1       7.391   5.787  18.876  0.00  0.00    +0.000 A 
ATOM      9  C   UNL     1       6.113   5.672  18.214  0.00  0.00    +0.000 A 
ENDROOT
BRANCH   6  10
ATOM     10  N   UNL     1       8.590   9.372  17.682  0.00  0.00    +0.000 N 
ATOM     11  C   UNL     1       9.021  10.466  18.474  0.00  0.00    +0.000 A 
ATOM     12  C   UNL     1       9.303  10.370  19.831  0.00  0.00    +0.000 A 
ATOM     13  N   UNL     1       9.586  11.418  20.658  0.00  0.00    +0.000 NA
ATOM     14  C   UNL     1       9.624  12.627  20.074  0.00  0.00    +0.000 A 
ATOM     15  C   UNL     1       9.450  12.762  18.708  0.00  0.00    +0.000 A 
ATOM     16  N   UNL     1       9.152  11.705  17.890  0.00  0.00    +0.000 NA
ATOM     17  H   UNL     1       8.535   9.719  16.727  0.00  0.00    +0.000 HD
ENDBRANCH   6  10
BRANCH   1  21
ATOM     18  C   UNL     1       1.602   2.237  19.401  0.00  0.00    +0.000 A 
ATOM     19  C   UNL     1       1.457   2.919  18.220  0.00  0.00    +0.000 A 
ATOM     20  C   UNL     1       2.577   3.662  17.701  0.00  0.00    +0.000 A 
ATOM     21  C   UNL     1       3.869   3.787  18.376  0.00  0.00    +0.000 A 
ATOM     22  C   UNL     1       3.997   2.976  19.495  0.00  0.00    +0.000 A 
ATOM     23  C   UNL     1       2.876   2.241  20.010  0.00  0.00    +0.000 A 
ENDBRANCH   1  21
TORSDOF 2
ENDMDL
MODEL 3
REMARK VINA RESULT:      -7.6      1.613      2.217
REMARK  Name = 
REMARK  2 active torsions:
REMARK  status: ('A' for Active; 'I' for Inactive)
REMARK    1  A    between atoms: C_4  and  N_5
REMARK    2  A    between atoms: C_10  and  N_11
REMARK                            x       y       z     vdW  Elec       q    Type
REMARK                         _______ _______ _______ _____ _____    ______ ____
ROOT
ATOM      1  N   UNL     1       0.142  10.192  20.752  0.00  0.00    +0.000 N 
ATOM      2  C   UNL     1      -0.181   8.992  21.350  0.00  0.00    +0.000 A 
ATOM      3  N   UNL     1       0.925   8.274  21.581  0.00  0.00    +0.000 NA
ATOM      4  C   UNL     1       1.464   8.411  20.344  0.00  0.00    +0.000 A 
ATOM      5  C   UNL     1       2.280   7.393  19.783  0.00  0.00    +0.000 A 
ATOM      6  C   UNL     1       2.603   7.274  18.427  0.00  0.00    +0.000 A 
ATOM      7  C   UNL     1       2.136   8.377  17.690  0.00  0.00    +0.000 A 
ATOM      8  C   UNL     1       1.393   9.564  18.278  0.00  0.00    +0.000 A 
ATOM      9  C   UNL     1       0.976   9.564  19.660  0.00  0.00    +0.000 A 
ENDROOT
BRANCH   6  10
ATOM     10  N   UNL     1       3.264   6.079  18.008  0.00  0.00    +0.000 N 
ATOM     11  C   UNL     1       4.426   5.725  17.277  0.00  0.00    +0.000 A 
ATOM     12  C   UNL     1       5.533   6.553  17.141  0.00  0.00    +0.000 A 
ATOM     13  N   UNL     1       6.610   6.312  16.338  0.00  0.00    +0.000 NA
ATOM     14  C   UNL     1       6.585   5.151  15.664  0.00  0.00    +0.000 A 
ATOM     15  C   UNL     1       5.553   4.247  15.843  0.00  0.00    +0.000 A 
ATOM     16  N   UNL     1       4.470   4.505  16.640  0.00  0.00    +0.000 NA
ATOM     17  H   UNL     1       2.662   5.259  17.996  0.00  0.00    +0.000 HD
ENDBRANCH   6  10
BRANCH   1  21
ATOM     18  C   UNL     1      -3.174  12.614  22.320  0.00  0.00    +0.000 A 
ATOM     19  C   UNL     1      -2.364  11.936  23.195  0.00  0.00    +0.000 A 
ATOM     20  C   UNL     1      -1.180  11.287  22.691  0.00  0.00    +0.000 A 
ATOM     21  C   UNL     1      -0.793  11.256  21.280  0.00  0.00    +0.000 A 
ATOM     22  C   UNL     1      -1.577  12.061  20.466  0.00  0.00    +0.000 A 
ATOM     23  C   UNL     1      -2.758  12.701  20.973  0.00  0.00    +0.000 A 
ENDBRANCH   1  21
TORSDOF 2
ENDMDL
MODEL 4
REMARK VINA RESULT:      -7.5      3.368      9.285
REMARK  Name = 
REMARK  2 active torsions:
REMARK  status: ('A' for Active; 'I' for Inactive)
REMARK    1  A    between atoms: C_4  and  N_5
REMARK    2  A    between atoms: C_10  and  N_11
REMARK                            x       y       z     vdW  Elec       q    Type
REMARK                         _______ _______ _______ _____ _____    ______ ____
ROOT
ATOM      1  N   UNL     1       5.379   4.935  16.010  0.00  0.00    +0.000 N 
ATOM      2  C   UNL     1       5.523   6.305  16.076  0.00  0.00    +0.000 A 
ATOM      3  N   UNL     1       5.670   6.697  17.348  0.00  0.00    +0.000 NA
ATOM      4  C   UNL     1       4.624   5.994  17.852  0.00  0.00    +0.000 A 
ATOM      5  C   UNL     1       3.893   6.471  18.972  0.00  0.00    +0.000 A 
ATOM      6  C   UNL     1       2.626   6.022  19.359  0.00  0.00    +0.000 A 
ATOM      7  C   UNL     1       2.212   4.925  18.582  0.00  0.00    +0.000 A 
ATOM      8  C   UNL     1       3.032   4.285  17.475  0.00  0.00    +0.000 A 
ATOM      9  C   UNL     1       4.273   4.878  17.038  0.00  0.00    +0.000 A 
ENDROOT
BRANCH   6  10
ATOM     10  N   UNL     1       1.952   6.750  20.387  0.00  0.00    +0.000 N 
ATOM     11  C   UNL     1       1.476   8.069  20.598  0.00  0.00    +0.000 A 
ATOM     12  C   UNL     1       1.152   8.944  19.569  0.00  0.00    +0.000 A 
ATOM     13  N   UNL     1       0.823  10.260  19.722  0.00  0.00    +0.000 NA
ATOM     14  C   UNL     1       0.782  10.707  20.988  0.00  0.00    +0.000 A 
ATOM     15  C   UNL     1       0.998   9.849  22.051  0.00  0.00    +0.000 A 
ATOM     16  N   UNL     1       1.341   8.534  21.886  0.00  0.00    +0.000 NA
ATOM     17  H   UNL     1       2.031   6.327  21.310  0.00  0.00    +0.000 HD
ENDBRANCH   6  10
BRANCH   1  21
ATOM     18  C   UNL     1       7.073   4.247  12.013  0.00  0.00    +0.000 A 
ATOM     19  C   UNL     1       7.770   5.009  12.917  0.00  0.00    +0.000 A 
ATOM     20  C   UNL     1       7.296   5.088  14.275  0.00  0.00    +0.000 A 
ATOM     21  C   UNL     1       6.077   4.442  14.763  0.00  0.00    +0.000 A 
ATOM     22  C   UNL     1       5.489   3.586  13.842  0.00  0.00    +0.000 A 
ATOM     23  C   UNL     1       5.963   3.515  12.489  0.00  0.00    +0.000 A 
ENDBRANCH   1  21
TORSDOF 2
ENDMDL
MODEL 5
REMARK VINA RESULT:      -7.5      0.591      1.176
REMARK  Name = 
REMARK  2 active torsions:
REMARK  status: ('A' for Active; 'I' for Inactive)
REMARK    1  A    between atoms: C_4  and  N_5
REMARK    2  A    between atoms: C_10  and  N_11
REMARK                            x       y       z     vdW  Elec       q    Type
REMARK                         _______ _______ _______ _____ _____    ______ ____
ROOT
ATOM      1  N   UNL     1       0.159  10.245  20.741  0.00  0.00    +0.000 N 
ATOM      2  C   UNL     1      -0.206   9.028  21.274  0.00  0.00    +0.000 A 
ATOM      3  N   UNL     1       0.877   8.272  21.496  0.00  0.00    +0.000 NA
ATOM      4  C   UNL     1       1.448   8.454  20.279  0.00  0.00    +0.000 A 
ATOM      5  C   UNL     1       2.253   7.443  19.690  0.00  0.00    +0.000 A 
ATOM      6  C   UNL     1       2.605   7.379  18.337  0.00  0.00    +0.000 A 
ATOM      7  C   UNL     1       2.182   8.526  17.643  0.00  0.00    +0.000 A 
ATOM      8  C   UNL     1       1.454   9.703  18.269  0.00  0.00    +0.000 A 
ATOM      9  C   UNL     1       1.004   9.649  19.640  0.00  0.00    +0.000 A 
ENDROOT
BRANCH   6  10
ATOM     10  N   UNL     1       3.248   6.189  17.878  0.00  0.00    +0.000 N 
ATOM     11  C   UNL     1       2.977   4.798  17.839  0.00  0.00    +0.000 A 
ATOM     12  C   UNL     1       1.696   4.262  17.870  0.00  0.00    +0.000 A 
ATOM     13  N   UNL     1       1.393   2.936  17.974  0.00  0.00    +0.000 NA
ATOM     14  C   UNL     1       2.444   2.100  18.009  0.00  0.00    +0.000 A 
ATOM     15  C   UNL     1       3.736   2.577  17.880  0.00  0.00    +0.000 A 
ATOM     16  N   UNL     1       4.029   3.912  17.791  0.00  0.00    +0.000 NA
ATOM     17  H   UNL     1       4.256   6.284  17.766  0.00  0.00    +0.000 HD
ENDBRANCH   6  10
BRANCH   1  21
ATOM     18  C   UNL     1      -1.802  13.863  22.286  0.00  0.00    +0.000 A 
ATOM     19  C   UNL     1      -1.770  13.641  20.932  0.00  0.00    +0.000 A 
ATOM     20  C   UNL     1      -1.282  12.376  20.443  0.00  0.00    +0.000 A 
ATOM     21  C   UNL     1      -0.763  11.306  21.296  0.00  0.00    +0.000 A 
ATOM     22  C   UNL     1      -0.938  11.537  22.653  0.00  0.00    +0.000 A 
ATOM     23  C   UNL     1      -1.420  12.801  23.135  0.00  0.00    +0.000 A 
ENDBRANCH   1  21
TORSDOF 2
ENDMDL
MODEL 6
REMARK VINA RESULT:      -7.3      1.779      2.561
REMARK  Name = 
REMARK  2 active torsions:
REMARK  status: ('A' for Active; 'I' for Inactive)
REMARK    1  A    between atoms: C_4  and  N_5
REMARK    2  A    between atoms: C_10  and  N_11
REMARK                            x       y       z     vdW  Elec       q    Type
REMARK                         _______ _______ _______ _____ _____    ______ ____
ROOT
ATOM      1  N   UNL     1       0.253  10.005  20.698  0.00  0.00    +0.000 N 
ATOM      2  C   UNL     1      -0.080   8.791  21.259  0.00  0.00    +0.000 A 
ATOM      3  N   UNL     1       1.021   8.064  21.487  0.00  0.00    +0.000 NA
ATOM      4  C   UNL     1       1.579   8.234  20.262  0.00  0.00    +0.000 A 
ATOM      5  C   UNL     1       2.402   7.230  19.686  0.00  0.00    +0.000 A 
ATOM      6  C   UNL     1       2.746   7.147  18.333  0.00  0.00    +0.000 A 
ATOM      7  C   UNL     1       2.291   8.270  17.619  0.00  0.00    +0.000 A 
ATOM      8  C   UNL     1       1.541   9.442  18.227  0.00  0.00    +0.000 A 
ATOM      9  C   UNL     1       1.103   9.405  19.603  0.00  0.00    +0.000 A 
ENDROOT
BRANCH   6  10
ATOM     10  N   UNL     1       3.412   5.963  17.892  0.00  0.00    +0.000 N 
ATOM     11  C   UNL     1       4.589   5.626  17.177  0.00  0.00    +0.000 A 
ATOM     12  C   UNL     1       5.702   6.453  17.092  0.00  0.00    +0.000 A 
ATOM     13  N   UNL     1       6.796   6.233  16.307  0.00  0.00    +0.000 NA
ATOM     14  C   UNL     1       6.782   5.093  15.596  0.00  0.00    +0.000 A 
ATOM     15  C   UNL     1       5.743   4.189  15.723  0.00  0.00    +0.000 A 
ATOM     16  N   UNL     1       4.643   4.427  16.503  0.00  0.00    +0.000 NA
ATOM     17  H   UNL     1       2.806   5.146  17.840  0.00  0.00    +0.000 HD
ENDBRANCH   6  10
BRANCH   1  21
ATOM     18  C   UNL     1      -1.782  13.611  22.172  0.00  0.00    +0.000 A 
ATOM     19  C   UNL     1      -1.772  13.347  20.825  0.00  0.00    +0.000 A 
ATOM     20  C   UNL     1      -1.257  12.083  20.366  0.00  0.00    +0.000 A 
ATOM     21  C   UNL     1      -0.688  11.056  21.240  0.00  0.00    +0.000 A 
ATOM     22  C   UNL     1      -0.843  11.324  22.593  0.00  0.00    +0.000 A 
ATOM     23  C   UNL     1      -1.352  12.588  23.045  0.00  0.00    +0.000 A 
ENDBRANCH   1  21
TORSDOF 2
ENDMDL
MODEL 7
REMARK VINA RESULT:      -7.3      1.946      2.762
REMARK  Name = 
REMARK  2 active torsions:
REMARK  status: ('A' for Active; 'I' for Inactive)
REMARK    1  A    between atoms: C_4  and  N_5
REMARK    2  A    between atoms: C_10  and  N_11
REMARK                            x       y       z     vdW  Elec       q    Type
REMARK                         _______ _______ _______ _____ _____    ______ ____
ROOT
ATOM      1  N   UNL     1       0.327  10.238  20.241  0.00  0.00    +0.000 N 
ATOM      2  C   UNL     1       1.117  10.961  19.373  0.00  0.00    +0.000 A 
ATOM      3  N   UNL     1       1.165  10.359  18.177  0.00  0.00    +0.000 NA
ATOM      4  C   UNL     1       1.443   9.114  18.637  0.00  0.00    +0.000 A 
ATOM      5  C   UNL     1       2.215   8.205  17.867  0.00  0.00    +0.000 A 
ATOM      6  C   UNL     1       2.836   7.053  18.362  0.00  0.00    +0.000 A 
ATOM      7  C   UNL     1       2.484   6.818  19.703  0.00  0.00    +0.000 A 
ATOM      8  C   UNL     1       1.538   7.681  20.518  0.00  0.00    +0.000 A 
ATOM      9  C   UNL     1       1.035   8.928  19.990  0.00  0.00    +0.000 A 
ENDROOT
BRANCH   6  10
ATOM     10  N   UNL     1       3.739   6.364  17.495  0.00  0.00    +0.000 N 
ATOM     11  C   UNL     1       5.009   5.740  17.585  0.00  0.00    +0.000 A 
ATOM     12  C   UNL     1       5.539   5.239  18.767  0.00  0.00    +0.000 A 
ATOM     13  N   UNL     1       6.805   4.758  18.927  0.00  0.00    +0.000 NA
ATOM     14  C   UNL     1       7.568   4.747  17.821  0.00  0.00    +0.000 A 
ATOM     15  C   UNL     1       7.054   5.143  16.600  0.00  0.00    +0.000 A 
ATOM     16  N   UNL     1       5.785   5.637  16.454  0.00  0.00    +0.000 NA
ATOM     17  H   UNL     1       3.589   6.559  16.507  0.00  0.00    +0.000 HD
ENDBRANCH   6  10
BRANCH   1  21
ATOM     18  C   UNL     1      -2.542  12.505  22.681  0.00  0.00    +0.000 A 
ATOM     19  C   UNL     1      -1.831  11.482  23.255  0.00  0.00    +0.000 A 
ATOM     20  C   UNL     1      -0.773  10.858  22.503  0.00  0.00    +0.000 A 
ATOM     21  C   UNL     1      -0.421  11.209  21.126  0.00  0.00    +0.000 A 
ATOM     22  C   UNL     1      -1.085  12.330  20.647  0.00  0.00    +0.000 A 
ATOM     23  C   UNL     1      -2.142  12.944  21.399  0.00  0.00    +0.000 A 
ENDBRANCH   1  21
TORSDOF 2
ENDMDL
MODEL 8
REMARK VINA RESULT:      -7.3      2.012      2.535
REMARK  Name = 
REMARK  2 active torsions:
REMARK  status: ('A' for Active; 'I' for Inactive)
REMARK    1  A    between atoms: C_4  and  N_5
REMARK    2  A    between atoms: C_10  and  N_11
REMARK                            x       y       z     vdW  Elec       q    Type
REMARK                         _______ _______ _______ _____ _____    ______ ____
ROOT
ATOM      1  N   UNL     1      -0.788  11.324  22.436  0.00  0.00    +0.000 N 
ATOM      2  C   UNL     1      -0.915  10.191  23.211  0.00  0.00    +0.000 A 
ATOM      3  N   UNL     1       0.277   9.604  23.377  0.00  0.00    +0.000 NA
ATOM      4  C   UNL     1       0.646   9.623  22.071  0.00  0.00    +0.000 A 
ATOM      5  C   UNL     1       1.485   8.612  21.533  0.00  0.00    +0.000 A 
ATOM      6  C   UNL     1       1.652   8.343  20.171  0.00  0.00    +0.000 A 
ATOM      7  C   UNL     1       0.992   9.297  19.376  0.00  0.00    +0.000 A 
ATOM      8  C   UNL     1       0.211  10.484  19.911  0.00  0.00    +0.000 A 
ATOM      9  C   UNL     1      -0.033  10.631  21.326  0.00  0.00    +0.000 A 
ENDROOT
BRANCH   6  10
ATOM     10  N   UNL     1       2.374   7.163  19.813  0.00  0.00    +0.000 N 
ATOM     11  C   UNL     1       2.295   5.770  20.061  0.00  0.00    +0.000 A 
ATOM     12  C   UNL     1       1.120   5.115  20.410  0.00  0.00    +0.000 A 
ATOM     13  N   UNL     1       1.023   3.808  20.790  0.00  0.00    +0.000 NA
ATOM     14  C   UNL     1       2.172   3.112  20.779  0.00  0.00    +0.000 A 
ATOM     15  C   UNL     1       3.350   3.692  20.344  0.00  0.00    +0.000 A 
ATOM     16  N   UNL     1       3.438   5.009  19.978  0.00  0.00    +0.000 NA
ATOM     17  H   UNL     1       3.329   7.342  19.510  0.00  0.00    +0.000 HD
ENDBRANCH   6  10
BRANCH   1  21
ATOM     18  C   UNL     1      -3.220  14.175  24.733  0.00  0.00    +0.000 A 
ATOM     19  C   UNL     1      -2.000  14.571  24.246  0.00  0.00    +0.000 A 
ATOM     20  C   UNL     1      -1.287  13.695  23.352  0.00  0.00    +0.000 A 
ATOM     21  C   UNL     1      -1.754  12.366  22.952  0.00  0.00    +0.000 A 
ATOM     22  C   UNL     1      -3.044  12.077  23.371  0.00  0.00    +0.000 A 
ATOM     23  C   UNL     1      -3.747  12.951  24.266  0.00  0.00    +0.000 A 
ENDBRANCH   1  21
TORSDOF 2
ENDMDL
MODEL 9
REMARK VINA RESULT:      -7.3      2.214      8.709
REMARK  Name = 
REMARK  2 active torsions:
REMARK  status: ('A' for Active; 'I' for Inactive)
REMARK    1  A    between atoms: C_4  and  N_5
REMARK    2  A    between atoms: C_10  and  N_11
REMARK                            x       y       z     vdW  Elec       q    Type
REMARK                         _______ _______ _______ _____ _____    ______ ____
ROOT
ATOM      1  N   UNL     1       3.892   5.648  18.151  0.00  0.00    +0.000 N 
ATOM      2  C   UNL     1       4.195   5.378  19.468  0.00  0.00    +0.000 A 
ATOM      3  N   UNL     1       3.073   5.271  20.192  0.00  0.00    +0.000 NA
ATOM      4  C   UNL     1       2.485   6.407  19.740  0.00  0.00    +0.000 A 
ATOM      5  C   UNL     1       1.605   7.154  20.567  0.00  0.00    +0.000 A 
ATOM      6  C   UNL     1       1.217   8.479  20.342  0.00  0.00    +0.000 A 
ATOM      7  C   UNL     1       1.693   8.949  19.104  0.00  0.00    +0.000 A 
ATOM      8  C   UNL     1       2.507   8.130  18.118  0.00  0.00    +0.000 A 
ATOM      9  C   UNL     1       2.986   6.814  18.469  0.00  0.00    +0.000 A 
ENDROOT
BRANCH   6  10
ATOM     10  N   UNL     1       0.491   9.141  21.379  0.00  0.00    +0.000 N 
ATOM     11  C   UNL     1      -0.290  10.314  21.528  0.00  0.00    +0.000 A 
ATOM     12  C   UNL     1      -0.945  10.943  20.476  0.00  0.00    +0.000 A 
ATOM     13  N   UNL     1      -1.590  12.143  20.547  0.00  0.00    +0.000 NA
ATOM     14  C   UNL     1      -1.609  12.723  21.759  0.00  0.00    +0.000 A 
ATOM     15  C   UNL     1      -1.059  12.090  22.858  0.00  0.00    +0.000 A 
ATOM     16  N   UNL     1      -0.401  10.892  22.772  0.00  0.00    +0.000 NA
ATOM     17  H   UNL     1       0.779   8.872  22.318  0.00  0.00    +0.000 HD
ENDBRANCH   6  10
BRANCH   1  21
ATOM     18  C   UNL     1       6.995   4.378  15.308  0.00  0.00    +0.000 A 
ATOM     19  C   UNL     1       7.357   4.746  16.579  0.00  0.00    +0.000 A 
ATOM     20  C   UNL     1       6.327   4.994  17.554  0.00  0.00    +0.000 A 
ATOM     21  C   UNL     1       4.891   4.928  17.274  0.00  0.00    +0.000 A 
ATOM     22  C   UNL     1       4.589   4.429  16.015  0.00  0.00    +0.000 A 
ATOM     23  C   UNL     1       5.620   4.189  15.046  0.00  0.00    +0.000 A 
ENDBRANCH   1  21
TORSDOF 2
ENDMDL
