MODEL 1
REMARK VINA RESULT:      -7.0      0.000      0.000
REMARK  Name = 
REMARK  10 active torsions:
REMARK  status: ('A' for Active; 'I' for Inactive)
REMARK    1  A    between atoms: C_2  and  C_3
REMARK    2  A    between atoms: C_4  and  C_5
REMARK    3  A    between atoms: N_7  and  C_8
REMARK    4  A    between atoms: C_15  and  C_16
REMARK    5  A    between atoms: N_25  and  C_26
REMARK    6  A    between atoms: C_26  and  C_27
REMARK    7  A    between atoms: C_27  and  O_28
REMARK    8  A    between atoms: O_28  and  C_29
REMARK    9  A    between atoms: C_29  and  C_30
REMARK   10  A    between atoms: C_30  and  O_31
REMARK                            x       y       z     vdW  Elec       q    Type
REMARK                         _______ _______ _______ _____ _____    ______ ____
ROOT
ATOM      1  C   UNL     1       1.231   9.579  19.258  0.00  0.00    +0.000 C 
ATOM      2  C   UNL     1       0.768  10.779  18.882  0.00  0.00    +0.000 C 
ENDROOT
BRANCH   1   4
ATOM      3  O   UNL     1       2.145   9.214  17.128  0.00  0.00    +0.000 OA
ATOM      4  C   UNL     1       1.968   8.766  18.262  0.00  0.00    +0.000 C 
ATOM      5  N   UNL     1       2.427   7.526  18.656  0.00  0.00    +0.000 N 
ATOM      6  C   UNL     1       2.235   6.908  19.975  0.00  0.00    +0.000 C 
ATOM      7  C   UNL     1       2.049   5.379  19.878  0.00  0.00    +0.000 C 
ATOM      8  N   UNL     1       3.078   4.677  19.080  0.00  0.00    +0.000 NA
ATOM      9  C   UNL     1       3.117   5.308  17.739  0.00  0.00    +0.000 C 
ATOM     10  C   UNL     1       3.358   6.829  17.762  0.00  0.00    +0.000 C 
BRANCH   8  11
ATOM     11  C   UNL     1       4.414   4.682  19.710  0.00  0.00    +0.000 C 
BRANCH  11  12
ATOM     12  C   UNL     1       5.525   4.137  18.800  0.00  0.00    +0.000 C 
BRANCH  12  13
ATOM     13  O   UNL     1       6.779   4.749  19.133  0.00  0.00    +0.000 OA
BRANCH  13  14
ATOM     14  C   UNL     1       7.578   4.909  17.951  0.00  0.00    +0.000 C 
BRANCH  14  15
ATOM     15  C   UNL     1       6.999   6.031  17.097  0.00  0.00    +0.000 C 
BRANCH  15  16
ATOM     16  O   UNL     1       7.374   5.860  15.736  0.00  0.00    +0.000 OA
ATOM     17  H   UNL     1       7.182   4.925  15.529  0.00  0.00    +0.000 HD
ENDBRANCH  15  16
ENDBRANCH  14  15
ENDBRANCH  13  14
ENDBRANCH  12  13
ENDBRANCH  11  12
ENDBRANCH   8  11
ENDBRANCH   1   4
BRANCH   2  18
ATOM     18  C   UNL     1       0.069  11.659  19.748  0.00  0.00    +0.000 A 
ATOM     19  C   UNL     1      -1.122  11.342  20.346  0.00  0.00    +0.000 A 
ATOM     20  N   UNL     1      -1.496  12.436  21.086  0.00  0.00    +0.000 N 
ATOM     21  N   UNL     1      -0.596  13.449  20.966  0.00  0.00    +0.000 NA
ATOM     22  C   UNL     1       0.398  12.962  20.204  0.00  0.00    +0.000 A 
BRANCH  20  23
ATOM     23  C   UNL     1      -2.664  12.572  21.889  0.00  0.00    +0.000 A 
ATOM     24  C   UNL     1      -3.884  12.975  21.321  0.00  0.00    +0.000 A 
ATOM     25  C   UNL     1      -5.020  13.114  22.121  0.00  0.00    +0.000 A 
ATOM     26  C   UNL     1      -4.946  12.857  23.488  0.00  0.00    +0.000 A 
ATOM     27  C   UNL     1      -3.742  12.452  24.057  0.00  0.00    +0.000 A 
ATOM     28  C   UNL     1      -2.601  12.303  23.264  0.00  0.00    +0.000 A 
ENDBRANCH  20  23
BRANCH  22  29
ATOM     29  C   UNL     1       1.607  13.749  19.941  0.00  0.00    +0.000 A 
ATOM     30  C   UNL     1       2.598  13.895  20.917  0.00  0.00    +0.000 A 
ATOM     31  C   UNL     1       3.717  14.656  20.627  0.00  0.00    +0.000 A 
ATOM     32  N   UNL     1       3.912  15.278  19.447  0.00  0.00    +0.000 NA
ATOM     33  C   UNL     1       2.935  15.144  18.521  0.00  0.00    +0.000 A 
ATOM     34  C   UNL     1       1.784  14.399  18.718  0.00  0.00    +0.000 A 
ENDBRANCH  22  29
ENDBRANCH   2  18
TORSDOF 10
ENDMDL
MODEL 2
REMARK VINA RESULT:      -7.0      0.682      1.109
REMARK  Name = 
REMARK  10 active torsions:
REMARK  status: ('A' for Active; 'I' for Inactive)
REMARK    1  A    between atoms: C_2  and  C_3
REMARK    2  A    between atoms: C_4  and  C_5
REMARK    3  A    between atoms: N_7  and  C_8
REMARK    4  A    between atoms: C_15  and  C_16
REMARK    5  A    between atoms: N_25  and  C_26
REMARK    6  A    between atoms: C_26  and  C_27
REMARK    7  A    between atoms: C_27  and  O_28
REMARK    8  A    between atoms: O_28  and  C_29
REMARK    9  A    between atoms: C_29  and  C_30
REMARK   10  A    between atoms: C_30  and  O_31
REMARK                            x       y       z     vdW  Elec       q    Type
REMARK                         _______ _______ _______ _____ _____    ______ ____
ROOT
ATOM      1  C   UNL     1       1.381   9.419  19.440  0.00  0.00    +0.000 C 
ATOM      2  C   UNL     1       0.516  10.329  18.973  0.00  0.00    +0.000 C 
ENDROOT
BRANCH   1   4
ATOM      3  O   UNL     1       2.258   8.850  17.338  0.00  0.00    +0.000 OA
ATOM      4  C   UNL     1       1.987   8.468  18.477  0.00  0.00    +0.000 C 
ATOM      5  N   UNL     1       2.220   7.178  18.908  0.00  0.00    +0.000 N 
ATOM      6  C   UNL     1       1.902   6.635  20.236  0.00  0.00    +0.000 C 
ATOM      7  C   UNL     1       1.460   5.158  20.168  0.00  0.00    +0.000 C 
ATOM      8  N   UNL     1       2.368   4.271  19.409  0.00  0.00    +0.000 NA
ATOM      9  C   UNL     1       2.538   4.853  18.055  0.00  0.00    +0.000 C 
ATOM     10  C   UNL     1       3.035   6.310  18.051  0.00  0.00    +0.000 C 
BRANCH   8  11
ATOM     11  C   UNL     1       3.673   4.065  20.067  0.00  0.00    +0.000 C 
BRANCH  11  12
ATOM     12  C   UNL     1       4.690   3.312  19.196  0.00  0.00    +0.000 C 
BRANCH  12  13
ATOM     13  O   UNL     1       5.949   4.000  19.203  0.00  0.00    +0.000 OA
BRANCH  13  14
ATOM     14  C   UNL     1       6.182   4.614  17.926  0.00  0.00    +0.000 C 
BRANCH  14  15
ATOM     15  C   UNL     1       7.672   4.561  17.604  0.00  0.00    +0.000 C 
BRANCH  15  16
ATOM     16  O   UNL     1       7.873   4.564  16.197  0.00  0.00    +0.000 OA
ATOM     17  H   UNL     1       7.188   3.970  15.835  0.00  0.00    +0.000 HD
ENDBRANCH  15  16
ENDBRANCH  14  15
ENDBRANCH  13  14
ENDBRANCH  12  13
ENDBRANCH  11  12
ENDBRANCH   8  11
ENDBRANCH   1   4
BRANCH   2  18
ATOM     18  C   UNL     1      -0.112  11.307  19.787  0.00  0.00    +0.000 A 
ATOM     19  C   UNL     1      -1.301  11.100  20.435  0.00  0.00    +0.000 A 
ATOM     20  N   UNL     1      -1.597  12.264  21.100  0.00  0.00    +0.000 N 
ATOM     21  N   UNL     1      -0.649  13.214  20.884  0.00  0.00    +0.000 NA
ATOM     22  C   UNL     1       0.298  12.620  20.137  0.00  0.00    +0.000 A 
BRANCH  20  23
ATOM     23  C   UNL     1      -2.733  12.521  21.917  0.00  0.00    +0.000 A 
ATOM     24  C   UNL     1      -2.673  12.342  23.309  0.00  0.00    +0.000 A 
ATOM     25  C   UNL     1      -3.798  12.587  24.100  0.00  0.00    +0.000 A 
ATOM     26  C   UNL     1      -4.987  13.008  23.509  0.00  0.00    +0.000 A 
ATOM     27  C   UNL     1      -5.053  13.193  22.130  0.00  0.00    +0.000 A 
ATOM     28  C   UNL     1      -3.931  12.957  21.332  0.00  0.00    +0.000 A 
ENDBRANCH  20  23
BRANCH  22  29
ATOM     29  C   UNL     1       1.539  13.318  19.788  0.00  0.00    +0.000 A 
ATOM     30  C   UNL     1       2.469  13.670  20.773  0.00  0.00    +0.000 A 
ATOM     31  C   UNL     1       3.622  14.337  20.396  0.00  0.00    +0.000 A 
ATOM     32  N   UNL     1       3.905  14.680  19.124  0.00  0.00    +0.000 NA
ATOM     33  C   UNL     1       2.987  14.351  18.188  0.00  0.00    +0.000 A 
ATOM     34  C   UNL     1       1.808  13.678  18.466  0.00  0.00    +0.000 A 
ENDBRANCH  22  29
ENDBRANCH   2  18
TORSDOF 10
ENDMDL
MODEL 3
REMARK VINA RESULT:      -7.0      3.222     10.437
REMARK  Name = 
REMARK  10 active torsions:
REMARK  status: ('A' for Active; 'I' for Inactive)
REMARK    1  A    between atoms: C_2  and  C_3
REMARK    2  A    between atoms: C_4  and  C_5
REMARK    3  A    between atoms: N_7  and  C_8
REMARK    4  A    between atoms: C_15  and  C_16
REMARK    5  A    between atoms: N_25  and  C_26
REMARK    6  A    between atoms: C_26  and  C_27
REMARK    7  A    between atoms: C_27  and  O_28
REMARK    8  A    between atoms: O_28  and  C_29
REMARK    9  A    between atoms: C_29  and  C_30
REMARK   10  A    between atoms: C_30  and  O_31
REMARK                            x       y       z     vdW  Elec       q    Type
REMARK                         _______ _______ _______ _____ _____    ______ ____
ROOT
ATOM      1  C   UNL     1       1.827   7.717  19.064  0.00  0.00    +0.000 C 
ATOM      2  C   UNL     1       2.955   7.057  19.363  0.00  0.00    +0.000 C 
ENDROOT
BRANCH   1   4
ATOM      3  O   UNL     1       1.696   8.729  21.178  0.00  0.00    +0.000 OA
ATOM      4  C   UNL     1       1.368   8.779  19.991  0.00  0.00    +0.000 C 
ATOM      5  N   UNL     1       0.582   9.787  19.475  0.00  0.00    +0.000 N 
ATOM      6  C   UNL     1       0.125   9.907  18.083  0.00  0.00    +0.000 C 
ATOM      7  C   UNL     1      -1.293  10.510  17.988  0.00  0.00    +0.000 C 
ATOM      8  N   UNL     1      -1.486  11.765  18.746  0.00  0.00    +0.000 NA
ATOM      9  C   UNL     1      -1.097  11.508  20.153  0.00  0.00    +0.000 C 
ATOM     10  C   UNL     1       0.332  10.958  20.323  0.00  0.00    +0.000 C 
BRANCH   8  11
ATOM     11  C   UNL     1      -0.738  12.909  18.187  0.00  0.00    +0.000 C 
BRANCH  11  12
ATOM     12  C   UNL     1      -0.599  14.088  19.162  0.00  0.00    +0.000 C 
BRANCH  12  13
ATOM     13  O   UNL     1       0.594  14.830  18.869  0.00  0.00    +0.000 OA
BRANCH  13  14
ATOM     14  C   UNL     1       1.751  14.079  19.268  0.00  0.00    +0.000 C 
BRANCH  14  15
ATOM     15  C   UNL     1       2.706  13.956  18.085  0.00  0.00    +0.000 C 
BRANCH  15  16
ATOM     16  O   UNL     1       2.656  12.641  17.546  0.00  0.00    +0.000 OA
ATOM     17  H   UNL     1       3.471  12.546  17.017  0.00  0.00    +0.000 HD
ENDBRANCH  15  16
ENDBRANCH  14  15
ENDBRANCH  13  14
ENDBRANCH  12  13
ENDBRANCH  11  12
ENDBRANCH   8  11
ENDBRANCH   1   4
BRANCH   2  18
ATOM     18  C   UNL     1       3.509   6.038  18.546  0.00  0.00    +0.000 A 
ATOM     19  C   UNL     1       4.264   6.291  17.431  0.00  0.00    +0.000 A 
ATOM     20  N   UNL     1       4.603   5.072  16.899  0.00  0.00    +0.000 N 
ATOM     21  N   UNL     1       4.075   4.049  17.623  0.00  0.00    +0.000 NA
ATOM     22  C   UNL     1       3.460   4.625  18.670  0.00  0.00    +0.000 A 
BRANCH  20  23
ATOM     23  C   UNL     1       5.391   4.831  15.738  0.00  0.00    +0.000 A 
ATOM     24  C   UNL     1       6.697   5.338  15.637  0.00  0.00    +0.000 A 
ATOM     25  C   UNL     1       7.456   5.104  14.488  0.00  0.00    +0.000 A 
ATOM     26  C   UNL     1       6.918   4.368  13.435  0.00  0.00    +0.000 A 
ATOM     27  C   UNL     1       5.626   3.858  13.530  0.00  0.00    +0.000 A 
ATOM     28  C   UNL     1       4.862   4.081  14.678  0.00  0.00    +0.000 A 
ENDBRANCH  20  23
BRANCH  22  29
ATOM     29  C   UNL     1       2.855   3.817  19.733  0.00  0.00    +0.000 A 
ATOM     30  C   UNL     1       3.627   2.931  20.492  0.00  0.00    +0.000 A 
ATOM     31  C   UNL     1       3.009   2.181  21.478  0.00  0.00    +0.000 A 
ATOM     32  N   UNL     1       1.691   2.248  21.752  0.00  0.00    +0.000 NA
ATOM     33  C   UNL     1       0.956   3.094  20.996  0.00  0.00    +0.000 A 
ATOM     34  C   UNL     1       1.485   3.889  19.992  0.00  0.00    +0.000 A 
ENDBRANCH  22  29
ENDBRANCH   2  18
TORSDOF 10
ENDMDL
MODEL 4
REMARK VINA RESULT:      -7.0      2.480      5.244
REMARK  Name = 
REMARK  10 active torsions:
REMARK  status: ('A' for Active; 'I' for Inactive)
REMARK    1  A    between atoms: C_2  and  C_3
REMARK    2  A    between atoms: C_4  and  C_5
REMARK    3  A    between atoms: N_7  and  C_8
REMARK    4  A    between atoms: C_15  and  C_16
REMARK    5  A    between atoms: N_25  and  C_26
REMARK    6  A    between atoms: C_26  and  C_27
REMARK    7  A    between atoms: C_27  and  O_28
REMARK    8  A    between atoms: O_28  and  C_29
REMARK    9  A    between atoms: C_29  and  C_30
REMARK   10  A    between atoms: C_30  and  O_31
REMARK                            x       y       z     vdW  Elec       q    Type
REMARK                         _______ _______ _______ _____ _____    ______ ____
ROOT
ATOM      1  C   UNL     1       1.678   9.248  19.714  0.00  0.00    +0.000 C 
ATOM      2  C   UNL     1       0.606  10.032  19.892  0.00  0.00    +0.000 C 
ENDROOT
BRANCH   1   4
ATOM      3  O   UNL     1       1.045   7.693  21.355  0.00  0.00    +0.000 OA
ATOM      4  C   UNL     1       1.659   7.889  20.304  0.00  0.00    +0.000 C 
ATOM      5  N   UNL     1       2.343   6.891  19.642  0.00  0.00    +0.000 N 
ATOM      6  C   UNL     1       3.121   7.044  18.404  0.00  0.00    +0.000 C 
ATOM      7  C   UNL     1       4.367   6.135  18.386  0.00  0.00    +0.000 C 
ATOM      8  N   UNL     1       4.106   4.715  18.704  0.00  0.00    +0.000 NA
ATOM      9  C   UNL     1       3.414   4.666  20.015  0.00  0.00    +0.000 C 
ATOM     10  C   UNL     1       2.127   5.508  20.083  0.00  0.00    +0.000 C 
BRANCH   8  11
ATOM     11  C   UNL     1       3.325   4.014  17.665  0.00  0.00    +0.000 C 
BRANCH  11  12
ATOM     12  C   UNL     1       4.073   3.864  16.332  0.00  0.00    +0.000 C 
BRANCH  12  13
ATOM     13  O   UNL     1       5.388   3.337  16.561  0.00  0.00    +0.000 OA
BRANCH  13  14
ATOM     14  C   UNL     1       6.361   4.112  15.843  0.00  0.00    +0.000 C 
BRANCH  14  15
ATOM     15  C   UNL     1       7.336   4.741  16.832  0.00  0.00    +0.000 C 
BRANCH  15  16
ATOM     16  O   UNL     1       7.201   4.136  18.111  0.00  0.00    +0.000 OA
ATOM     17  H   UNL     1       6.439   4.579  18.530  0.00  0.00    +0.000 HD
ENDBRANCH  15  16
ENDBRANCH  14  15
ENDBRANCH  13  14
ENDBRANCH  12  13
ENDBRANCH  11  12
ENDBRANCH   8  11
ENDBRANCH   1   4
BRANCH   2  18
ATOM     18  C   UNL     1       0.493  11.342  19.358  0.00  0.00    +0.000 A 
ATOM     19  C   UNL     1       1.530  12.236  19.323  0.00  0.00    +0.000 A 
ATOM     20  N   UNL     1       1.040  13.388  18.760  0.00  0.00    +0.000 N 
ATOM     21  N   UNL     1      -0.279  13.270  18.453  0.00  0.00    +0.000 NA
ATOM     22  C   UNL     1      -0.609  12.002  18.752  0.00  0.00    +0.000 A 
BRANCH  20  23
ATOM     23  C   UNL     1       1.756  14.593  18.510  0.00  0.00    +0.000 A 
ATOM     24  C   UNL     1       1.186  15.842  18.807  0.00  0.00    +0.000 A 
ATOM     25  C   UNL     1       1.894  17.018  18.547  0.00  0.00    +0.000 A 
ATOM     26  C   UNL     1       3.168  16.956  17.988  0.00  0.00    +0.000 A 
ATOM     27  C   UNL     1       3.741  15.721  17.695  0.00  0.00    +0.000 A 
ATOM     28  C   UNL     1       3.044  14.539  17.958  0.00  0.00    +0.000 A 
ENDBRANCH  20  23
BRANCH  22  29
ATOM     29  C   UNL     1      -1.945  11.475  18.457  0.00  0.00    +0.000 A 
ATOM     30  C   UNL     1      -2.112  10.360  17.628  0.00  0.00    +0.000 A 
ATOM     31  C   UNL     1      -3.393   9.904  17.369  0.00  0.00    +0.000 A 
ATOM     32  N   UNL     1      -4.505  10.480  17.867  0.00  0.00    +0.000 NA
ATOM     33  C   UNL     1      -4.328  11.569  18.649  0.00  0.00    +0.000 A 
ATOM     34  C   UNL     1      -3.086  12.094  18.970  0.00  0.00    +0.000 A 
ENDBRANCH  22  29
ENDBRANCH   2  18
TORSDOF 10
ENDMDL
MODEL 5
REMARK VINA RESULT:      -7.0      2.250      3.728
REMARK  Name = 
REMARK  10 active torsions:
REMARK  status: ('A' for Active; 'I' for Inactive)
REMARK    1  A    between atoms: C_2  and  C_3
REMARK    2  A    between atoms: C_4  and  C_5
REMARK    3  A    between atoms: N_7  and  C_8
REMARK    4  A    between atoms: C_15  and  C_16
REMARK    5  A    between atoms: N_25  and  C_26
REMARK    6  A    between atoms: C_26  and  C_27
REMARK    7  A    between atoms: C_27  and  O_28
REMARK    8  A    between atoms: O_28  and  C_29
REMARK    9  A    between atoms: C_29  and  C_30
REMARK   10  A    between atoms: C_30  and  O_31
REMARK                            x       y       z     vdW  Elec       q    Type
REMARK                         _______ _______ _______ _____ _____    ______ ____
ROOT
ATOM      1  C   UNL     1       0.954   9.322  18.953  0.00  0.00    +0.000 C 
ATOM      2  C   UNL     1       0.490  10.541  18.644  0.00  0.00    +0.000 C 
ENDROOT
BRANCH   1   4
ATOM      3  O   UNL     1       2.470   9.397  17.163  0.00  0.00    +0.000 OA
ATOM      4  C   UNL     1       2.045   8.756  18.126  0.00  0.00    +0.000 C 
ATOM      5  N   UNL     1       2.541   7.517  18.476  0.00  0.00    +0.000 N 
ATOM      6  C   UNL     1       2.074   6.677  19.588  0.00  0.00    +0.000 C 
ATOM      7  C   UNL     1       2.135   5.174  19.245  0.00  0.00    +0.000 C 
ATOM      8  N   UNL     1       3.433   4.711  18.707  0.00  0.00    +0.000 NA
ATOM      9  C   UNL     1       3.759   5.553  17.530  0.00  0.00    +0.000 C 
ATOM     10  C   UNL     1       3.772   7.065  17.819  0.00  0.00    +0.000 C 
BRANCH   8  11
ATOM     11  C   UNL     1       4.524   4.739  19.701  0.00  0.00    +0.000 C 
BRANCH  11  12
ATOM     12  C   UNL     1       5.839   5.315  19.154  0.00  0.00    +0.000 C 
BRANCH  12  13
ATOM     13  O   UNL     1       6.588   4.287  18.490  0.00  0.00    +0.000 OA
BRANCH  13  14
ATOM     14  C   UNL     1       7.408   4.862  17.461  0.00  0.00    +0.000 C 
BRANCH  14  15
ATOM     15  C   UNL     1       6.874   4.444  16.095  0.00  0.00    +0.000 C 
BRANCH  15  16
ATOM     16  O   UNL     1       7.694   4.974  15.062  0.00  0.00    +0.000 OA
ATOM     17  H   UNL     1       8.518   5.257  15.503  0.00  0.00    +0.000 HD
ENDBRANCH  15  16
ENDBRANCH  14  15
ENDBRANCH  13  14
ENDBRANCH  12  13
ENDBRANCH  11  12
ENDBRANCH   8  11
ENDBRANCH   1   4
BRANCH   2  18
ATOM     18  C   UNL     1      -0.534  11.201  19.372  0.00  0.00    +0.000 A 
ATOM     19  C   UNL     1      -0.334  11.791  20.591  0.00  0.00    +0.000 A 
ATOM     20  N   UNL     1      -1.545  12.303  20.986  0.00  0.00    +0.000 N 
ATOM     21  N   UNL     1      -2.517  12.043  20.071  0.00  0.00    +0.000 NA
ATOM     22  C   UNL     1      -1.898  11.428  19.049  0.00  0.00    +0.000 A 
BRANCH  20  23
ATOM     23  C   UNL     1      -1.826  13.014  22.187  0.00  0.00    +0.000 A 
ATOM     24  C   UNL     1      -0.910  13.947  22.701  0.00  0.00    +0.000 A 
ATOM     25  C   UNL     1      -1.193  14.631  23.885  0.00  0.00    +0.000 A 
ATOM     26  C   UNL     1      -2.385  14.387  24.564  0.00  0.00    +0.000 A 
ATOM     27  C   UNL     1      -3.299  13.468  24.058  0.00  0.00    +0.000 A 
ATOM     28  C   UNL     1      -3.028  12.784  22.870  0.00  0.00    +0.000 A 
ENDBRANCH  20  23
BRANCH  22  29
ATOM     29  C   UNL     1      -2.621  11.082  17.821  0.00  0.00    +0.000 A 
ATOM     30  C   UNL     1      -2.074  10.193  16.889  0.00  0.00    +0.000 A 
ATOM     31  C   UNL     1      -2.789   9.904  15.740  0.00  0.00    +0.000 A 
ATOM     32  N   UNL     1      -3.993  10.438  15.456  0.00  0.00    +0.000 NA
ATOM     33  C   UNL     1      -4.499  11.311  16.356  0.00  0.00    +0.000 A 
ATOM     34  C   UNL     1      -3.861  11.657  17.537  0.00  0.00    +0.000 A 
ENDBRANCH  22  29
ENDBRANCH   2  18
TORSDOF 10
ENDMDL
MODEL 6
REMARK VINA RESULT:      -6.9      2.237      3.744
REMARK  Name = 
REMARK  10 active torsions:
REMARK  status: ('A' for Active; 'I' for Inactive)
REMARK    1  A    between atoms: C_2  and  C_3
REMARK    2  A    between atoms: C_4  and  C_5
REMARK    3  A    between atoms: N_7  and  C_8
REMARK    4  A    between atoms: C_15  and  C_16
REMARK    5  A    between atoms: N_25  and  C_26
REMARK    6  A    between atoms: C_26  and  C_27
REMARK    7  A    between atoms: C_27  and  O_28
REMARK    8  A    between atoms: O_28  and  C_29
REMARK    9  A    between atoms: C_29  and  C_30
REMARK   10  A    between atoms: C_30  and  O_31
REMARK                            x       y       z     vdW  Elec       q    Type
REMARK                         _______ _______ _______ _____ _____    ______ ____
ROOT
ATOM      1  C   UNL     1       1.173   9.482  19.094  0.00  0.00    +0.000 C 
ATOM      2  C   UNL     1       0.329  10.371  18.554  0.00  0.00    +0.000 C 
ENDROOT
BRANCH   1   4
ATOM      3  O   UNL     1       2.384   9.193  17.104  0.00  0.00    +0.000 OA
ATOM      4  C   UNL     1       2.052   8.707  18.186  0.00  0.00    +0.000 C 
ATOM      5  N   UNL     1       2.463   7.457  18.601  0.00  0.00    +0.000 N 
ATOM      6  C   UNL     1       2.093   6.794  19.859  0.00  0.00    +0.000 C 
ATOM      7  C   UNL     1       1.937   5.269  19.687  0.00  0.00    +0.000 C 
ATOM      8  N   UNL     1       3.075   4.599  19.021  0.00  0.00    +0.000 NA
ATOM      9  C   UNL     1       3.298   5.275  17.720  0.00  0.00    +0.000 C 
ATOM     10  C   UNL     1       3.518   6.795  17.826  0.00  0.00    +0.000 C 
BRANCH   8  11
ATOM     11  C   UNL     1       4.308   4.590  19.834  0.00  0.00    +0.000 C 
BRANCH  11  12
ATOM     12  C   UNL     1       5.552   4.129  19.059  0.00  0.00    +0.000 C 
BRANCH  12  13
ATOM     13  O   UNL     1       6.613   5.081  19.220  0.00  0.00    +0.000 OA
BRANCH  13  14
ATOM     14  C   UNL     1       7.523   4.996  18.112  0.00  0.00    +0.000 C 
BRANCH  14  15
ATOM     15  C   UNL     1       6.758   5.217  16.811  0.00  0.00    +0.000 C 
BRANCH  15  16
ATOM     16  O   UNL     1       7.644   5.638  15.783  0.00  0.00    +0.000 OA
ATOM     17  H   UNL     1       7.220   6.418  15.377  0.00  0.00    +0.000 HD
ENDBRANCH  15  16
ENDBRANCH  14  15
ENDBRANCH  13  14
ENDBRANCH  12  13
ENDBRANCH  11  12
ENDBRANCH   8  11
ENDBRANCH   1   4
BRANCH   2  18
ATOM     18  C   UNL     1      -0.545  11.189  19.315  0.00  0.00    +0.000 A 
ATOM     19  C   UNL     1      -0.192  11.768  20.506  0.00  0.00    +0.000 A 
ATOM     20  N   UNL     1      -1.291  12.461  20.949  0.00  0.00    +0.000 N 
ATOM     21  N   UNL     1      -2.341  12.329  20.094  0.00  0.00    +0.000 NA
ATOM     22  C   UNL     1      -1.877  11.609  19.059  0.00  0.00    +0.000 A 
BRANCH  20  23
ATOM     23  C   UNL     1      -1.398  13.229  22.143  0.00  0.00    +0.000 A 
ATOM     24  C   UNL     1      -2.428  12.984  23.066  0.00  0.00    +0.000 A 
ATOM     25  C   UNL     1      -2.528  13.752  24.228  0.00  0.00    +0.000 A 
ATOM     26  C   UNL     1      -1.607  14.767  24.475  0.00  0.00    +0.000 A 
ATOM     27  C   UNL     1      -0.581  15.013  23.567  0.00  0.00    +0.000 A 
ATOM     28  C   UNL     1      -0.468  14.245  22.405  0.00  0.00    +0.000 A 
ENDBRANCH  20  23
BRANCH  22  29
ATOM     29  C   UNL     1      -2.710  11.350  17.880  0.00  0.00    +0.000 A 
ATOM     30  C   UNL     1      -4.090  11.584  17.909  0.00  0.00    +0.000 A 
ATOM     31  C   UNL     1      -4.837  11.315  16.775  0.00  0.00    +0.000 A 
ATOM     32  N   UNL     1      -4.313  10.828  15.633  0.00  0.00    +0.000 NA
ATOM     33  C   UNL     1      -2.983  10.588  15.629  0.00  0.00    +0.000 A 
ATOM     34  C   UNL     1      -2.152  10.831  16.711  0.00  0.00    +0.000 A 
ENDBRANCH  22  29
ENDBRANCH   2  18
TORSDOF 10
ENDMDL
MODEL 7
REMARK VINA RESULT:      -6.9      2.796      5.526
REMARK  Name = 
REMARK  10 active torsions:
REMARK  status: ('A' for Active; 'I' for Inactive)
REMARK    1  A    between atoms: C_2  and  C_3
REMARK    2  A    between atoms: C_4  and  C_5
REMARK    3  A    between atoms: N_7  and  C_8
REMARK    4  A    between atoms: C_15  and  C_16
REMARK    5  A    between atoms: N_25  and  C_26
REMARK    6  A    between atoms: C_26  and  C_27
REMARK    7  A    between atoms: C_27  and  O_28
REMARK    8  A    between atoms: O_28  and  C_29
REMARK    9  A    between atoms: C_29  and  C_30
REMARK   10  A    between atoms: C_30  and  O_31
REMARK                            x       y       z     vdW  Elec       q    Type
REMARK                         _______ _______ _______ _____ _____    ______ ____
ROOT
ATOM      1  C   UNL     1       1.482   9.582  20.083  0.00  0.00    +0.000 C 
ATOM      2  C   UNL     1       0.370  10.329  20.056  0.00  0.00    +0.000 C 
ENDROOT
BRANCH   1   4
ATOM      3  O   UNL     1       1.034   8.174  21.906  0.00  0.00    +0.000 OA
ATOM      4  C   UNL     1       1.421   8.255  20.739  0.00  0.00    +0.000 C 
ATOM      5  N   UNL     1       1.810   7.155  20.003  0.00  0.00    +0.000 N 
ATOM      6  C   UNL     1       2.308   7.167  18.621  0.00  0.00    +0.000 C 
ATOM      7  C   UNL     1       3.394   6.096  18.387  0.00  0.00    +0.000 C 
ATOM      8  N   UNL     1       3.031   4.733  18.834  0.00  0.00    +0.000 NA
ATOM      9  C   UNL     1       2.645   4.816  20.263  0.00  0.00    +0.000 C 
ATOM     10  C   UNL     1       1.523   5.828  20.558  0.00  0.00    +0.000 C 
BRANCH   8  11
ATOM     11  C   UNL     1       1.958   4.118  18.028  0.00  0.00    +0.000 C 
BRANCH  11  12
ATOM     12  C   UNL     1       2.189   2.629  17.731  0.00  0.00    +0.000 C 
BRANCH  12  13
ATOM     13  O   UNL     1       3.584   2.315  17.842  0.00  0.00    +0.000 OA
BRANCH  13  14
ATOM     14  C   UNL     1       3.777   1.254  18.790  0.00  0.00    +0.000 C 
BRANCH  14  15
ATOM     15  C   UNL     1       4.639   1.756  19.944  0.00  0.00    +0.000 C 
BRANCH  15  16
ATOM     16  O   UNL     1       5.362   2.915  19.551  0.00  0.00    +0.000 OA
ATOM     17  H   UNL     1       5.283   3.537  20.300  0.00  0.00    +0.000 HD
ENDBRANCH  15  16
ENDBRANCH  14  15
ENDBRANCH  13  14
ENDBRANCH  12  13
ENDBRANCH  11  12
ENDBRANCH   8  11
ENDBRANCH   1   4
BRANCH   2  18
ATOM     18  C   UNL     1       0.293  11.604  19.439  0.00  0.00    +0.000 A 
ATOM     19  C   UNL     1       1.340  12.487  19.396  0.00  0.00    +0.000 A 
ATOM     20  N   UNL     1       0.887  13.605  18.742  0.00  0.00    +0.000 N 
ATOM     21  N   UNL     1      -0.418  13.477  18.383  0.00  0.00    +0.000 NA
ATOM     22  C   UNL     1      -0.773  12.233  18.744  0.00  0.00    +0.000 A 
BRANCH  20  23
ATOM     23  C   UNL     1       1.625  14.788  18.451  0.00  0.00    +0.000 A 
ATOM     24  C   UNL     1       1.063  16.057  18.665  0.00  0.00    +0.000 A 
ATOM     25  C   UNL     1       1.792  17.210  18.366  0.00  0.00    +0.000 A 
ATOM     26  C   UNL     1       3.081  17.104  17.850  0.00  0.00    +0.000 A 
ATOM     27  C   UNL     1       3.647  15.850  17.640  0.00  0.00    +0.000 A 
ATOM     28  C   UNL     1       2.928  14.691  17.942  0.00  0.00    +0.000 A 
ENDBRANCH  20  23
BRANCH  22  29
ATOM     29  C   UNL     1      -2.100  11.698  18.421  0.00  0.00    +0.000 A 
ATOM     30  C   UNL     1      -2.265  10.748  17.407  0.00  0.00    +0.000 A 
ATOM     31  C   UNL     1      -3.538  10.279  17.130  0.00  0.00    +0.000 A 
ATOM     32  N   UNL     1      -4.643  10.691  17.781  0.00  0.00    +0.000 NA
ATOM     33  C   UNL     1      -4.469  11.625  18.744  0.00  0.00    +0.000 A 
ATOM     34  C   UNL     1      -3.236  12.148  19.096  0.00  0.00    +0.000 A 
ENDBRANCH  22  29
ENDBRANCH   2  18
TORSDOF 10
ENDMDL
MODEL 8
REMARK VINA RESULT:      -6.9      3.573      7.225
REMARK  Name = 
REMARK  10 active torsions:
REMARK  status: ('A' for Active; 'I' for Inactive)
REMARK    1  A    between atoms: C_2  and  C_3
REMARK    2  A    between atoms: C_4  and  C_5
REMARK    3  A    between atoms: N_7  and  C_8
REMARK    4  A    between atoms: C_15  and  C_16
REMARK    5  A    between atoms: N_25  and  C_26
REMARK    6  A    between atoms: C_26  and  C_27
REMARK    7  A    between atoms: C_27  and  O_28
REMARK    8  A    between atoms: O_28  and  C_29
REMARK    9  A    between atoms: C_29  and  C_30
REMARK   10  A    between atoms: C_30  and  O_31
REMARK                            x       y       z     vdW  Elec       q    Type
REMARK                         _______ _______ _______ _____ _____    ______ ____
ROOT
ATOM      1  C   UNL     1       4.777   5.377  19.538  0.00  0.00    +0.000 C 
ATOM      2  C   UNL     1       4.057   6.452  19.191  0.00  0.00    +0.000 C 
ENDROOT
BRANCH   1   4
ATOM      3  O   UNL     1       7.108   5.102  19.518  0.00  0.00    +0.000 OA
ATOM      4  C   UNL     1       6.071   5.147  18.853  0.00  0.00    +0.000 C 
ATOM      5  N   UNL     1       6.056   4.996  17.482  0.00  0.00    +0.000 N 
ATOM      6  C   UNL     1       4.872   5.064  16.614  0.00  0.00    +0.000 C 
ATOM      7  C   UNL     1       5.191   5.705  15.247  0.00  0.00    +0.000 C 
ATOM      8  N   UNL     1       6.360   5.129  14.548  0.00  0.00    +0.000 NA
ATOM      9  C   UNL     1       7.519   5.203  15.469  0.00  0.00    +0.000 C 
ATOM     10  C   UNL     1       7.286   4.530  16.834  0.00  0.00    +0.000 C 
BRANCH   8  11
ATOM     11  C   UNL     1       6.140   3.745  14.080  0.00  0.00    +0.000 C 
BRANCH  11  12
ATOM     12  C   UNL     1       6.314   3.574  12.563  0.00  0.00    +0.000 C 
BRANCH  12  13
ATOM     13  O   UNL     1       5.037   3.379  11.940  0.00  0.00    +0.000 OA
BRANCH  13  14
ATOM     14  C   UNL     1       5.031   2.144  11.205  0.00  0.00    +0.000 C 
BRANCH  14  15
ATOM     15  C   UNL     1       6.432   1.542  11.217  0.00  0.00    +0.000 C 
BRANCH  15  16
ATOM     16  O   UNL     1       6.360   0.124  11.161  0.00  0.00    +0.000 OA
ATOM     17  H   UNL     1       5.441  -0.100  11.401  0.00  0.00    +0.000 HD
ENDBRANCH  15  16
ENDBRANCH  14  15
ENDBRANCH  13  14
ENDBRANCH  12  13
ENDBRANCH  11  12
ENDBRANCH   8  11
ENDBRANCH   1   4
BRANCH   2  18
ATOM     18  C   UNL     1       2.816   6.794  19.788  0.00  0.00    +0.000 A 
ATOM     19  C   UNL     1       2.433   8.083  20.049  0.00  0.00    +0.000 A 
ATOM     20  N   UNL     1       1.195   8.015  20.638  0.00  0.00    +0.000 N 
ATOM     21  N   UNL     1       0.782   6.727  20.782  0.00  0.00    +0.000 NA
ATOM     22  C   UNL     1       1.734   5.974  20.205  0.00  0.00    +0.000 A 
BRANCH  20  23
ATOM     23  C   UNL     1       0.393   9.105  21.079  0.00  0.00    +0.000 A 
ATOM     24  C   UNL     1      -0.043  10.089  20.176  0.00  0.00    +0.000 A 
ATOM     25  C   UNL     1      -0.820  11.159  20.623  0.00  0.00    +0.000 A 
ATOM     26  C   UNL     1      -1.164  11.257  21.969  0.00  0.00    +0.000 A 
ATOM     27  C   UNL     1      -0.741  10.283  22.869  0.00  0.00    +0.000 A 
ATOM     28  C   UNL     1       0.032   9.205  22.430  0.00  0.00    +0.000 A 
ENDBRANCH  20  23
BRANCH  22  29
ATOM     29  C   UNL     1       1.581   4.521  20.079  0.00  0.00    +0.000 A 
ATOM     30  C   UNL     1       1.250   3.936  18.852  0.00  0.00    +0.000 A 
ATOM     31  C   UNL     1       1.106   2.561  18.783  0.00  0.00    +0.000 A 
ATOM     32  N   UNL     1       1.260   1.741  19.841  0.00  0.00    +0.000 NA
ATOM     33  C   UNL     1       1.559   2.323  21.024  0.00  0.00    +0.000 A 
ATOM     34  C   UNL     1       1.730   3.688  21.189  0.00  0.00    +0.000 A 
ENDBRANCH  22  29
ENDBRANCH   2  18
TORSDOF 10
ENDMDL
MODEL 9
REMARK VINA RESULT:      -6.9      3.362     10.785
REMARK  Name = 
REMARK  10 active torsions:
REMARK  status: ('A' for Active; 'I' for Inactive)
REMARK    1  A    between atoms: C_2  and  C_3
REMARK    2  A    between atoms: C_4  and  C_5
REMARK    3  A    between atoms: N_7  and  C_8
REMARK    4  A    between atoms: C_15  and  C_16
REMARK    5  A    between atoms: N_25  and  C_26
REMARK    6  A    between atoms: C_26  and  C_27
REMARK    7  A    between atoms: C_27  and  O_28
REMARK    8  A    between atoms: O_28  and  C_29
REMARK    9  A    between atoms: C_29  and  C_30
REMARK   10  A    between atoms: C_30  and  O_31
REMARK                            x       y       z     vdW  Elec       q    Type
REMARK                         _______ _______ _______ _____ _____    ______ ____
ROOT
ATOM      1  C   UNL     1       2.187   8.428  17.655  0.00  0.00    +0.000 C 
ATOM      2  C   UNL     1       3.462   8.017  17.675  0.00  0.00    +0.000 C 
ENDROOT
BRANCH   1   4
ATOM      3  O   UNL     1       2.043  10.771  17.667  0.00  0.00    +0.000 OA
ATOM      4  C   UNL     1       1.858   9.725  18.292  0.00  0.00    +0.000 C 
ATOM      5  N   UNL     1       1.355   9.702  19.576  0.00  0.00    +0.000 N 
ATOM      6  C   UNL     1       1.132   8.506  20.400  0.00  0.00    +0.000 C 
ATOM      7  C   UNL     1       1.412   8.770  21.894  0.00  0.00    +0.000 C 
ATOM      8  N   UNL     1       0.738   9.962  22.453  0.00  0.00    +0.000 NA
ATOM      9  C   UNL     1       1.111  11.126  21.614  0.00  0.00    +0.000 C 
ATOM     10  C   UNL     1       0.804  10.950  20.115  0.00  0.00    +0.000 C 
BRANCH   8  11
ATOM     11  C   UNL     1      -0.729   9.818  22.541  0.00  0.00    +0.000 C 
BRANCH  11  12
ATOM     12  C   UNL     1      -1.412  10.954  23.318  0.00  0.00    +0.000 C 
BRANCH  12  13
ATOM     13  O   UNL     1      -2.186  11.767  22.424  0.00  0.00    +0.000 OA
BRANCH  13  14
ATOM     14  C   UNL     1      -2.635  12.951  23.100  0.00  0.00    +0.000 C 
BRANCH  14  15
ATOM     15  C   UNL     1      -3.929  12.647  23.848  0.00  0.00    +0.000 C 
BRANCH  15  16
ATOM     16  O   UNL     1      -3.991  13.398  25.053  0.00  0.00    +0.000 OA
ATOM     17  H   UNL     1      -3.197  13.967  25.046  0.00  0.00    +0.000 HD
ENDBRANCH  15  16
ENDBRANCH  14  15
ENDBRANCH  13  14
ENDBRANCH  12  13
ENDBRANCH  11  12
ENDBRANCH   8  11
ENDBRANCH   1   4
BRANCH   2  18
ATOM     18  C   UNL     1       3.907   6.807  17.080  0.00  0.00    +0.000 A 
ATOM     19  C   UNL     1       4.742   6.762  15.995  0.00  0.00    +0.000 A 
ATOM     20  N   UNL     1       4.933   5.435  15.699  0.00  0.00    +0.000 N 
ATOM     21  N   UNL     1       4.233   4.631  16.544  0.00  0.00    +0.000 NA
ATOM     22  C   UNL     1       3.655   5.456  17.434  0.00  0.00    +0.000 A 
BRANCH  20  23
ATOM     23  C   UNL     1       5.734   4.895  14.653  0.00  0.00    +0.000 A 
ATOM     24  C   UNL     1       5.219   3.919  13.784  0.00  0.00    +0.000 A 
ATOM     25  C   UNL     1       6.018   3.390  12.769  0.00  0.00    +0.000 A 
ATOM     26  C   UNL     1       7.332   3.826  12.616  0.00  0.00    +0.000 A 
ATOM     27  C   UNL     1       7.848   4.796  13.471  0.00  0.00    +0.000 A 
ATOM     28  C   UNL     1       7.054   5.337  14.485  0.00  0.00    +0.000 A 
ENDBRANCH  20  23
BRANCH  22  29
ATOM     29  C   UNL     1       2.892   4.931  18.571  0.00  0.00    +0.000 A 
ATOM     30  C   UNL     1       1.803   4.075  18.373  0.00  0.00    +0.000 A 
ATOM     31  C   UNL     1       1.107   3.613  19.477  0.00  0.00    +0.000 A 
ATOM     32  N   UNL     1       1.413   3.946  20.746  0.00  0.00    +0.000 NA
ATOM     33  C   UNL     1       2.454   4.790  20.919  0.00  0.00    +0.000 A 
ATOM     34  C   UNL     1       3.215   5.299  19.878  0.00  0.00    +0.000 A 
ENDBRANCH  22  29
ENDBRANCH   2  18
TORSDOF 10
ENDMDL
