MODEL 1
REMARK VINA RESULT:      -5.9      0.000      0.000
REMARK  Name = 
REMARK  1 active torsions:
REMARK  status: ('A' for Active; 'I' for Inactive)
REMARK    1  A    between atoms: C_5  and  N_6
REMARK                            x       y       z     vdW  Elec       q    Type
REMARK                         _______ _______ _______ _____ _____    ______ ____
ROOT
ATOM      1  N   UNL     1       5.010   3.178  19.168  0.00  0.00    +0.000 N 
ATOM      2  C   UNL     1       5.662   4.311  18.586  0.00  0.00    +0.000 C 
ATOM      3  N   UNL     1       5.070   5.378  18.215  0.00  0.00    +0.000 NA
ATOM      4  C   UNL     1       6.006   6.297  17.609  0.00  0.00    +0.000 C 
ATOM      5  C   UNL     1       7.364   5.575  17.685  0.00  0.00    +0.000 C 
ATOM      6  N   UNL     1       7.036   4.328  18.317  0.00  0.00    +0.000 N 
ATOM      7  H   UNL     1       5.630   2.394  19.426  0.00  0.00    +0.000 HD
ATOM      8  H   UNL     1       7.702   3.563  18.509  0.00  0.00    +0.000 HD
ENDROOT
BRANCH   1  13
ATOM      9  C   UNL     1       1.427   3.016  20.338  0.00  0.00    +0.000 A 
ATOM     10  C   UNL     1       0.825   2.611  19.150  0.00  0.00    +0.000 A 
ATOM     11  N   UNL     1       1.587   2.362  18.054  0.00  0.00    +0.000 NA
ATOM     12  C   UNL     1       2.938   2.516  18.071  0.00  0.00    +0.000 A 
ATOM     13  C   UNL     1       3.597   2.951  19.234  0.00  0.00    +0.000 A 
ATOM     14  C   UNL     1       2.810   3.185  20.384  0.00  0.00    +0.000 A 
ENDBRANCH   1  13
TORSDOF 1
ENDMDL
MODEL 2
REMARK VINA RESULT:      -5.8      1.421      1.738
REMARK  Name = 
REMARK  1 active torsions:
REMARK  status: ('A' for Active; 'I' for Inactive)
REMARK    1  A    between atoms: C_5  and  N_6
REMARK                            x       y       z     vdW  Elec       q    Type
REMARK                         _______ _______ _______ _____ _____    ______ ____
ROOT
ATOM      1  N   UNL     1       4.435   3.220  18.424  0.00  0.00    +0.000 N 
ATOM      2  C   UNL     1       5.590   4.064  18.413  0.00  0.00    +0.000 C 
ATOM      3  N   UNL     1       5.916   4.861  19.355  0.00  0.00    +0.000 NA
ATOM      4  C   UNL     1       7.096   5.614  19.001  0.00  0.00    +0.000 C 
ATOM      5  C   UNL     1       7.475   5.108  17.598  0.00  0.00    +0.000 C 
ATOM      6  N   UNL     1       6.459   4.132  17.318  0.00  0.00    +0.000 N 
ATOM      7  H   UNL     1       4.316   2.623  17.590  0.00  0.00    +0.000 HD
ATOM      8  H   UNL     1       6.371   3.597  16.440  0.00  0.00    +0.000 HD
ENDROOT
BRANCH   1  13
ATOM      9  C   UNL     1       1.085   3.844  20.043  0.00  0.00    +0.000 A 
ATOM     10  C   UNL     1       1.280   3.144  21.230  0.00  0.00    +0.000 A 
ATOM     11  N   UNL     1       2.476   2.554  21.481  0.00  0.00    +0.000 NA
ATOM     12  C   UNL     1       3.501   2.605  20.589  0.00  0.00    +0.000 A 
ATOM     13  C   UNL     1       3.352   3.272  19.360  0.00  0.00    +0.000 A 
ATOM     14  C   UNL     1       2.117   3.911  19.108  0.00  0.00    +0.000 A 
ENDBRANCH   1  13
TORSDOF 1
ENDMDL
MODEL 3
REMARK VINA RESULT:      -5.7      1.732      5.252
REMARK  Name = 
REMARK  1 active torsions:
REMARK  status: ('A' for Active; 'I' for Inactive)
REMARK    1  A    between atoms: C_5  and  N_6
REMARK                            x       y       z     vdW  Elec       q    Type
REMARK                         _______ _______ _______ _____ _____    ______ ____
ROOT
ATOM      1  N   UNL     1       5.799   3.929  18.585  0.00  0.00    +0.000 N 
ATOM      2  C   UNL     1       4.584   3.730  19.314  0.00  0.00    +0.000 C 
ATOM      3  N   UNL     1       3.766   4.658  19.628  0.00  0.00    +0.000 NA
ATOM      4  C   UNL     1       2.677   4.132  20.418  0.00  0.00    +0.000 C 
ATOM      5  C   UNL     1       2.973   2.626  20.536  0.00  0.00    +0.000 C 
ATOM      6  N   UNL     1       4.201   2.477  19.806  0.00  0.00    +0.000 N 
ATOM      7  H   UNL     1       6.348   3.074  18.399  0.00  0.00    +0.000 HD
ATOM      8  H   UNL     1       4.725   1.595  19.693  0.00  0.00    +0.000 HD
ENDROOT
BRANCH   1  13
ATOM      9  C   UNL     1       8.076   6.937  18.588  0.00  0.00    +0.000 A 
ATOM     10  C   UNL     1       7.597   7.577  17.448  0.00  0.00    +0.000 A 
ATOM     11  N   UNL     1       6.548   7.051  16.765  0.00  0.00    +0.000 NA
ATOM     12  C   UNL     1       5.951   5.892  17.151  0.00  0.00    +0.000 A 
ATOM     13  C   UNL     1       6.411   5.187  18.278  0.00  0.00    +0.000 A 
ATOM     14  C   UNL     1       7.485   5.745  19.006  0.00  0.00    +0.000 A 
ENDBRANCH   1  13
TORSDOF 1
ENDMDL
MODEL 4
REMARK VINA RESULT:      -5.6      1.310      1.414
REMARK  Name = 
REMARK  1 active torsions:
REMARK  status: ('A' for Active; 'I' for Inactive)
REMARK    1  A    between atoms: C_5  and  N_6
REMARK                            x       y       z     vdW  Elec       q    Type
REMARK                         _______ _______ _______ _____ _____    ______ ____
ROOT
ATOM      1  N   UNL     1       4.848   3.151  17.402  0.00  0.00    +0.000 N 
ATOM      2  C   UNL     1       5.809   4.030  17.993  0.00  0.00    +0.000 C 
ATOM      3  N   UNL     1       5.669   4.605  19.124  0.00  0.00    +0.000 NA
ATOM      4  C   UNL     1       6.788   5.476  19.395  0.00  0.00    +0.000 C 
ATOM      5  C   UNL     1       7.706   5.326  18.169  0.00  0.00    +0.000 C 
ATOM      6  N   UNL     1       6.994   4.392  17.341  0.00  0.00    +0.000 N 
ATOM      7  H   UNL     1       5.113   2.757  16.485  0.00  0.00    +0.000 HD
ATOM      8  H   UNL     1       7.296   4.069  16.409  0.00  0.00    +0.000 HD
ENDROOT
BRANCH   1  13
ATOM      9  C   UNL     1       1.820   1.893  19.268  0.00  0.00    +0.000 A 
ATOM     10  C   UNL     1       0.859   2.745  18.730  0.00  0.00    +0.000 A 
ATOM     11  N   UNL     1       1.207   3.639  17.771  0.00  0.00    +0.000 NA
ATOM     12  C   UNL     1       2.487   3.748  17.323  0.00  0.00    +0.000 A 
ATOM     13  C   UNL     1       3.504   2.933  17.851  0.00  0.00    +0.000 A 
ATOM     14  C   UNL     1       3.140   1.983  18.831  0.00  0.00    +0.000 A 
ENDBRANCH   1  13
TORSDOF 1
ENDMDL
MODEL 5
REMARK VINA RESULT:      -5.6      1.748      2.101
REMARK  Name = 
REMARK  1 active torsions:
REMARK  status: ('A' for Active; 'I' for Inactive)
REMARK    1  A    between atoms: C_5  and  N_6
REMARK                            x       y       z     vdW  Elec       q    Type
REMARK                         _______ _______ _______ _____ _____    ______ ____
ROOT
ATOM      1  N   UNL     1       4.282   2.702  18.447  0.00  0.00    +0.000 N 
ATOM      2  C   UNL     1       4.699   3.747  17.565  0.00  0.00    +0.000 C 
ATOM      3  N   UNL     1       4.364   4.973  17.683  0.00  0.00    +0.000 NA
ATOM      4  C   UNL     1       4.899   5.755  16.592  0.00  0.00    +0.000 C 
ATOM      5  C   UNL     1       5.678   4.743  15.732  0.00  0.00    +0.000 C 
ATOM      6  N   UNL     1       5.486   3.504  16.433  0.00  0.00    +0.000 N 
ATOM      7  H   UNL     1       4.647   1.762  18.224  0.00  0.00    +0.000 HD
ATOM      8  H   UNL     1       5.846   2.585  16.130  0.00  0.00    +0.000 HD
ENDROOT
BRANCH   1  13
ATOM      9  C   UNL     1       0.975   3.027  20.234  0.00  0.00    +0.000 A 
ATOM     10  C   UNL     1       1.404   2.785  21.537  0.00  0.00    +0.000 A 
ATOM     11  N   UNL     1       2.721   2.580  21.790  0.00  0.00    +0.000 NA
ATOM     12  C   UNL     1       3.651   2.584  20.798  0.00  0.00    +0.000 A 
ATOM     13  C   UNL     1       3.272   2.794  19.459  0.00  0.00    +0.000 A 
ATOM     14  C   UNL     1       1.905   3.034  19.195  0.00  0.00    +0.000 A 
ENDBRANCH   1  13
TORSDOF 1
ENDMDL
MODEL 6
REMARK VINA RESULT:      -5.6      1.319      1.401
REMARK  Name = 
REMARK  1 active torsions:
REMARK  status: ('A' for Active; 'I' for Inactive)
REMARK    1  A    between atoms: C_5  and  N_6
REMARK                            x       y       z     vdW  Elec       q    Type
REMARK                         _______ _______ _______ _____ _____    ______ ____
ROOT
ATOM      1  N   UNL     1       4.511   3.179  18.358  0.00  0.00    +0.000 N 
ATOM      2  C   UNL     1       5.640   4.056  18.401  0.00  0.00    +0.000 C 
ATOM      3  N   UNL     1       5.906   4.850  19.364  0.00  0.00    +0.000 NA
ATOM      4  C   UNL     1       7.076   5.642  19.063  0.00  0.00    +0.000 C 
ATOM      5  C   UNL     1       7.522   5.165  17.669  0.00  0.00    +0.000 C 
ATOM      6  N   UNL     1       6.546   4.164  17.339  0.00  0.00    +0.000 N 
ATOM      7  H   UNL     1       4.440   2.590  17.513  0.00  0.00    +0.000 HD
ATOM      8  H   UNL     1       6.507   3.638  16.452  0.00  0.00    +0.000 HD
ENDROOT
BRANCH   1  13
ATOM      9  C   UNL     1       2.293   2.725  21.376  0.00  0.00    +0.000 A 
ATOM     10  C   UNL     1       1.177   3.433  20.938  0.00  0.00    +0.000 A 
ATOM     11  N   UNL     1       1.163   3.975  19.694  0.00  0.00    +0.000 NA
ATOM     12  C   UNL     1       2.227   3.866  18.854  0.00  0.00    +0.000 A 
ATOM     13  C   UNL     1       3.392   3.188  19.253  0.00  0.00    +0.000 A 
ATOM     14  C   UNL     1       3.400   2.599  20.537  0.00  0.00    +0.000 A 
ENDBRANCH   1  13
TORSDOF 1
ENDMDL
MODEL 7
REMARK VINA RESULT:      -5.6      0.907      1.403
REMARK  Name = 
REMARK  1 active torsions:
REMARK  status: ('A' for Active; 'I' for Inactive)
REMARK    1  A    between atoms: C_5  and  N_6
REMARK                            x       y       z     vdW  Elec       q    Type
REMARK                         _______ _______ _______ _____ _____    ______ ____
ROOT
ATOM      1  N   UNL     1       4.958   3.286  19.153  0.00  0.00    +0.000 N 
ATOM      2  C   UNL     1       5.664   4.370  18.544  0.00  0.00    +0.000 C 
ATOM      3  N   UNL     1       5.135   5.478  18.198  0.00  0.00    +0.000 NA
ATOM      4  C   UNL     1       6.107   6.328  17.552  0.00  0.00    +0.000 C 
ATOM      5  C   UNL     1       7.412   5.511  17.568  0.00  0.00    +0.000 C 
ATOM      6  N   UNL     1       7.022   4.289  18.215  0.00  0.00    +0.000 N 
ATOM      7  H   UNL     1       5.530   2.459  19.385  0.00  0.00    +0.000 HD
ATOM      8  H   UNL     1       7.639   3.478  18.378  0.00  0.00    +0.000 HD
ENDROOT
BRANCH   1  13
ATOM      9  C   UNL     1       1.353   2.309  18.622  0.00  0.00    +0.000 A 
ATOM     10  C   UNL     1       0.799   2.879  19.764  0.00  0.00    +0.000 A 
ATOM     11  N   UNL     1       1.583   3.585  20.618  0.00  0.00    +0.000 NA
ATOM     12  C   UNL     1       2.916   3.740  20.404  0.00  0.00    +0.000 A 
ATOM     13  C   UNL     1       3.536   3.162  19.282  0.00  0.00    +0.000 A 
ATOM     14  C   UNL     1       2.718   2.449  18.377  0.00  0.00    +0.000 A 
ENDBRANCH   1  13
TORSDOF 1
ENDMDL
MODEL 8
REMARK VINA RESULT:      -5.6      1.341      1.558
REMARK  Name = 
REMARK  1 active torsions:
REMARK  status: ('A' for Active; 'I' for Inactive)
REMARK    1  A    between atoms: C_5  and  N_6
REMARK                            x       y       z     vdW  Elec       q    Type
REMARK                         _______ _______ _______ _____ _____    ______ ____
ROOT
ATOM      1  N   UNL     1       4.833   3.257  17.510  0.00  0.00    +0.000 N 
ATOM      2  C   UNL     1       5.850   4.096  18.065  0.00  0.00    +0.000 C 
ATOM      3  N   UNL     1       5.760   4.701  19.186  0.00  0.00    +0.000 NA
ATOM      4  C   UNL     1       6.929   5.517  19.420  0.00  0.00    +0.000 C 
ATOM      5  C   UNL     1       7.816   5.292  18.182  0.00  0.00    +0.000 C 
ATOM      6  N   UNL     1       7.041   4.380  17.387  0.00  0.00    +0.000 N 
ATOM      7  H   UNL     1       5.061   2.830  16.598  0.00  0.00    +0.000 HD
ATOM      8  H   UNL     1       7.310   4.022  16.457  0.00  0.00    +0.000 HD
ENDROOT
BRANCH   1  13
ATOM      9  C   UNL     1       1.144   3.767  18.113  0.00  0.00    +0.000 A 
ATOM     10  C   UNL     1       0.883   2.623  18.862  0.00  0.00    +0.000 A 
ATOM     11  N   UNL     1       1.893   1.774  19.179  0.00  0.00    +0.000 NA
ATOM     12  C   UNL     1       3.171   1.997  18.768  0.00  0.00    +0.000 A 
ATOM     13  C   UNL     1       3.488   3.121  17.985  0.00  0.00    +0.000 A 
ATOM     14  C   UNL     1       2.443   4.020  17.676  0.00  0.00    +0.000 A 
ENDBRANCH   1  13
TORSDOF 1
ENDMDL
MODEL 9
REMARK VINA RESULT:      -5.6      1.787      2.063
REMARK  Name = 
REMARK  1 active torsions:
REMARK  status: ('A' for Active; 'I' for Inactive)
REMARK    1  A    between atoms: C_5  and  N_6
REMARK                            x       y       z     vdW  Elec       q    Type
REMARK                         _______ _______ _______ _____ _____    ______ ____
ROOT
ATOM      1  N   UNL     1       4.468   2.850  17.768  0.00  0.00    +0.000 N 
ATOM      2  C   UNL     1       4.989   3.852  16.890  0.00  0.00    +0.000 C 
ATOM      3  N   UNL     1       4.563   5.053  16.825  0.00  0.00    +0.000 NA
ATOM      4  C   UNL     1       5.257   5.786  15.792  0.00  0.00    +0.000 C 
ATOM      5  C   UNL     1       6.255   4.774  15.200  0.00  0.00    +0.000 C 
ATOM      6  N   UNL     1       6.002   3.583  15.962  0.00  0.00    +0.000 N 
ATOM      7  H   UNL     1       4.928   1.927  17.709  0.00  0.00    +0.000 HD
ATOM      8  H   UNL     1       6.471   2.675  15.823  0.00  0.00    +0.000 HD
ENDROOT
BRANCH   1  13
ATOM      9  C   UNL     1       0.888   2.624  18.936  0.00  0.00    +0.000 A 
ATOM     10  C   UNL     1       1.061   3.030  20.256  0.00  0.00    +0.000 A 
ATOM     11  N   UNL     1       2.290   3.401  20.696  0.00  0.00    +0.000 NA
ATOM     12  C   UNL     1       3.380   3.371  19.885  0.00  0.00    +0.000 A 
ATOM     13  C   UNL     1       3.271   2.942  18.550  0.00  0.00    +0.000 A 
ATOM     14  C   UNL     1       1.988   2.580  18.081  0.00  0.00    +0.000 A 
ENDBRANCH   1  13
TORSDOF 1
ENDMDL
