MODEL 1
REMARK VINA RESULT:      -8.0      0.000      0.000
REMARK  Name = 
REMARK  5 active torsions:
REMARK  status: ('A' for Active; 'I' for Inactive)
REMARK    1  A    between atoms: C_1  and  C_2
REMARK    2  A    between atoms: C_8  and  C_10
REMARK    3  A    between atoms: C_13  and  S_14
REMARK    4  A    between atoms: S_14  and  N_17
REMARK    5  A    between atoms: N_17  and  C_18
REMARK                            x       y       z     vdW  Elec       q    Type
REMARK                         _______ _______ _______ _____ _____    ______ ____
ROOT
ATOM      1  C   UNL     1       2.219   7.370  18.558  0.00  0.00    +0.000 A 
ATOM      2  C   UNL     1       1.872   6.364  17.649  0.00  0.00    +0.000 A 
ATOM      3  C   UNL     1       2.159   5.030  17.919  0.00  0.00    +0.000 A 
ATOM      4  C   UNL     1       2.911   4.703  19.049  0.00  0.00    +0.000 A 
ATOM      5  C   UNL     1       3.310   5.699  19.951  0.00  0.00    +0.000 A 
ATOM      6  C   UNL     1       2.968   7.035  19.697  0.00  0.00    +0.000 A 
ENDROOT
BRANCH   1  14
ATOM      7  C   UNL     1      -1.427  11.229  23.175  0.00  0.00    +0.000 C 
ATOM      8  C   UNL     1      -1.429  11.638  21.724  0.00  0.00    +0.000 C 
ATOM      9  O   UNL     1      -1.877  12.734  21.389  0.00  0.00    +0.000 OA
ATOM     10  N   UNL     1      -0.865  10.754  20.821  0.00  0.00    +0.000 N 
ATOM     11  C   UNL     1      -0.693  11.152  19.414  0.00  0.00    +0.000 C 
ATOM     12  C   UNL     1       0.755  10.909  18.939  0.00  0.00    +0.000 C 
ATOM     13  N   UNL     1       1.203   9.546  19.268  0.00  0.00    +0.000 N 
ATOM     14  C   UNL     1       1.871   8.798  18.297  0.00  0.00    +0.000 C 
ATOM     15  O   UNL     1       2.178   9.262  17.199  0.00  0.00    +0.000 OA
ATOM     16  C   UNL     1       1.059   9.223  20.697  0.00  0.00    +0.000 C 
ATOM     17  C   UNL     1      -0.402   9.398  21.133  0.00  0.00    +0.000 C 
ENDBRANCH   1  14
BRANCH   4  18
ATOM     18  S   UNL     1       3.358   2.995  19.294  0.00  0.00    +0.000 S 
ATOM     19  O   UNL     1       3.156   2.680  20.699  0.00  0.00    +0.000 OA
ATOM     20  O   UNL     1       2.700   2.233  18.254  0.00  0.00    +0.000 OA
BRANCH  18  21
ATOM     21  N   UNL     1       5.012   2.947  18.941  0.00  0.00    +0.000 N 
ATOM     22  H   UNL     1       5.386   2.000  18.909  0.00  0.00    +0.000 HD
BRANCH  21  23
ATOM     23  C   UNL     1       5.523   3.886  17.997  0.00  0.00    +0.000 A 
ATOM     24  C   UNL     1       5.242   3.682  16.647  0.00  0.00    +0.000 A 
ATOM     25  C   UNL     1       5.795   4.530  15.684  0.00  0.00    +0.000 A 
ATOM     26  C   UNL     1       6.643   5.570  16.068  0.00  0.00    +0.000 A 
ATOM     27  C   UNL     1       6.919   5.783  17.419  0.00  0.00    +0.000 A 
ATOM     28  C   UNL     1       6.345   4.950  18.375  0.00  0.00    +0.000 A 
ATOM     29  F   UNL     1       6.611   5.169  19.672  0.00  0.00    +0.000 F 
ENDBRANCH  21  23
ENDBRANCH  18  21
ENDBRANCH   4  18
TORSDOF 4
ENDMDL
MODEL 2
REMARK VINA RESULT:      -7.9      0.896      1.285
REMARK  Name = 
REMARK  5 active torsions:
REMARK  status: ('A' for Active; 'I' for Inactive)
REMARK    1  A    between atoms: C_1  and  C_2
REMARK    2  A    between atoms: C_8  and  C_10
REMARK    3  A    between atoms: C_13  and  S_14
REMARK    4  A    between atoms: S_14  and  N_17
REMARK    5  A    between atoms: N_17  and  C_18
REMARK                            x       y       z     vdW  Elec       q    Type
REMARK                         _______ _______ _______ _____ _____    ______ ____
ROOT
ATOM      1  C   UNL     1       2.262   7.342  18.556  0.00  0.00    +0.000 A 
ATOM      2  C   UNL     1       1.989   6.331  17.628  0.00  0.00    +0.000 A 
ATOM      3  C   UNL     1       2.295   5.004  17.909  0.00  0.00    +0.000 A 
ATOM      4  C   UNL     1       2.993   4.691  19.077  0.00  0.00    +0.000 A 
ATOM      5  C   UNL     1       3.318   5.693  20.001  0.00  0.00    +0.000 A 
ATOM      6  C   UNL     1       2.957   7.022  19.733  0.00  0.00    +0.000 A 
ENDROOT
BRANCH   1  14
ATOM      7  C   UNL     1      -1.390  11.214  23.157  0.00  0.00    +0.000 C 
ATOM      8  C   UNL     1      -1.410  11.604  21.700  0.00  0.00    +0.000 C 
ATOM      9  O   UNL     1      -1.876  12.690  21.356  0.00  0.00    +0.000 OA
ATOM     10  N   UNL     1      -0.844  10.716  20.804  0.00  0.00    +0.000 N 
ATOM     11  C   UNL     1      -0.690  11.098  19.390  0.00  0.00    +0.000 C 
ATOM     12  C   UNL     1       0.756  10.867  18.905  0.00  0.00    +0.000 C 
ATOM     13  N   UNL     1       1.225   9.514  19.247  0.00  0.00    +0.000 N 
ATOM     14  C   UNL     1       1.893   8.762  18.280  0.00  0.00    +0.000 C 
ATOM     15  O   UNL     1       2.185   9.215  17.173  0.00  0.00    +0.000 OA
ATOM     16  C   UNL     1       1.099   9.207  20.682  0.00  0.00    +0.000 C 
ATOM     17  C   UNL     1      -0.360   9.370  21.129  0.00  0.00    +0.000 C 
ENDBRANCH   1  14
BRANCH   4  18
ATOM     18  S   UNL     1       3.468   2.994  19.343  0.00  0.00    +0.000 S 
ATOM     19  O   UNL     1       3.299   2.701  20.756  0.00  0.00    +0.000 OA
ATOM     20  O   UNL     1       2.799   2.205  18.330  0.00  0.00    +0.000 OA
BRANCH  18  21
ATOM     21  N   UNL     1       5.115   2.961  18.956  0.00  0.00    +0.000 N 
ATOM     22  H   UNL     1       5.444   2.036  18.686  0.00  0.00    +0.000 HD
BRANCH  21  23
ATOM     23  C   UNL     1       5.662   4.080  18.261  0.00  0.00    +0.000 A 
ATOM     24  C   UNL     1       6.412   5.004  18.986  0.00  0.00    +0.000 A 
ATOM     25  C   UNL     1       6.893   6.157  18.360  0.00  0.00    +0.000 A 
ATOM     26  C   UNL     1       6.608   6.396  17.014  0.00  0.00    +0.000 A 
ATOM     27  C   UNL     1       5.864   5.469  16.283  0.00  0.00    +0.000 A 
ATOM     28  C   UNL     1       5.410   4.310  16.906  0.00  0.00    +0.000 A 
ATOM     29  F   UNL     1       4.703   3.422  16.192  0.00  0.00    +0.000 F 
ENDBRANCH  21  23
ENDBRANCH  18  21
ENDBRANCH   4  18
TORSDOF 4
ENDMDL
MODEL 3
REMARK VINA RESULT:      -7.9      2.882      4.316
REMARK  Name = 
REMARK  5 active torsions:
REMARK  status: ('A' for Active; 'I' for Inactive)
REMARK    1  A    between atoms: C_1  and  C_2
REMARK    2  A    between atoms: C_8  and  C_10
REMARK    3  A    between atoms: C_13  and  S_14
REMARK    4  A    between atoms: S_14  and  N_17
REMARK    5  A    between atoms: N_17  and  C_18
REMARK                            x       y       z     vdW  Elec       q    Type
REMARK                         _______ _______ _______ _____ _____    ______ ____
ROOT
ATOM      1  C   UNL     1       1.281   9.072  19.124  0.00  0.00    +0.000 A 
ATOM      2  C   UNL     1       1.869   8.965  17.859  0.00  0.00    +0.000 A 
ATOM      3  C   UNL     1       2.728   7.913  17.559  0.00  0.00    +0.000 A 
ATOM      4  C   UNL     1       3.107   7.025  18.568  0.00  0.00    +0.000 A 
ATOM      5  C   UNL     1       2.567   7.139  19.856  0.00  0.00    +0.000 A 
ATOM      6  C   UNL     1       1.658   8.171  20.133  0.00  0.00    +0.000 A 
ENDROOT
BRANCH   1  14
ATOM      7  C   UNL     1       2.972  15.854  18.330  0.00  0.00    +0.000 C 
ATOM      8  C   UNL     1       1.863  15.489  19.283  0.00  0.00    +0.000 C 
ATOM      9  O   UNL     1       1.132  16.362  19.747  0.00  0.00    +0.000 OA
ATOM     10  N   UNL     1       1.689  14.144  19.559  0.00  0.00    +0.000 N 
ATOM     11  C   UNL     1       0.533  13.702  20.356  0.00  0.00    +0.000 C 
ATOM     12  C   UNL     1      -0.237  12.571  19.643  0.00  0.00    +0.000 C 
ATOM     13  N   UNL     1       0.674  11.500  19.205  0.00  0.00    +0.000 N 
ATOM     14  C   UNL     1       0.320  10.171  19.438  0.00  0.00    +0.000 C 
ATOM     15  O   UNL     1      -0.765   9.849  19.922  0.00  0.00    +0.000 OA
ATOM     16  C   UNL     1       1.778  11.992  18.365  0.00  0.00    +0.000 C 
ATOM     17  C   UNL     1       2.577  13.063  19.120  0.00  0.00    +0.000 C 
ENDBRANCH   1  14
BRANCH   4  18
ATOM     18  S   UNL     1       4.301   5.763  18.170  0.00  0.00    +0.000 S 
ATOM     19  O   UNL     1       4.949   6.141  16.925  0.00  0.00    +0.000 OA
ATOM     20  O   UNL     1       5.072   5.518  19.371  0.00  0.00    +0.000 OA
BRANCH  18  21
ATOM     21  N   UNL     1       3.366   4.375  17.917  0.00  0.00    +0.000 N 
ATOM     22  H   UNL     1       3.767   3.744  17.225  0.00  0.00    +0.000 HD
BRANCH  21  23
ATOM     23  C   UNL     1       2.721   3.787  19.046  0.00  0.00    +0.000 A 
ATOM     24  C   UNL     1       1.373   4.071  19.256  0.00  0.00    +0.000 A 
ATOM     25  C   UNL     1       0.728   3.585  20.395  0.00  0.00    +0.000 A 
ATOM     26  C   UNL     1       1.434   2.830  21.334  0.00  0.00    +0.000 A 
ATOM     27  C   UNL     1       2.782   2.537  21.123  0.00  0.00    +0.000 A 
ATOM     28  C   UNL     1       3.412   3.003  19.973  0.00  0.00    +0.000 A 
ATOM     29  F   UNL     1       4.705   2.708  19.775  0.00  0.00    +0.000 F 
ENDBRANCH  21  23
ENDBRANCH  18  21
ENDBRANCH   4  18
TORSDOF 4
ENDMDL
MODEL 4
REMARK VINA RESULT:      -7.8      3.066      4.039
REMARK  Name = 
REMARK  5 active torsions:
REMARK  status: ('A' for Active; 'I' for Inactive)
REMARK    1  A    between atoms: C_1  and  C_2
REMARK    2  A    between atoms: C_8  and  C_10
REMARK    3  A    between atoms: C_13  and  S_14
REMARK    4  A    between atoms: S_14  and  N_17
REMARK    5  A    between atoms: N_17  and  C_18
REMARK                            x       y       z     vdW  Elec       q    Type
REMARK                         _______ _______ _______ _____ _____    ______ ____
ROOT
ATOM      1  C   UNL     1       0.866   9.828  19.061  0.00  0.00    +0.000 A 
ATOM      2  C   UNL     1       0.977   9.139  20.274  0.00  0.00    +0.000 A 
ATOM      3  C   UNL     1       1.720   7.966  20.361  0.00  0.00    +0.000 A 
ATOM      4  C   UNL     1       2.257   7.404  19.201  0.00  0.00    +0.000 A 
ATOM      5  C   UNL     1       2.119   8.052  17.967  0.00  0.00    +0.000 A 
ATOM      6  C   UNL     1       1.415   9.263  17.899  0.00  0.00    +0.000 A 
ENDROOT
BRANCH   1  14
ATOM      7  C   UNL     1       4.109  16.015  18.222  0.00  0.00    +0.000 C 
ATOM      8  C   UNL     1       2.726  15.995  18.823  0.00  0.00    +0.000 C 
ATOM      9  O   UNL     1       2.097  17.042  18.965  0.00  0.00    +0.000 OA
ATOM     10  N   UNL     1       2.201  14.757  19.149  0.00  0.00    +0.000 N 
ATOM     11  C   UNL     1       0.802  14.648  19.595  0.00  0.00    +0.000 C 
ATOM     12  C   UNL     1       0.041  13.578  18.785  0.00  0.00    +0.000 C 
ATOM     13  N   UNL     1       0.789  12.311  18.739  0.00  0.00    +0.000 N 
ATOM     14  C   UNL     1       0.111  11.113  18.971  0.00  0.00    +0.000 C 
ATOM     15  O   UNL     1      -1.108  11.063  19.129  0.00  0.00    +0.000 OA
ATOM     16  C   UNL     1       2.163  12.471  18.233  0.00  0.00    +0.000 C 
ATOM     17  C   UNL     1       2.927  13.484  19.097  0.00  0.00    +0.000 C 
ENDBRANCH   1  14
BRANCH   4  18
ATOM     18  S   UNL     1       3.100   5.839  19.340  0.00  0.00    +0.000 S 
ATOM     19  O   UNL     1       4.498   6.112  19.627  0.00  0.00    +0.000 OA
ATOM     20  O   UNL     1       2.304   5.007  20.217  0.00  0.00    +0.000 OA
BRANCH  18  21
ATOM     21  N   UNL     1       2.966   5.161  17.795  0.00  0.00    +0.000 N 
ATOM     22  H   UNL     1       2.120   5.446  17.305  0.00  0.00    +0.000 HD
BRANCH  21  23
ATOM     23  C   UNL     1       4.157   5.019  17.021  0.00  0.00    +0.000 A 
ATOM     24  C   UNL     1       4.718   6.164  16.460  0.00  0.00    +0.000 A 
ATOM     25  C   UNL     1       5.834   6.058  15.626  0.00  0.00    +0.000 A 
ATOM     26  C   UNL     1       6.377   4.804  15.338  0.00  0.00    +0.000 A 
ATOM     27  C   UNL     1       5.823   3.656  15.905  0.00  0.00    +0.000 A 
ATOM     28  C   UNL     1       4.727   3.772  16.755  0.00  0.00    +0.000 A 
ATOM     29  F   UNL     1       4.208   2.662  17.301  0.00  0.00    +0.000 F 
ENDBRANCH  21  23
ENDBRANCH  18  21
ENDBRANCH   4  18
TORSDOF 4
ENDMDL
MODEL 5
REMARK VINA RESULT:      -7.7      3.300      8.842
REMARK  Name = 
REMARK  5 active torsions:
REMARK  status: ('A' for Active; 'I' for Inactive)
REMARK    1  A    between atoms: C_1  and  C_2
REMARK    2  A    between atoms: C_8  and  C_10
REMARK    3  A    between atoms: C_13  and  S_14
REMARK    4  A    between atoms: S_14  and  N_17
REMARK    5  A    between atoms: N_17  and  C_18
REMARK                            x       y       z     vdW  Elec       q    Type
REMARK                         _______ _______ _______ _____ _____    ______ ____
ROOT
ATOM      1  C   UNL     1       2.056   7.206  19.765  0.00  0.00    +0.000 A 
ATOM      2  C   UNL     1       2.027   8.044  18.644  0.00  0.00    +0.000 A 
ATOM      3  C   UNL     1       1.592   9.360  18.750  0.00  0.00    +0.000 A 
ATOM      4  C   UNL     1       1.061   9.815  19.959  0.00  0.00    +0.000 A 
ATOM      5  C   UNL     1       1.037   8.980  21.083  0.00  0.00    +0.000 A 
ATOM      6  C   UNL     1       1.529   7.670  20.981  0.00  0.00    +0.000 A 
ENDROOT
BRANCH   1  14
ATOM      7  C   UNL     1       6.951   5.332  15.072  0.00  0.00    +0.000 C 
ATOM      8  C   UNL     1       6.038   4.271  15.633  0.00  0.00    +0.000 C 
ATOM      9  O   UNL     1       6.280   3.081  15.440  0.00  0.00    +0.000 OA
ATOM     10  N   UNL     1       4.971   4.703  16.400  0.00  0.00    +0.000 N 
ATOM     11  C   UNL     1       4.130   3.721  17.106  0.00  0.00    +0.000 C 
ATOM     12  C   UNL     1       3.982   4.084  18.598  0.00  0.00    +0.000 C 
ATOM     13  N   UNL     1       3.586   5.492  18.768  0.00  0.00    +0.000 N 
ATOM     14  C   UNL     1       2.568   5.807  19.669  0.00  0.00    +0.000 C 
ATOM     15  O   UNL     1       2.041   4.963  20.394  0.00  0.00    +0.000 OA
ATOM     16  C   UNL     1       4.493   6.431  18.088  0.00  0.00    +0.000 C 
ATOM     17  C   UNL     1       4.569   6.100  16.591  0.00  0.00    +0.000 C 
ENDBRANCH   1  14
BRANCH   4  18
ATOM     18  S   UNL     1       0.406  11.471  20.018  0.00  0.00    +0.000 S 
ATOM     19  O   UNL     1      -0.683  11.485  20.980  0.00  0.00    +0.000 OA
ATOM     20  O   UNL     1       1.535  12.368  20.152  0.00  0.00    +0.000 OA
BRANCH  18  21
ATOM     21  N   UNL     1      -0.216  11.724  18.464  0.00  0.00    +0.000 N 
ATOM     22  H   UNL     1       0.468  11.558  17.728  0.00  0.00    +0.000 HD
BRANCH  21  23
ATOM     23  C   UNL     1      -1.563  11.329  18.210  0.00  0.00    +0.000 A 
ATOM     24  C   UNL     1      -2.590  12.119  18.724  0.00  0.00    +0.000 A 
ATOM     25  C   UNL     1      -3.920  11.721  18.570  0.00  0.00    +0.000 A 
ATOM     26  C   UNL     1      -4.223  10.523  17.919  0.00  0.00    +0.000 A 
ATOM     27  C   UNL     1      -3.199   9.733  17.396  0.00  0.00    +0.000 A 
ATOM     28  C   UNL     1      -1.877  10.149  17.531  0.00  0.00    +0.000 A 
ATOM     29  F   UNL     1      -0.900   9.387  17.016  0.00  0.00    +0.000 F 
ENDBRANCH  21  23
ENDBRANCH  18  21
ENDBRANCH   4  18
TORSDOF 4
ENDMDL
MODEL 6
REMARK VINA RESULT:      -7.7      2.997      4.380
REMARK  Name = 
REMARK  5 active torsions:
REMARK  status: ('A' for Active; 'I' for Inactive)
REMARK    1  A    between atoms: C_1  and  C_2
REMARK    2  A    between atoms: C_8  and  C_10
REMARK    3  A    between atoms: C_13  and  S_14
REMARK    4  A    between atoms: S_14  and  N_17
REMARK    5  A    between atoms: N_17  and  C_18
REMARK                            x       y       z     vdW  Elec       q    Type
REMARK                         _______ _______ _______ _____ _____    ______ ____
ROOT
ATOM      1  C   UNL     1       1.426   8.877  19.102  0.00  0.00    +0.000 A 
ATOM      2  C   UNL     1       2.017   8.857  17.834  0.00  0.00    +0.000 A 
ATOM      3  C   UNL     1       2.907   7.849  17.479  0.00  0.00    +0.000 A 
ATOM      4  C   UNL     1       3.310   6.918  18.438  0.00  0.00    +0.000 A 
ATOM      5  C   UNL     1       2.767   6.945  19.729  0.00  0.00    +0.000 A 
ATOM      6  C   UNL     1       1.829   7.934  20.061  0.00  0.00    +0.000 A 
ENDROOT
BRANCH   1  14
ATOM      7  C   UNL     1       2.735  15.732  18.211  0.00  0.00    +0.000 C 
ATOM      8  C   UNL     1       1.705  15.315  19.230  0.00  0.00    +0.000 C 
ATOM      9  O   UNL     1       0.961  16.153  19.737  0.00  0.00    +0.000 OA
ATOM     10  N   UNL     1       1.613  13.964  19.514  0.00  0.00    +0.000 N 
ATOM     11  C   UNL     1       0.530  13.469  20.379  0.00  0.00    +0.000 C 
ATOM     12  C   UNL     1      -0.225  12.300  19.714  0.00  0.00    +0.000 C 
ATOM     13  N   UNL     1       0.708  11.273  19.221  0.00  0.00    +0.000 N 
ATOM     14  C   UNL     1       0.434   9.929  19.474  0.00  0.00    +0.000 C 
ATOM     15  O   UNL     1      -0.603   9.556  20.023  0.00  0.00    +0.000 OA
ATOM     16  C   UNL     1       1.734  11.816  18.316  0.00  0.00    +0.000 C 
ATOM     17  C   UNL     1       2.525  12.926  19.022  0.00  0.00    +0.000 C 
ENDBRANCH   1  14
BRANCH   4  18
ATOM     18  S   UNL     1       4.541   5.715  17.973  0.00  0.00    +0.000 S 
ATOM     19  O   UNL     1       5.111   6.129  16.702  0.00  0.00    +0.000 OA
ATOM     20  O   UNL     1       5.379   5.497  19.134  0.00  0.00    +0.000 OA
BRANCH  18  21
ATOM     21  N   UNL     1       3.659   4.287  17.753  0.00  0.00    +0.000 N 
ATOM     22  H   UNL     1       4.170   3.579  17.227  0.00  0.00    +0.000 HD
BRANCH  21  23
ATOM     23  C   UNL     1       2.833   3.838  18.826  0.00  0.00    +0.000 A 
ATOM     24  C   UNL     1       3.453   3.343  19.972  0.00  0.00    +0.000 A 
ATOM     25  C   UNL     1       2.682   2.815  21.009  0.00  0.00    +0.000 A 
ATOM     26  C   UNL     1       1.291   2.764  20.894  0.00  0.00    +0.000 A 
ATOM     27  C   UNL     1       0.666   3.266  19.752  0.00  0.00    +0.000 A 
ATOM     28  C   UNL     1       1.440   3.814  18.733  0.00  0.00    +0.000 A 
ATOM     29  F   UNL     1       0.829   4.303  17.643  0.00  0.00    +0.000 F 
ENDBRANCH  21  23
ENDBRANCH  18  21
ENDBRANCH   4  18
TORSDOF 4
ENDMDL
MODEL 7
REMARK VINA RESULT:      -7.7      2.831      3.583
REMARK  Name = 
REMARK  5 active torsions:
REMARK  status: ('A' for Active; 'I' for Inactive)
REMARK    1  A    between atoms: C_1  and  C_2
REMARK    2  A    between atoms: C_8  and  C_10
REMARK    3  A    between atoms: C_13  and  S_14
REMARK    4  A    between atoms: S_14  and  N_17
REMARK    5  A    between atoms: N_17  and  C_18
REMARK                            x       y       z     vdW  Elec       q    Type
REMARK                         _______ _______ _______ _____ _____    ______ ____
ROOT
ATOM      1  C   UNL     1       0.688   9.835  19.325  0.00  0.00    +0.000 A 
ATOM      2  C   UNL     1       1.223   9.589  18.056  0.00  0.00    +0.000 A 
ATOM      3  C   UNL     1       1.986   8.451  17.813  0.00  0.00    +0.000 A 
ATOM      4  C   UNL     1       2.325   7.611  18.875  0.00  0.00    +0.000 A 
ATOM      5  C   UNL     1       1.839   7.862  20.165  0.00  0.00    +0.000 A 
ATOM      6  C   UNL     1       1.025   8.983  20.389  0.00  0.00    +0.000 A 
ENDROOT
BRANCH   1  14
ATOM      7  C   UNL     1       3.412  16.188  20.637  0.00  0.00    +0.000 C 
ATOM      8  C   UNL     1       2.012  15.886  21.108  0.00  0.00    +0.000 C 
ATOM      9  O   UNL     1       1.288  16.791  21.521  0.00  0.00    +0.000 OA
ATOM     10  N   UNL     1       1.583  14.575  21.005  0.00  0.00    +0.000 N 
ATOM     11  C   UNL     1       0.182  14.235  21.300  0.00  0.00    +0.000 C 
ATOM     12  C   UNL     1      -0.449  13.419  20.153  0.00  0.00    +0.000 C 
ATOM     13  N   UNL     1       0.409  12.284  19.773  0.00  0.00    +0.000 N 
ATOM     14  C   UNL     1      -0.172  11.029  19.581  0.00  0.00    +0.000 C 
ATOM     15  O   UNL     1      -1.388  10.847  19.635  0.00  0.00    +0.000 OA
ATOM     16  C   UNL     1       1.783  12.688  19.434  0.00  0.00    +0.000 C 
ATOM     17  C   UNL     1       2.419  13.434  20.615  0.00  0.00    +0.000 C 
ENDBRANCH   1  14
BRANCH   4  18
ATOM     18  S   UNL     1       3.401   6.230  18.541  0.00  0.00    +0.000 S 
ATOM     19  O   UNL     1       3.880   5.721  19.816  0.00  0.00    +0.000 OA
ATOM     20  O   UNL     1       2.709   5.371  17.604  0.00  0.00    +0.000 OA
BRANCH  18  21
ATOM     21  N   UNL     1       4.695   6.912  17.689  0.00  0.00    +0.000 N 
ATOM     22  H   UNL     1       5.176   7.643  18.211  0.00  0.00    +0.000 HD
BRANCH  21  23
ATOM     23  C   UNL     1       5.493   6.049  16.881  0.00  0.00    +0.000 A 
ATOM     24  C   UNL     1       5.181   5.939  15.527  0.00  0.00    +0.000 A 
ATOM     25  C   UNL     1       5.883   5.041  14.720  0.00  0.00    +0.000 A 
ATOM     26  C   UNL     1       6.886   4.239  15.269  0.00  0.00    +0.000 A 
ATOM     27  C   UNL     1       7.207   4.353  16.623  0.00  0.00    +0.000 A 
ATOM     28  C   UNL     1       6.521   5.268  17.416  0.00  0.00    +0.000 A 
ATOM     29  F   UNL     1       6.844   5.375  18.713  0.00  0.00    +0.000 F 
ENDBRANCH  21  23
ENDBRANCH  18  21
ENDBRANCH   4  18
TORSDOF 4
ENDMDL
MODEL 8
REMARK VINA RESULT:      -7.6      3.615      8.908
REMARK  Name = 
REMARK  5 active torsions:
REMARK  status: ('A' for Active; 'I' for Inactive)
REMARK    1  A    between atoms: C_1  and  C_2
REMARK    2  A    between atoms: C_8  and  C_10
REMARK    3  A    between atoms: C_13  and  S_14
REMARK    4  A    between atoms: S_14  and  N_17
REMARK    5  A    between atoms: N_17  and  C_18
REMARK                            x       y       z     vdW  Elec       q    Type
REMARK                         _______ _______ _______ _____ _____    ______ ____
ROOT
ATOM      1  C   UNL     1       1.941   7.082  19.848  0.00  0.00    +0.000 A 
ATOM      2  C   UNL     1       1.919   7.984  18.779  0.00  0.00    +0.000 A 
ATOM      3  C   UNL     1       1.508   9.299  18.965  0.00  0.00    +0.000 A 
ATOM      4  C   UNL     1       0.995   9.691  20.203  0.00  0.00    +0.000 A 
ATOM      5  C   UNL     1       0.964   8.793  21.277  0.00  0.00    +0.000 A 
ATOM      6  C   UNL     1       1.431   7.483  21.093  0.00  0.00    +0.000 A 
ENDROOT
BRANCH   1  14
ATOM      7  C   UNL     1       6.968   5.443  15.208  0.00  0.00    +0.000 C 
ATOM      8  C   UNL     1       6.013   4.366  15.655  0.00  0.00    +0.000 C 
ATOM      9  O   UNL     1       6.236   3.187  15.382  0.00  0.00    +0.000 OA
ATOM     10  N   UNL     1       4.926   4.764  16.413  0.00  0.00    +0.000 N 
ATOM     11  C   UNL     1       4.039   3.754  17.012  0.00  0.00    +0.000 C 
ATOM     12  C   UNL     1       3.842   4.009  18.521  0.00  0.00    +0.000 C 
ATOM     13  N   UNL     1       3.470   5.409  18.781  0.00  0.00    +0.000 N 
ATOM     14  C   UNL     1       2.426   5.681  19.666  0.00  0.00    +0.000 C 
ATOM     15  O   UNL     1       1.854   4.799  20.307  0.00  0.00    +0.000 OA
ATOM     16  C   UNL     1       4.422   6.374  18.207  0.00  0.00    +0.000 C 
ATOM     17  C   UNL     1       4.548   6.153  16.694  0.00  0.00    +0.000 C 
ENDBRANCH   1  14
BRANCH   4  18
ATOM     18  S   UNL     1       0.371  11.353  20.364  0.00  0.00    +0.000 S 
ATOM     19  O   UNL     1      -0.712  11.329  21.333  0.00  0.00    +0.000 OA
ATOM     20  O   UNL     1       1.517  12.220  20.543  0.00  0.00    +0.000 OA
BRANCH  18  21
ATOM     21  N   UNL     1      -0.255  11.709  18.832  0.00  0.00    +0.000 N 
ATOM     22  H   UNL     1       0.435  11.621  18.088  0.00  0.00    +0.000 HD
BRANCH  21  23
ATOM     23  C   UNL     1      -1.589  11.296  18.542  0.00  0.00    +0.000 A 
ATOM     24  C   UNL     1      -1.771  10.155  17.763  0.00  0.00    +0.000 A 
ATOM     25  C   UNL     1      -3.058   9.766  17.385  0.00  0.00    +0.000 A 
ATOM     26  C   UNL     1      -4.163  10.528  17.770  0.00  0.00    +0.000 A 
ATOM     27  C   UNL     1      -3.986  11.666  18.558  0.00  0.00    +0.000 A 
ATOM     28  C   UNL     1      -2.703  12.034  18.952  0.00  0.00    +0.000 A 
ATOM     29  F   UNL     1      -2.544  13.124  19.716  0.00  0.00    +0.000 F 
ENDBRANCH  21  23
ENDBRANCH  18  21
ENDBRANCH   4  18
TORSDOF 4
ENDMDL
MODEL 9
REMARK VINA RESULT:      -7.6      1.411      1.737
REMARK  Name = 
REMARK  5 active torsions:
REMARK  status: ('A' for Active; 'I' for Inactive)
REMARK    1  A    between atoms: C_1  and  C_2
REMARK    2  A    between atoms: C_8  and  C_10
REMARK    3  A    between atoms: C_13  and  S_14
REMARK    4  A    between atoms: S_14  and  N_17
REMARK    5  A    between atoms: N_17  and  C_18
REMARK                            x       y       z     vdW  Elec       q    Type
REMARK                         _______ _______ _______ _____ _____    ______ ____
ROOT
ATOM      1  C   UNL     1       1.920   7.256  18.980  0.00  0.00    +0.000 A 
ATOM      2  C   UNL     1       1.835   6.175  18.096  0.00  0.00    +0.000 A 
ATOM      3  C   UNL     1       1.885   4.866  18.564  0.00  0.00    +0.000 A 
ATOM      4  C   UNL     1       2.146   4.628  19.915  0.00  0.00    +0.000 A 
ATOM      5  C   UNL     1       2.281   5.695  20.812  0.00  0.00    +0.000 A 
ATOM      6  C   UNL     1       2.175   7.012  20.339  0.00  0.00    +0.000 A 
ENDROOT
BRANCH   1  14
ATOM      7  C   UNL     1      -1.362  12.270  22.666  0.00  0.00    +0.000 C 
ATOM      8  C   UNL     1      -1.205  12.447  21.177  0.00  0.00    +0.000 C 
ATOM      9  O   UNL     1      -1.452  13.533  20.653  0.00  0.00    +0.000 OA
ATOM     10  N   UNL     1      -0.731  11.362  20.461  0.00  0.00    +0.000 N 
ATOM     11  C   UNL     1      -0.407  11.510  19.033  0.00  0.00    +0.000 C 
ATOM     12  C   UNL     1       1.012  10.988  18.726  0.00  0.00    +0.000 C 
ATOM     13  N   UNL     1       1.216   9.641  19.283  0.00  0.00    +0.000 N 
ATOM     14  C   UNL     1       1.820   8.663  18.490  0.00  0.00    +0.000 C 
ATOM     15  O   UNL     1       2.267   8.903  17.369  0.00  0.00    +0.000 OA
ATOM     16  C   UNL     1       0.932   9.565  20.725  0.00  0.00    +0.000 C 
ATOM     17  C   UNL     1      -0.509  10.017  21.002  0.00  0.00    +0.000 C 
ENDBRANCH   1  14
BRANCH   4  18
ATOM     18  S   UNL     1       2.318   2.937  20.451  0.00  0.00    +0.000 S 
ATOM     19  O   UNL     1       2.140   2.907  21.892  0.00  0.00    +0.000 OA
ATOM     20  O   UNL     1       1.492   2.131  19.577  0.00  0.00    +0.000 OA
BRANCH  18  21
ATOM     21  N   UNL     1       3.923   2.547  20.076  0.00  0.00    +0.000 N 
ATOM     22  H   UNL     1       4.123   1.552  20.164  0.00  0.00    +0.000 HD
BRANCH  21  23
ATOM     23  C   UNL     1       4.550   3.250  19.005  0.00  0.00    +0.000 A 
ATOM     24  C   UNL     1       5.369   4.333  19.319  0.00  0.00    +0.000 A 
ATOM     25  C   UNL     1       5.934   5.100  18.297  0.00  0.00    +0.000 A 
ATOM     26  C   UNL     1       5.664   4.797  16.961  0.00  0.00    +0.000 A 
ATOM     27  C   UNL     1       4.850   3.708  16.643  0.00  0.00    +0.000 A 
ATOM     28  C   UNL     1       4.312   2.933  17.666  0.00  0.00    +0.000 A 
ATOM     29  F   UNL     1       3.539   1.884  17.349  0.00  0.00    +0.000 F 
ENDBRANCH  21  23
ENDBRANCH  18  21
ENDBRANCH   4  18
TORSDOF 4
ENDMDL
