MODEL 1
REMARK VINA RESULT:      -8.9      0.000      0.000
REMARK  Name = 
REMARK  5 active torsions:
REMARK  status: ('A' for Active; 'I' for Inactive)
REMARK    1  A    between atoms: C_1  and  N_2
REMARK    2  A    between atoms: N_5  and  C_6
REMARK    3  A    between atoms: C_12  and  C_13
REMARK    4  A    between atoms: C_19  and  C_20
REMARK    5  A    between atoms: C_24  and  N_25
REMARK                            x       y       z     vdW  Elec       q    Type
REMARK                         _______ _______ _______ _____ _____    ______ ____
ROOT
ATOM      1  C   UNL     1       1.230   8.574  21.066  0.00  0.00    +0.000 A 
ATOM      2  N   UNL     1       1.681   8.988  22.258  0.00  0.00    +0.000 NA
ATOM      3  N   UNL     1       1.098  10.192  22.417  0.00  0.00    +0.000 N 
ATOM      4  C   UNL     1       0.256  10.550  21.398  0.00  0.00    +0.000 A 
ATOM      5  C   UNL     1      -0.559  11.668  21.203  0.00  0.00    +0.000 A 
ATOM      6  C   UNL     1      -1.364  11.686  20.048  0.00  0.00    +0.000 A 
ATOM      7  C   UNL     1      -1.350  10.650  19.099  0.00  0.00    +0.000 A 
ATOM      8  C   UNL     1      -0.463   9.581  19.325  0.00  0.00    +0.000 A 
ATOM      9  C   UNL     1       0.329   9.507  20.486  0.00  0.00    +0.000 A 
ATOM     10  H   UNL     1       1.297  10.713  23.262  0.00  0.00    +0.000 HD
ENDROOT
BRANCH   1  17
ATOM     11  C   UNL     1       3.306   4.684  18.471  0.00  0.00    +0.000 A 
ATOM     12  C   UNL     1       2.864   3.349  18.514  0.00  0.00    +0.000 A 
ATOM     13  C   UNL     1       1.834   2.960  19.363  0.00  0.00    +0.000 A 
ATOM     14  N   UNL     1       1.165   3.769  20.208  0.00  0.00    +0.000 NA
ATOM     15  C   UNL     1       1.585   5.043  20.136  0.00  0.00    +0.000 A 
ATOM     16  N   UNL     1       1.069   6.061  20.892  0.00  0.00    +0.000 N 
ATOM     17  C   UNL     1       1.637   7.251  20.520  0.00  0.00    +0.000 A 
ATOM     18  C   UNL     1       2.596   6.966  19.572  0.00  0.00    +0.000 A 
ATOM     19  C   UNL     1       2.590   5.563  19.321  0.00  0.00    +0.000 A 
ATOM     20  H   UNL     1       0.334   5.959  21.576  0.00  0.00    +0.000 HD
BRANCH  11  25
ATOM     21  C   UNL     1       7.324   5.284  14.627  0.00  0.00    +0.000 C 
ATOM     22  N   UNL     1       6.608   5.569  15.870  0.00  0.00    +0.000 NA
ATOM     23  C   UNL     1       6.583   4.366  16.737  0.00  0.00    +0.000 C 
ATOM     24  C   UNL     1       5.766   4.573  18.037  0.00  0.00    +0.000 C 
ATOM     25  N   UNL     1       4.408   5.012  17.690  0.00  0.00    +0.000 N 
ATOM     26  C   UNL     1       4.384   6.230  16.863  0.00  0.00    +0.000 C 
ATOM     27  C   UNL     1       5.216   5.990  15.580  0.00  0.00    +0.000 C 
ENDBRANCH  11  25
ENDBRANCH   1  17
BRANCH   7  28
ATOM     28  C   UNL     1      -2.235  10.635  17.910  0.00  0.00    +0.000 A 
ATOM     29  C   UNL     1      -1.906   9.968  16.730  0.00  0.00    +0.000 A 
ATOM     30  N   UNL     1      -2.672   9.944  15.611  0.00  0.00    +0.000 NA
ATOM     31  C   UNL     1      -3.852  10.601  15.672  0.00  0.00    +0.000 A 
ATOM     32  C   UNL     1      -4.339  11.243  16.805  0.00  0.00    +0.000 A 
ATOM     33  C   UNL     1      -3.478  11.301  17.901  0.00  0.00    +0.000 A 
BRANCH  32  34
ATOM     34  N   UNL     1      -5.515  12.002  16.786  0.00  0.00    +0.000 N 
ATOM     35  H   UNL     1      -5.400  12.936  16.406  0.00  0.00    +0.000 HD
ATOM     36  H   UNL     1      -6.308  11.521  16.369  0.00  0.00    +0.000 HD
ENDBRANCH  32  34
ENDBRANCH   7  28
TORSDOF 4
ENDMDL
MODEL 2
REMARK VINA RESULT:      -8.5      0.441      1.182
REMARK  Name = 
REMARK  5 active torsions:
REMARK  status: ('A' for Active; 'I' for Inactive)
REMARK    1  A    between atoms: C_1  and  N_2
REMARK    2  A    between atoms: N_5  and  C_6
REMARK    3  A    between atoms: C_12  and  C_13
REMARK    4  A    between atoms: C_19  and  C_20
REMARK    5  A    between atoms: C_24  and  N_25
REMARK                            x       y       z     vdW  Elec       q    Type
REMARK                         _______ _______ _______ _____ _____    ______ ____
ROOT
ATOM      1  C   UNL     1       1.267   8.473  21.067  0.00  0.00    +0.000 A 
ATOM      2  N   UNL     1       1.781   8.801  22.260  0.00  0.00    +0.000 NA
ATOM      3  N   UNL     1       1.247  10.011  22.513  0.00  0.00    +0.000 N 
ATOM      4  C   UNL     1       0.375  10.455  21.555  0.00  0.00    +0.000 A 
ATOM      5  C   UNL     1      -0.409  11.608  21.461  0.00  0.00    +0.000 A 
ATOM      6  C   UNL     1      -1.261  11.720  20.346  0.00  0.00    +0.000 A 
ATOM      7  C   UNL     1      -1.322  10.742  19.339  0.00  0.00    +0.000 A 
ATOM      8  C   UNL     1      -0.464   9.634  19.463  0.00  0.00    +0.000 A 
ATOM      9  C   UNL     1       0.374   9.466  20.582  0.00  0.00    +0.000 A 
ATOM     10  H   UNL     1       1.499  10.475  23.378  0.00  0.00    +0.000 HD
ENDROOT
BRANCH   1  17
ATOM     11  C   UNL     1       3.172   4.667  18.227  0.00  0.00    +0.000 A 
ATOM     12  C   UNL     1       2.643   3.366  18.149  0.00  0.00    +0.000 A 
ATOM     13  C   UNL     1       1.561   2.982  18.934  0.00  0.00    +0.000 A 
ATOM     14  N   UNL     1       0.918   3.765  19.822  0.00  0.00    +0.000 NA
ATOM     15  C   UNL     1       1.422   5.010  19.865  0.00  0.00    +0.000 A 
ATOM     16  N   UNL     1       0.949   5.998  20.686  0.00  0.00    +0.000 N 
ATOM     17  C   UNL     1       1.605   7.173  20.428  0.00  0.00    +0.000 A 
ATOM     18  C   UNL     1       2.575   6.898  19.488  0.00  0.00    +0.000 A 
ATOM     19  C   UNL     1       2.486   5.523  19.124  0.00  0.00    +0.000 A 
ATOM     20  H   UNL     1       0.186   5.893  21.338  0.00  0.00    +0.000 HD
BRANCH  11  25
ATOM     21  C   UNL     1       7.345   5.301  14.557  0.00  0.00    +0.000 C 
ATOM     22  N   UNL     1       6.610   5.530  15.802  0.00  0.00    +0.000 NA
ATOM     23  C   UNL     1       6.473   4.262  16.559  0.00  0.00    +0.000 C 
ATOM     24  C   UNL     1       5.631   4.416  17.851  0.00  0.00    +0.000 C 
ATOM     25  N   UNL     1       4.319   4.980  17.507  0.00  0.00    +0.000 N 
ATOM     26  C   UNL     1       4.406   6.262  16.788  0.00  0.00    +0.000 C 
ATOM     27  C   UNL     1       5.261   6.073  15.512  0.00  0.00    +0.000 C 
ENDBRANCH  11  25
ENDBRANCH   1  17
BRANCH   7  28
ATOM     28  C   UNL     1      -2.257  10.825  18.191  0.00  0.00    +0.000 A 
ATOM     29  C   UNL     1      -3.475  11.501  18.255  0.00  0.00    +0.000 A 
ATOM     30  N   UNL     1      -4.371  11.584  17.240  0.00  0.00    +0.000 NA
ATOM     31  C   UNL     1      -4.029  10.982  16.080  0.00  0.00    +0.000 A 
ATOM     32  C   UNL     1      -2.817  10.339  15.853  0.00  0.00    +0.000 A 
ATOM     33  C   UNL     1      -1.967  10.216  16.952  0.00  0.00    +0.000 A 
BRANCH  32  34
ATOM     34  N   UNL     1      -2.554   9.636  14.672  0.00  0.00    +0.000 N 
ATOM     35  H   UNL     1      -2.221   8.688  14.818  0.00  0.00    +0.000 HD
ATOM     36  H   UNL     1      -3.313   9.668  13.996  0.00  0.00    +0.000 HD
ENDBRANCH  32  34
ENDBRANCH   7  28
TORSDOF 4
ENDMDL
MODEL 3
REMARK VINA RESULT:      -8.5      2.875      9.303
REMARK  Name = 
REMARK  5 active torsions:
REMARK  status: ('A' for Active; 'I' for Inactive)
REMARK    1  A    between atoms: C_1  and  N_2
REMARK    2  A    between atoms: N_5  and  C_6
REMARK    3  A    between atoms: C_12  and  C_13
REMARK    4  A    between atoms: C_19  and  C_20
REMARK    5  A    between atoms: C_24  and  N_25
REMARK                            x       y       z     vdW  Elec       q    Type
REMARK                         _______ _______ _______ _____ _____    ______ ____
ROOT
ATOM      1  C   UNL     1       2.092   6.372  19.817  0.00  0.00    +0.000 A 
ATOM      2  N   UNL     1       1.513   5.761  20.859  0.00  0.00    +0.000 NA
ATOM      3  N   UNL     1       1.926   4.484  20.747  0.00  0.00    +0.000 N 
ATOM      4  C   UNL     1       2.784   4.257  19.703  0.00  0.00    +0.000 A 
ATOM      5  C   UNL     1       3.463   3.113  19.277  0.00  0.00    +0.000 A 
ATOM      6  C   UNL     1       4.335   3.250  18.182  0.00  0.00    +0.000 A 
ATOM      7  C   UNL     1       4.517   4.469  17.507  0.00  0.00    +0.000 A 
ATOM      8  C   UNL     1       3.759   5.569  17.948  0.00  0.00    +0.000 A 
ATOM      9  C   UNL     1       2.905   5.483  19.064  0.00  0.00    +0.000 A 
ATOM     10  H   UNL     1       1.606   3.814  21.436  0.00  0.00    +0.000 HD
ENDROOT
BRANCH   1  17
ATOM     11  C   UNL     1       0.600  11.266  19.887  0.00  0.00    +0.000 A 
ATOM     12  C   UNL     1       0.925  12.230  18.916  0.00  0.00    +0.000 A 
ATOM     13  C   UNL     1       1.778  11.927  17.860  0.00  0.00    +0.000 A 
ATOM     14  N   UNL     1       2.370  10.735  17.646  0.00  0.00    +0.000 NA
ATOM     15  C   UNL     1       2.029   9.821  18.570  0.00  0.00    +0.000 A 
ATOM     16  N   UNL     1       2.496   8.534  18.580  0.00  0.00    +0.000 N 
ATOM     17  C   UNL     1       1.893   7.828  19.587  0.00  0.00    +0.000 A 
ATOM     18  C   UNL     1       1.097   8.712  20.283  0.00  0.00    +0.000 A 
ATOM     19  C   UNL     1       1.178   9.992  19.661  0.00  0.00    +0.000 A 
ATOM     20  H   UNL     1       3.139   8.147  17.906  0.00  0.00    +0.000 HD
BRANCH  11  25
ATOM     21  C   UNL     1      -3.268  12.169  23.824  0.00  0.00    +0.000 C 
ATOM     22  N   UNL     1      -1.946  12.248  23.204  0.00  0.00    +0.000 NA
ATOM     23  C   UNL     1      -2.027  12.959  21.905  0.00  0.00    +0.000 C 
ATOM     24  C   UNL     1      -0.673  13.005  21.154  0.00  0.00    +0.000 C 
ATOM     25  N   UNL     1      -0.168  11.637  20.985  0.00  0.00    +0.000 N 
ATOM     26  C   UNL     1      -0.031  10.906  22.256  0.00  0.00    +0.000 C 
ATOM     27  C   UNL     1      -1.398  10.888  22.982  0.00  0.00    +0.000 C 
ENDBRANCH  11  25
ENDBRANCH   1  17
BRANCH   7  28
ATOM     28  C   UNL     1       5.476   4.636  16.388  0.00  0.00    +0.000 A 
ATOM     29  C   UNL     1       6.522   5.557  16.420  0.00  0.00    +0.000 A 
ATOM     30  N   UNL     1       7.408   5.761  15.414  0.00  0.00    +0.000 NA
ATOM     31  C   UNL     1       7.267   4.985  14.317  0.00  0.00    +0.000 A 
ATOM     32  C   UNL     1       6.319   3.978  14.181  0.00  0.00    +0.000 A 
ATOM     33  C   UNL     1       5.385   3.863  15.211  0.00  0.00    +0.000 A 
BRANCH  32  34
ATOM     34  N   UNL     1       6.140   3.276  12.983  0.00  0.00    +0.000 N 
ATOM     35  H   UNL     1       7.006   3.041  12.506  0.00  0.00    +0.000 HD
ATOM     36  H   UNL     1       5.526   2.470  13.066  0.00  0.00    +0.000 HD
ENDBRANCH  32  34
ENDBRANCH   7  28
TORSDOF 4
ENDMDL
MODEL 4
REMARK VINA RESULT:      -8.2      3.838      7.198
REMARK  Name = 
REMARK  5 active torsions:
REMARK  status: ('A' for Active; 'I' for Inactive)
REMARK    1  A    between atoms: C_1  and  N_2
REMARK    2  A    between atoms: N_5  and  C_6
REMARK    3  A    between atoms: C_12  and  C_13
REMARK    4  A    between atoms: C_19  and  C_20
REMARK    5  A    between atoms: C_24  and  N_25
REMARK                            x       y       z     vdW  Elec       q    Type
REMARK                         _______ _______ _______ _____ _____    ______ ____
ROOT
ATOM      1  C   UNL     1      -3.703  11.671  17.735  0.00  0.00    +0.000 A 
ATOM      2  N   UNL     1      -4.014  11.475  16.446  0.00  0.00    +0.000 NA
ATOM      3  N   UNL     1      -5.361  11.498  16.438  0.00  0.00    +0.000 N 
ATOM      4  C   UNL     1      -5.929  11.746  17.659  0.00  0.00    +0.000 A 
ATOM      5  C   UNL     1      -7.258  11.894  18.063  0.00  0.00    +0.000 A 
ATOM      6  C   UNL     1      -7.490  12.216  19.414  0.00  0.00    +0.000 A 
ATOM      7  C   UNL     1      -6.449  12.361  20.347  0.00  0.00    +0.000 A 
ATOM      8  C   UNL     1      -5.138  12.140  19.889  0.00  0.00    +0.000 A 
ATOM      9  C   UNL     1      -4.861  11.856  18.538  0.00  0.00    +0.000 A 
ATOM     10  H   UNL     1      -5.837  11.363  15.554  0.00  0.00    +0.000 HD
ENDROOT
BRANCH   1  17
ATOM     11  C   UNL     1       1.086  10.694  19.244  0.00  0.00    +0.000 A 
ATOM     12  C   UNL     1       1.992  11.646  19.746  0.00  0.00    +0.000 A 
ATOM     13  C   UNL     1       1.662  12.996  19.795  0.00  0.00    +0.000 A 
ATOM     14  N   UNL     1       0.494  13.533  19.391  0.00  0.00    +0.000 NA
ATOM     15  C   UNL     1      -0.366  12.607  18.938  0.00  0.00    +0.000 A 
ATOM     16  N   UNL     1      -1.620  12.893  18.467  0.00  0.00    +0.000 N 
ATOM     17  C   UNL     1      -2.283  11.731  18.171  0.00  0.00    +0.000 A 
ATOM     18  C   UNL     1      -1.397  10.695  18.375  0.00  0.00    +0.000 A 
ATOM     19  C   UNL     1      -0.165  11.230  18.851  0.00  0.00    +0.000 A 
ATOM     20  H   UNL     1      -2.018  13.818  18.407  0.00  0.00    +0.000 HD
BRANCH  11  25
ATOM     21  C   UNL     1       3.647   5.723  19.158  0.00  0.00    +0.000 C 
ATOM     22  N   UNL     1       2.542   6.662  18.970  0.00  0.00    +0.000 NA
ATOM     23  C   UNL     1       2.917   7.708  17.988  0.00  0.00    +0.000 C 
ATOM     24  C   UNL     1       1.820   8.787  17.803  0.00  0.00    +0.000 C 
ATOM     25  N   UNL     1       1.493   9.371  19.110  0.00  0.00    +0.000 N 
ATOM     26  C   UNL     1       1.074   8.371  20.107  0.00  0.00    +0.000 C 
ATOM     27  C   UNL     1       2.188   7.306  20.257  0.00  0.00    +0.000 C 
ENDBRANCH  11  25
ENDBRANCH   1  17
BRANCH   7  28
ATOM     28  C   UNL     1      -6.681  12.755  21.758  0.00  0.00    +0.000 A 
ATOM     29  C   UNL     1      -7.654  12.160  22.559  0.00  0.00    +0.000 A 
ATOM     30  N   UNL     1      -7.917  12.502  23.845  0.00  0.00    +0.000 NA
ATOM     31  C   UNL     1      -7.150  13.477  24.381  0.00  0.00    +0.000 A 
ATOM     32  C   UNL     1      -6.097  14.103  23.722  0.00  0.00    +0.000 A 
ATOM     33  C   UNL     1      -5.921  13.768  22.379  0.00  0.00    +0.000 A 
BRANCH  32  34
ATOM     34  N   UNL     1      -5.404  15.184  24.280  0.00  0.00    +0.000 N 
ATOM     35  H   UNL     1      -4.904  14.960  25.135  0.00  0.00    +0.000 HD
ATOM     36  H   UNL     1      -4.813  15.679  23.617  0.00  0.00    +0.000 HD
ENDBRANCH  32  34
ENDBRANCH   7  28
TORSDOF 4
ENDMDL
MODEL 5
REMARK VINA RESULT:      -8.2      0.991      1.332
REMARK  Name = 
REMARK  5 active torsions:
REMARK  status: ('A' for Active; 'I' for Inactive)
REMARK    1  A    between atoms: C_1  and  N_2
REMARK    2  A    between atoms: N_5  and  C_6
REMARK    3  A    between atoms: C_12  and  C_13
REMARK    4  A    between atoms: C_19  and  C_20
REMARK    5  A    between atoms: C_24  and  N_25
REMARK                            x       y       z     vdW  Elec       q    Type
REMARK                         _______ _______ _______ _____ _____    ______ ____
ROOT
ATOM      1  C   UNL     1       0.758   8.899  21.389  0.00  0.00    +0.000 A 
ATOM      2  N   UNL     1       1.078   9.308  22.624  0.00  0.00    +0.000 NA
ATOM      3  N   UNL     1       0.435  10.486  22.745  0.00  0.00    +0.000 N 
ATOM      4  C   UNL     1      -0.321  10.830  21.656  0.00  0.00    +0.000 A 
ATOM      5  C   UNL     1      -1.159  11.919  21.402  0.00  0.00    +0.000 A 
ATOM      6  C   UNL     1      -1.852  11.928  20.177  0.00  0.00    +0.000 A 
ATOM      7  C   UNL     1      -1.708  10.910  19.219  0.00  0.00    +0.000 A 
ATOM      8  C   UNL     1      -0.804   9.873  19.511  0.00  0.00    +0.000 A 
ATOM      9  C   UNL     1      -0.122   9.807  20.740  0.00  0.00    +0.000 A 
ATOM     10  H   UNL     1       0.533  10.999  23.613  0.00  0.00    +0.000 HD
ENDROOT
BRANCH   1  17
ATOM     11  C   UNL     1       3.273   5.136  19.004  0.00  0.00    +0.000 A 
ATOM     12  C   UNL     1       2.854   3.796  18.931  0.00  0.00    +0.000 A 
ATOM     13  C   UNL     1       1.714   3.362  19.598  0.00  0.00    +0.000 A 
ATOM     14  N   UNL     1       0.910   4.130  20.359  0.00  0.00    +0.000 NA
ATOM     15  C   UNL     1       1.312   5.411  20.398  0.00  0.00    +0.000 A 
ATOM     16  N   UNL     1       0.670   6.394  21.103  0.00  0.00    +0.000 N 
ATOM     17  C   UNL     1       1.266   7.604  20.865  0.00  0.00    +0.000 A 
ATOM     18  C   UNL     1       2.363   7.366  20.065  0.00  0.00    +0.000 A 
ATOM     19  C   UNL     1       2.420   5.974  19.765  0.00  0.00    +0.000 A 
ATOM     20  H   UNL     1      -0.158   6.257  21.662  0.00  0.00    +0.000 HD
BRANCH  11  25
ATOM     21  C   UNL     1       8.052   7.487  17.294  0.00  0.00    +0.000 C 
ATOM     22  N   UNL     1       7.010   6.461  17.351  0.00  0.00    +0.000 NA
ATOM     23  C   UNL     1       5.708   7.025  16.919  0.00  0.00    +0.000 C 
ATOM     24  C   UNL     1       4.541   6.013  17.035  0.00  0.00    +0.000 C 
ATOM     25  N   UNL     1       4.475   5.508  18.412  0.00  0.00    +0.000 N 
ATOM     26  C   UNL     1       5.736   4.900  18.871  0.00  0.00    +0.000 C 
ATOM     27  C   UNL     1       6.879   5.935  18.731  0.00  0.00    +0.000 C 
ENDBRANCH  11  25
ENDBRANCH   1  17
BRANCH   7  28
ATOM     28  C   UNL     1      -2.477  10.883  17.951  0.00  0.00    +0.000 A 
ATOM     29  C   UNL     1      -1.972  10.337  16.772  0.00  0.00    +0.000 A 
ATOM     30  N   UNL     1      -2.628  10.309  15.585  0.00  0.00    +0.000 NA
ATOM     31  C   UNL     1      -3.874  10.831  15.570  0.00  0.00    +0.000 A 
ATOM     32  C   UNL     1      -4.529  11.339  16.687  0.00  0.00    +0.000 A 
ATOM     33  C   UNL     1      -3.781  11.414  17.862  0.00  0.00    +0.000 A 
BRANCH  32  34
ATOM     34  N   UNL     1      -5.776  11.969  16.599  0.00  0.00    +0.000 N 
ATOM     35  H   UNL     1      -6.369  11.617  15.855  0.00  0.00    +0.000 HD
ATOM     36  H   UNL     1      -6.274  12.020  17.484  0.00  0.00    +0.000 HD
ENDBRANCH  32  34
ENDBRANCH   7  28
TORSDOF 4
ENDMDL
MODEL 6
REMARK VINA RESULT:      -7.9      5.184      7.644
REMARK  Name = 
REMARK  5 active torsions:
REMARK  status: ('A' for Active; 'I' for Inactive)
REMARK    1  A    between atoms: C_1  and  N_2
REMARK    2  A    between atoms: N_5  and  C_6
REMARK    3  A    between atoms: C_12  and  C_13
REMARK    4  A    between atoms: C_19  and  C_20
REMARK    5  A    between atoms: C_24  and  N_25
REMARK                            x       y       z     vdW  Elec       q    Type
REMARK                         _______ _______ _______ _____ _____    ______ ____
ROOT
ATOM      1  C   UNL     1       0.368  14.259  19.546  0.00  0.00    +0.000 A 
ATOM      2  N   UNL     1      -0.814  14.820  19.256  0.00  0.00    +0.000 NA
ATOM      3  N   UNL     1      -0.476  15.975  18.651  0.00  0.00    +0.000 N 
ATOM      4  C   UNL     1       0.873  16.159  18.499  0.00  0.00    +0.000 A 
ATOM      5  C   UNL     1       1.620  17.176  17.897  0.00  0.00    +0.000 A 
ATOM      6  C   UNL     1       3.017  17.014  17.860  0.00  0.00    +0.000 A 
ATOM      7  C   UNL     1       3.666  15.901  18.421  0.00  0.00    +0.000 A 
ATOM      8  C   UNL     1       2.861  14.943  19.065  0.00  0.00    +0.000 A 
ATOM      9  C   UNL     1       1.458  15.048  19.089  0.00  0.00    +0.000 A 
ATOM     10  H   UNL     1      -1.219  16.588  18.338  0.00  0.00    +0.000 HD
ENDROOT
BRANCH   1  17
ATOM     11  C   UNL     1       0.889   9.321  20.782  0.00  0.00    +0.000 A 
ATOM     12  C   UNL     1       0.466   8.735  21.988  0.00  0.00    +0.000 A 
ATOM     13  C   UNL     1      -0.079   9.506  23.010  0.00  0.00    +0.000 A 
ATOM     14  N   UNL     1      -0.260  10.840  22.974  0.00  0.00    +0.000 NA
ATOM     15  C   UNL     1       0.128  11.379  21.806  0.00  0.00    +0.000 A 
ATOM     16  N   UNL     1       0.051  12.715  21.518  0.00  0.00    +0.000 N 
ATOM     17  C   UNL     1       0.432  12.934  20.220  0.00  0.00    +0.000 A 
ATOM     18  C   UNL     1       0.844  11.723  19.707  0.00  0.00    +0.000 A 
ATOM     19  C   UNL     1       0.671  10.720  20.705  0.00  0.00    +0.000 A 
ATOM     20  H   UNL     1      -0.296  13.424  22.147  0.00  0.00    +0.000 HD
BRANCH  11  25
ATOM     21  C   UNL     1       4.368   6.591  17.358  0.00  0.00    +0.000 C 
ATOM     22  N   UNL     1       3.078   6.950  17.948  0.00  0.00    +0.000 NA
ATOM     23  C   UNL     1       2.792   8.387  17.724  0.00  0.00    +0.000 C 
ATOM     24  C   UNL     1       1.477   8.855  18.397  0.00  0.00    +0.000 C 
ATOM     25  N   UNL     1       1.527   8.535  19.829  0.00  0.00    +0.000 N 
ATOM     26  C   UNL     1       1.769   7.108  20.099  0.00  0.00    +0.000 C 
ATOM     27  C   UNL     1       3.083   6.675  19.405  0.00  0.00    +0.000 C 
ENDBRANCH  11  25
ENDBRANCH   1  17
BRANCH   7  28
ATOM     28  C   UNL     1       5.132  15.695  18.337  0.00  0.00    +0.000 A 
ATOM     29  C   UNL     1       6.055  16.641  18.781  0.00  0.00    +0.000 A 
ATOM     30  N   UNL     1       7.403  16.507  18.704  0.00  0.00    +0.000 NA
ATOM     31  C   UNL     1       7.866  15.352  18.178  0.00  0.00    +0.000 A 
ATOM     32  C   UNL     1       7.063  14.295  17.765  0.00  0.00    +0.000 A 
ATOM     33  C   UNL     1       5.686  14.516  17.795  0.00  0.00    +0.000 A 
BRANCH  32  34
ATOM     34  N   UNL     1       7.585  13.165  17.125  0.00  0.00    +0.000 N 
ATOM     35  H   UNL     1       7.128  12.295  17.380  0.00  0.00    +0.000 HD
ATOM     36  H   UNL     1       7.669  13.265  16.117  0.00  0.00    +0.000 HD
ENDBRANCH  32  34
ENDBRANCH   7  28
TORSDOF 4
ENDMDL
MODEL 7
REMARK VINA RESULT:      -7.8      2.602      3.693
REMARK  Name = 
REMARK  5 active torsions:
REMARK  status: ('A' for Active; 'I' for Inactive)
REMARK    1  A    between atoms: C_1  and  N_2
REMARK    2  A    between atoms: N_5  and  C_6
REMARK    3  A    between atoms: C_12  and  C_13
REMARK    4  A    between atoms: C_19  and  C_20
REMARK    5  A    between atoms: C_24  and  N_25
REMARK                            x       y       z     vdW  Elec       q    Type
REMARK                         _______ _______ _______ _____ _____    ______ ____
ROOT
ATOM      1  C   UNL     1       1.911  10.554  18.444  0.00  0.00    +0.000 A 
ATOM      2  N   UNL     1       2.705  11.147  17.541  0.00  0.00    +0.000 NA
ATOM      3  N   UNL     1       2.222  12.402  17.470  0.00  0.00    +0.000 N 
ATOM      4  C   UNL     1       1.180  12.656  18.323  0.00  0.00    +0.000 A 
ATOM      5  C   UNL     1       0.445  13.814  18.589  0.00  0.00    +0.000 A 
ATOM      6  C   UNL     1      -0.536  13.739  19.596  0.00  0.00    +0.000 A 
ATOM      7  C   UNL     1      -0.805  12.555  20.303  0.00  0.00    +0.000 A 
ATOM      8  C   UNL     1      -0.070  11.410  19.947  0.00  0.00    +0.000 A 
ATOM      9  C   UNL     1       0.946  11.452  18.973  0.00  0.00    +0.000 A 
ATOM     10  H   UNL     1       2.668  13.052  16.834  0.00  0.00    +0.000 HD
ENDROOT
BRANCH   1  17
ATOM     11  C   UNL     1       3.286   5.636  18.754  0.00  0.00    +0.000 A 
ATOM     12  C   UNL     1       2.743   4.694  19.647  0.00  0.00    +0.000 A 
ATOM     13  C   UNL     1       1.808   5.068  20.606  0.00  0.00    +0.000 A 
ATOM     14  N   UNL     1       1.329   6.313  20.791  0.00  0.00    +0.000 NA
ATOM     15  C   UNL     1       1.840   7.194  19.914  0.00  0.00    +0.000 A 
ATOM     16  N   UNL     1       1.518   8.525  19.892  0.00  0.00    +0.000 N 
ATOM     17  C   UNL     1       2.129   9.134  18.827  0.00  0.00    +0.000 A 
ATOM     18  C   UNL     1       2.924   8.187  18.218  0.00  0.00    +0.000 A 
ATOM     19  C   UNL     1       2.766   6.946  18.902  0.00  0.00    +0.000 A 
ATOM     20  H   UNL     1       0.876   8.975  20.526  0.00  0.00    +0.000 HD
BRANCH  11  25
ATOM     21  C   UNL     1       6.933   4.826  14.592  0.00  0.00    +0.000 C 
ATOM     22  N   UNL     1       6.351   4.628  15.920  0.00  0.00    +0.000 NA
ATOM     23  C   UNL     1       4.965   4.115  15.803  0.00  0.00    +0.000 C 
ATOM     24  C   UNL     1       4.258   3.961  17.173  0.00  0.00    +0.000 C 
ATOM     25  N   UNL     1       4.297   5.246  17.883  0.00  0.00    +0.000 N 
ATOM     26  C   UNL     1       5.660   5.774  18.059  0.00  0.00    +0.000 C 
ATOM     27  C   UNL     1       6.337   5.905  16.673  0.00  0.00    +0.000 C 
ENDBRANCH  11  25
ENDBRANCH   1  17
BRANCH   7  28
ATOM     28  C   UNL     1      -1.796  12.482  21.404  0.00  0.00    +0.000 A 
ATOM     29  C   UNL     1      -1.436  12.263  22.733  0.00  0.00    +0.000 A 
ATOM     30  N   UNL     1      -2.306  12.166  23.768  0.00  0.00    +0.000 NA
ATOM     31  C   UNL     1      -3.616  12.323  23.474  0.00  0.00    +0.000 A 
ATOM     32  C   UNL     1      -4.109  12.620  22.209  0.00  0.00    +0.000 A 
ATOM     33  C   UNL     1      -3.179  12.632  21.169  0.00  0.00    +0.000 A 
BRANCH  32  34
ATOM     34  N   UNL     1      -5.481  12.664  21.932  0.00  0.00    +0.000 N 
ATOM     35  H   UNL     1      -5.727  13.256  21.145  0.00  0.00    +0.000 HD
ATOM     36  H   UNL     1      -5.916  11.748  21.865  0.00  0.00    +0.000 HD
ENDBRANCH  32  34
ENDBRANCH   7  28
TORSDOF 4
ENDMDL
MODEL 8
REMARK VINA RESULT:      -7.8      1.089      1.808
REMARK  Name = 
REMARK  5 active torsions:
REMARK  status: ('A' for Active; 'I' for Inactive)
REMARK    1  A    between atoms: C_1  and  N_2
REMARK    2  A    between atoms: N_5  and  C_6
REMARK    3  A    between atoms: C_12  and  C_13
REMARK    4  A    between atoms: C_19  and  C_20
REMARK    5  A    between atoms: C_24  and  N_25
REMARK                            x       y       z     vdW  Elec       q    Type
REMARK                         _______ _______ _______ _____ _____    ______ ____
ROOT
ATOM      1  C   UNL     1       0.683   8.944  21.368  0.00  0.00    +0.000 A 
ATOM      2  N   UNL     1       1.006   9.345  22.605  0.00  0.00    +0.000 NA
ATOM      3  N   UNL     1       0.358  10.519  22.737  0.00  0.00    +0.000 N 
ATOM      4  C   UNL     1      -0.404  10.868  21.654  0.00  0.00    +0.000 A 
ATOM      5  C   UNL     1      -1.248  11.955  21.410  0.00  0.00    +0.000 A 
ATOM      6  C   UNL     1      -1.946  11.969  20.188  0.00  0.00    +0.000 A 
ATOM      7  C   UNL     1      -1.800  10.960  19.222  0.00  0.00    +0.000 A 
ATOM      8  C   UNL     1      -0.891   9.924  19.503  0.00  0.00    +0.000 A 
ATOM      9  C   UNL     1      -0.203   9.852  20.729  0.00  0.00    +0.000 A 
ATOM     10  H   UNL     1       0.457  11.026  23.608  0.00  0.00    +0.000 HD
ENDROOT
BRANCH   1  17
ATOM     11  C   UNL     1       3.221   5.208  18.964  0.00  0.00    +0.000 A 
ATOM     12  C   UNL     1       2.799   3.870  18.865  0.00  0.00    +0.000 A 
ATOM     13  C   UNL     1       1.648   3.430  19.510  0.00  0.00    +0.000 A 
ATOM     14  N   UNL     1       0.836   4.190  20.271  0.00  0.00    +0.000 NA
ATOM     15  C   UNL     1       1.241   5.469  20.334  0.00  0.00    +0.000 A 
ATOM     16  N   UNL     1       0.592   6.443  21.044  0.00  0.00    +0.000 N 
ATOM     17  C   UNL     1       1.195   7.654  20.832  0.00  0.00    +0.000 A 
ATOM     18  C   UNL     1       2.302   7.425  20.045  0.00  0.00    +0.000 A 
ATOM     19  C   UNL     1       2.360   6.037  19.726  0.00  0.00    +0.000 A 
ATOM     20  H   UNL     1      -0.245   6.300  21.589  0.00  0.00    +0.000 HD
BRANCH  11  25
ATOM     21  C   UNL     1       8.059   7.537  17.397  0.00  0.00    +0.000 C 
ATOM     22  N   UNL     1       6.992   6.537  17.393  0.00  0.00    +0.000 NA
ATOM     23  C   UNL     1       5.705   7.159  16.996  0.00  0.00    +0.000 C 
ATOM     24  C   UNL     1       4.512   6.171  17.051  0.00  0.00    +0.000 C 
ATOM     25  N   UNL     1       4.433   5.584  18.396  0.00  0.00    +0.000 N 
ATOM     26  C   UNL     1       5.677   4.919  18.815  0.00  0.00    +0.000 C 
ATOM     27  C   UNL     1       6.846   5.931  18.738  0.00  0.00    +0.000 C 
ENDBRANCH  11  25
ENDBRANCH   1  17
BRANCH   7  28
ATOM     28  C   UNL     1      -2.574  10.938  17.957  0.00  0.00    +0.000 A 
ATOM     29  C   UNL     1      -3.804  11.578  17.811  0.00  0.00    +0.000 A 
ATOM     30  N   UNL     1      -4.557  11.567  16.683  0.00  0.00    +0.000 NA
ATOM     31  C   UNL     1      -4.048  10.902  15.623  0.00  0.00    +0.000 A 
ATOM     32  C   UNL     1      -2.803  10.284  15.604  0.00  0.00    +0.000 A 
ATOM     33  C   UNL     1      -2.105  10.260  16.812  0.00  0.00    +0.000 A 
BRANCH  32  34
ATOM     34  N   UNL     1      -2.367   9.514  14.519  0.00  0.00    +0.000 N 
ATOM     35  H   UNL     1      -1.842  10.035  13.824  0.00  0.00    +0.000 HD
ATOM     36  H   UNL     1      -1.889   8.658  14.788  0.00  0.00    +0.000 HD
ENDBRANCH  32  34
ENDBRANCH   7  28
TORSDOF 4
ENDMDL
MODEL 9
REMARK VINA RESULT:      -7.8      5.024      8.790
REMARK  Name = 
REMARK  5 active torsions:
REMARK  status: ('A' for Active; 'I' for Inactive)
REMARK    1  A    between atoms: C_1  and  N_2
REMARK    2  A    between atoms: N_5  and  C_6
REMARK    3  A    between atoms: C_12  and  C_13
REMARK    4  A    between atoms: C_19  and  C_20
REMARK    5  A    between atoms: C_24  and  N_25
REMARK                            x       y       z     vdW  Elec       q    Type
REMARK                         _______ _______ _______ _____ _____    ______ ____
ROOT
ATOM      1  C   UNL     1      -0.317  12.999  21.489  0.00  0.00    +0.000 A 
ATOM      2  N   UNL     1      -1.012  13.349  22.580  0.00  0.00    +0.000 NA
ATOM      3  N   UNL     1      -1.278  12.172  23.179  0.00  0.00    +0.000 N 
ATOM      4  C   UNL     1      -0.745  11.082  22.543  0.00  0.00    +0.000 A 
ATOM      5  C   UNL     1      -0.748   9.720  22.853  0.00  0.00    +0.000 A 
ATOM      6  C   UNL     1      -0.032   8.861  21.998  0.00  0.00    +0.000 A 
ATOM      7  C   UNL     1       0.645   9.323  20.857  0.00  0.00    +0.000 A 
ATOM      8  C   UNL     1       0.560  10.697  20.568  0.00  0.00    +0.000 A 
ATOM      9  C   UNL     1      -0.113  11.594  21.419  0.00  0.00    +0.000 A 
ATOM     10  H   UNL     1      -1.810  12.182  24.041  0.00  0.00    +0.000 HD
ENDROOT
BRANCH   1  17
ATOM     11  C   UNL     1       2.475  16.274  18.723  0.00  0.00    +0.000 A 
ATOM     12  C   UNL     1       1.959  17.319  17.936  0.00  0.00    +0.000 A 
ATOM     13  C   UNL     1       0.589  17.497  17.784  0.00  0.00    +0.000 A 
ATOM     14  N   UNL     1      -0.368  16.730  18.343  0.00  0.00    +0.000 NA
ATOM     15  C   UNL     1       0.142  15.752  19.109  0.00  0.00    +0.000 A 
ATOM     16  N   UNL     1      -0.618  14.835  19.785  0.00  0.00    +0.000 N 
ATOM     17  C   UNL     1       0.189  14.033  20.548  0.00  0.00    +0.000 A 
ATOM     18  C   UNL     1       1.491  14.393  20.279  0.00  0.00    +0.000 A 
ATOM     19  C   UNL     1       1.487  15.478  19.354  0.00  0.00    +0.000 A 
ATOM     20  H   UNL     1      -1.626  14.798  19.773  0.00  0.00    +0.000 HD
BRANCH  11  25
ATOM     21  C   UNL     1       8.010  16.016  17.965  0.00  0.00    +0.000 C 
ATOM     22  N   UNL     1       6.742  15.790  18.659  0.00  0.00    +0.000 NA
ATOM     23  C   UNL     1       5.839  14.962  17.824  0.00  0.00    +0.000 C 
ATOM     24  C   UNL     1       4.443  14.754  18.464  0.00  0.00    +0.000 C 
ATOM     25  N   UNL     1       3.848  16.063  18.762  0.00  0.00    +0.000 N 
ATOM     26  C   UNL     1       4.694  16.905  19.624  0.00  0.00    +0.000 C 
ATOM     27  C   UNL     1       6.081  17.083  18.959  0.00  0.00    +0.000 C 
ENDBRANCH  11  25
ENDBRANCH   1  17
BRANCH   7  28
ATOM     28  C   UNL     1       1.449   8.434  19.982  0.00  0.00    +0.000 A 
ATOM     29  C   UNL     1       1.835   8.792  18.691  0.00  0.00    +0.000 A 
ATOM     30  N   UNL     1       2.550   8.006  17.848  0.00  0.00    +0.000 NA
ATOM     31  C   UNL     1       2.928   6.798  18.322  0.00  0.00    +0.000 A 
ATOM     32  C   UNL     1       2.677   6.344  19.612  0.00  0.00    +0.000 A 
ATOM     33  C   UNL     1       1.874   7.159  20.410  0.00  0.00    +0.000 A 
BRANCH  32  34
ATOM     34  N   UNL     1       2.992   5.042  20.021  0.00  0.00    +0.000 N 
ATOM     35  H   UNL     1       3.802   4.646  19.555  0.00  0.00    +0.000 HD
ATOM     36  H   UNL     1       3.045   4.930  21.029  0.00  0.00    +0.000 HD
ENDBRANCH  32  34
ENDBRANCH   7  28
TORSDOF 4
ENDMDL
