MODEL 1
REMARK VINA RESULT:      -7.5      0.000      0.000
REMARK  Name = 
REMARK  3 active torsions:
REMARK  status: ('A' for Active; 'I' for Inactive)
REMARK    1  A    between atoms: C_1  and  O_2
REMARK    2  A    between atoms: O_2  and  C_3
REMARK    3  A    between atoms: C_7  and  N_8
REMARK                            x       y       z     vdW  Elec       q    Type
REMARK                         _______ _______ _______ _____ _____    ______ ____
ROOT
ATOM      1  N   UNL     1       0.231   9.656  20.177  0.00  0.00    +0.000 N 
ATOM      2  C   UNL     1      -0.126   9.417  21.581  0.00  0.00    +0.000 C 
ATOM      3  C   UNL     1      -0.409  10.769  22.252  0.00  0.00    +0.000 C 
ATOM      4  N   UNL     1      -1.414  11.552  21.519  0.00  0.00    +0.000 N 
ATOM      5  C   UNL     1      -2.363  12.241  22.260  0.00  0.00    +0.000 C 
ATOM      6  O   UNL     1      -2.627  11.875  23.412  0.00  0.00    +0.000 OA
ATOM      7  N   UNL     1      -2.941  13.415  21.710  0.00  0.00    +0.000 N 
ATOM      8  C   UNL     1      -4.118  13.856  22.436  0.00  0.00    +0.000 A 
ATOM      9  C   UNL     1      -5.286  13.066  22.415  0.00  0.00    +0.000 A 
ATOM     10  C   UNL     1      -6.432  13.474  23.110  0.00  0.00    +0.000 A 
ATOM     11  C   UNL     1      -6.446  14.675  23.825  0.00  0.00    +0.000 A 
ATOM     12  C   UNL     1      -5.286  15.444  23.880  0.00  0.00    +0.000 A 
ATOM     13  C   UNL     1      -4.135  15.020  23.221  0.00  0.00    +0.000 A 
ATOM     14  C   UNL     1      -2.849  15.712  23.449  0.00  0.00    +0.000 A 
ATOM     15  O   UNL     1      -2.746  16.627  24.249  0.00  0.00    +0.000 OA
ATOM     16  C   UNL     1      -1.716  15.274  22.645  0.00  0.00    +0.000 A 
ATOM     17  C   UNL     1      -0.402  15.578  22.979  0.00  0.00    +0.000 A 
ATOM     18  C   UNL     1       0.613  15.176  22.118  0.00  0.00    +0.000 A 
ATOM     19  C   UNL     1       0.244  14.664  20.889  0.00  0.00    +0.000 A 
ATOM     20  N   UNL     1      -1.026  14.324  20.587  0.00  0.00    +0.000 NA
ATOM     21  C   UNL     1      -1.955  14.459  21.557  0.00  0.00    +0.000 A 
ATOM     22  C   UNL     1      -1.146  11.678  20.072  0.00  0.00    +0.000 C 
ATOM     23  C   UNL     1      -0.809  10.339  19.391  0.00  0.00    +0.000 C 
ENDROOT
BRANCH   1  28
ATOM     24  C   UNL     1       2.583   6.879  19.503  0.00  0.00    +0.000 A 
ATOM     25  C   UNL     1       3.024   7.215  18.222  0.00  0.00    +0.000 A 
ATOM     26  C   UNL     1       2.583   8.384  17.611  0.00  0.00    +0.000 A 
ATOM     27  C   UNL     1       1.679   9.215  18.272  0.00  0.00    +0.000 A 
ATOM     28  C   UNL     1       1.205   8.901  19.552  0.00  0.00    +0.000 A 
ATOM     29  C   UNL     1       1.690   7.728  20.162  0.00  0.00    +0.000 A 
BRANCH  24  31
ATOM     30  C   UNL     1       4.226   5.169  19.325  0.00  0.00    +0.000 C 
ATOM     31  O   UNL     1       3.081   5.698  19.979  0.00  0.00    +0.000 OA
ENDBRANCH  24  31
ENDBRANCH   1  28
TORSDOF 2
ENDMDL
MODEL 2
REMARK VINA RESULT:      -7.3      2.066      3.099
REMARK  Name = 
REMARK  3 active torsions:
REMARK  status: ('A' for Active; 'I' for Inactive)
REMARK    1  A    between atoms: C_1  and  O_2
REMARK    2  A    between atoms: O_2  and  C_3
REMARK    3  A    between atoms: C_7  and  N_8
REMARK                            x       y       z     vdW  Elec       q    Type
REMARK                         _______ _______ _______ _____ _____    ______ ____
ROOT
ATOM      1  N   UNL     1       1.883   8.259  19.059  0.00  0.00    +0.000 N 
ATOM      2  C   UNL     1       1.280   8.212  20.397  0.00  0.00    +0.000 C 
ATOM      3  C   UNL     1       1.111   9.649  20.912  0.00  0.00    +0.000 C 
ATOM      4  N   UNL     1       0.368  10.493  19.965  0.00  0.00    +0.000 N 
ATOM      5  C   UNL     1      -0.564  11.380  20.484  0.00  0.00    +0.000 C 
ATOM      6  O   UNL     1      -1.058  11.169  21.599  0.00  0.00    +0.000 OA
ATOM      7  N   UNL     1      -0.858  12.566  19.761  0.00  0.00    +0.000 N 
ATOM      8  C   UNL     1      -2.048  13.239  20.245  0.00  0.00    +0.000 A 
ATOM      9  C   UNL     1      -3.308  12.627  20.086  0.00  0.00    +0.000 A 
ATOM     10  C   UNL     1      -4.470  13.260  20.547  0.00  0.00    +0.000 A 
ATOM     11  C   UNL     1      -4.405  14.514  21.160  0.00  0.00    +0.000 A 
ATOM     12  C   UNL     1      -3.162  15.111  21.353  0.00  0.00    +0.000 A 
ATOM     13  C   UNL     1      -2.004  14.465  20.929  0.00  0.00    +0.000 A 
ATOM     14  C   UNL     1      -0.676  14.984  21.320  0.00  0.00    +0.000 A 
ATOM     15  O   UNL     1      -0.556  15.947  22.058  0.00  0.00    +0.000 OA
ATOM     16  C   UNL     1       0.485  14.311  20.751  0.00  0.00    +0.000 A 
ATOM     17  C   UNL     1       1.762  14.455  21.279  0.00  0.00    +0.000 A 
ATOM     18  C   UNL     1       2.823  13.830  20.632  0.00  0.00    +0.000 A 
ATOM     19  C   UNL     1       2.573  13.259  19.399  0.00  0.00    +0.000 A 
ATOM     20  N   UNL     1       1.328  13.077  18.913  0.00  0.00    +0.000 NA
ATOM     21  C   UNL     1       0.292  13.437  19.701  0.00  0.00    +0.000 A 
ATOM     22  C   UNL     1       0.874  10.438  18.578  0.00  0.00    +0.000 C 
ATOM     23  C   UNL     1       1.097   9.005  18.063  0.00  0.00    +0.000 C 
ENDROOT
BRANCH   1  28
ATOM     24  C   UNL     1       4.583   6.633  17.119  0.00  0.00    +0.000 A 
ATOM     25  C   UNL     1       4.866   5.536  17.935  0.00  0.00    +0.000 A 
ATOM     26  C   UNL     1       4.128   5.311  19.092  0.00  0.00    +0.000 A 
ATOM     27  C   UNL     1       3.113   6.197  19.452  0.00  0.00    +0.000 A 
ATOM     28  C   UNL     1       2.811   7.316  18.664  0.00  0.00    +0.000 A 
ATOM     29  C   UNL     1       3.552   7.505  17.481  0.00  0.00    +0.000 A 
BRANCH  24  31
ATOM     30  C   UNL     1       5.621   5.565  15.265  0.00  0.00    +0.000 C 
ATOM     31  O   UNL     1       5.392   6.744  16.024  0.00  0.00    +0.000 OA
ENDBRANCH  24  31
ENDBRANCH   1  28
TORSDOF 2
ENDMDL
MODEL 3
REMARK VINA RESULT:      -7.3      1.384      1.908
REMARK  Name = 
REMARK  3 active torsions:
REMARK  status: ('A' for Active; 'I' for Inactive)
REMARK    1  A    between atoms: C_1  and  O_2
REMARK    2  A    between atoms: O_2  and  C_3
REMARK    3  A    between atoms: C_7  and  N_8
REMARK                            x       y       z     vdW  Elec       q    Type
REMARK                         _______ _______ _______ _____ _____    ______ ____
ROOT
ATOM      1  N   UNL     1       1.433   8.588  19.940  0.00  0.00    +0.000 N 
ATOM      2  C   UNL     1       1.313   8.540  21.402  0.00  0.00    +0.000 C 
ATOM      3  C   UNL     1       1.212   9.977  21.935  0.00  0.00    +0.000 C 
ATOM      4  N   UNL     1       0.134  10.735  21.284  0.00  0.00    +0.000 N 
ATOM      5  C   UNL     1      -0.640  11.569  22.078  0.00  0.00    +0.000 C 
ATOM      6  O   UNL     1      -0.719  11.359  23.295  0.00  0.00    +0.000 OA
ATOM      7  N   UNL     1      -1.249  12.707  21.486  0.00  0.00    +0.000 N 
ATOM      8  C   UNL     1      -2.261  13.308  22.334  0.00  0.00    +0.000 A 
ATOM      9  C   UNL     1      -3.450  12.602  22.607  0.00  0.00    +0.000 A 
ATOM     10  C   UNL     1      -4.440  13.164  23.424  0.00  0.00    +0.000 A 
ATOM     11  C   UNL     1      -4.274  14.439  23.973  0.00  0.00    +0.000 A 
ATOM     12  C   UNL     1      -3.088  15.130  23.738  0.00  0.00    +0.000 A 
ATOM     13  C   UNL     1      -2.089  14.555  22.957  0.00  0.00    +0.000 A 
ATOM     14  C   UNL     1      -0.752  15.180  22.881  0.00  0.00    +0.000 A 
ATOM     15  O   UNL     1      -0.470  16.173  23.530  0.00  0.00    +0.000 OA
ATOM     16  C   UNL     1       0.205  14.575  21.962  0.00  0.00    +0.000 A 
ATOM     17  C   UNL     1       1.569  14.827  22.034  0.00  0.00    +0.000 A 
ATOM     18  C   UNL     1       2.401  14.259  21.075  0.00  0.00    +0.000 A 
ATOM     19  C   UNL     1       1.803  13.633  19.999  0.00  0.00    +0.000 A 
ATOM     20  N   UNL     1       0.485  13.346  19.956  0.00  0.00    +0.000 NA
ATOM     21  C   UNL     1      -0.256  13.656  21.041  0.00  0.00    +0.000 A 
ATOM     22  C   UNL     1       0.155  10.672  19.808  0.00  0.00    +0.000 C 
ATOM     23  C   UNL     1       0.306   9.243  19.257  0.00  0.00    +0.000 C 
ENDROOT
BRANCH   1  28
ATOM     24  C   UNL     1       3.180   5.447  19.055  0.00  0.00    +0.000 A 
ATOM     25  C   UNL     1       3.720   5.789  17.815  0.00  0.00    +0.000 A 
ATOM     26  C   UNL     1       3.550   7.072  17.303  0.00  0.00    +0.000 A 
ATOM     27  C   UNL     1       2.817   8.015  18.023  0.00  0.00    +0.000 A 
ATOM     28  C   UNL     1       2.249   7.701  19.264  0.00  0.00    +0.000 A 
ATOM     29  C   UNL     1       2.461   6.406  19.775  0.00  0.00    +0.000 A 
BRANCH  24  31
ATOM     30  C   UNL     1       4.699   3.622  19.172  0.00  0.00    +0.000 C 
ATOM     31  O   UNL     1       3.407   4.153  19.431  0.00  0.00    +0.000 OA
ENDBRANCH  24  31
ENDBRANCH   1  28
TORSDOF 2
ENDMDL
MODEL 4
REMARK VINA RESULT:      -7.3      1.893      2.779
REMARK  Name = 
REMARK  3 active torsions:
REMARK  status: ('A' for Active; 'I' for Inactive)
REMARK    1  A    between atoms: C_1  and  O_2
REMARK    2  A    between atoms: O_2  and  C_3
REMARK    3  A    between atoms: C_7  and  N_8
REMARK                            x       y       z     vdW  Elec       q    Type
REMARK                         _______ _______ _______ _____ _____    ______ ____
ROOT
ATOM      1  N   UNL     1       1.872   8.287  19.103  0.00  0.00    +0.000 N 
ATOM      2  C   UNL     1       1.267   8.250  20.440  0.00  0.00    +0.000 C 
ATOM      3  C   UNL     1       1.089   9.691  20.938  0.00  0.00    +0.000 C 
ATOM      4  N   UNL     1       0.341  10.520  19.982  0.00  0.00    +0.000 N 
ATOM      5  C   UNL     1      -0.598  11.406  20.490  0.00  0.00    +0.000 C 
ATOM      6  O   UNL     1      -1.092  11.204  21.607  0.00  0.00    +0.000 OA
ATOM      7  N   UNL     1      -0.899  12.582  19.753  0.00  0.00    +0.000 N 
ATOM      8  C   UNL     1      -2.095  13.252  20.228  0.00  0.00    +0.000 A 
ATOM      9  C   UNL     1      -3.350  12.629  20.075  0.00  0.00    +0.000 A 
ATOM     10  C   UNL     1      -4.517  13.260  20.527  0.00  0.00    +0.000 A 
ATOM     11  C   UNL     1      -4.462  14.521  21.126  0.00  0.00    +0.000 A 
ATOM     12  C   UNL     1      -3.222  15.129  21.314  0.00  0.00    +0.000 A 
ATOM     13  C   UNL     1      -2.060  14.486  20.899  0.00  0.00    +0.000 A 
ATOM     14  C   UNL     1      -0.736  15.018  21.286  0.00  0.00    +0.000 A 
ATOM     15  O   UNL     1      -0.623  15.991  22.013  0.00  0.00    +0.000 OA
ATOM     16  C   UNL     1       0.430  14.347  20.726  0.00  0.00    +0.000 A 
ATOM     17  C   UNL     1       1.706  14.506  21.253  0.00  0.00    +0.000 A 
ATOM     18  C   UNL     1       2.772  13.881  20.614  0.00  0.00    +0.000 A 
ATOM     19  C   UNL     1       2.527  13.295  19.387  0.00  0.00    +0.000 A 
ATOM     20  N   UNL     1       1.284  13.099  18.902  0.00  0.00    +0.000 NA
ATOM     21  C   UNL     1       0.245  13.460  19.685  0.00  0.00    +0.000 A 
ATOM     22  C   UNL     1       0.849  10.453  18.596  0.00  0.00    +0.000 C 
ATOM     23  C   UNL     1       1.083   9.016  18.097  0.00  0.00    +0.000 C 
ENDROOT
BRANCH   1  28
ATOM     24  C   UNL     1       3.806   5.132  19.027  0.00  0.00    +0.000 A 
ATOM     25  C   UNL     1       4.538   5.303  17.852  0.00  0.00    +0.000 A 
ATOM     26  C   UNL     1       4.430   6.481  17.120  0.00  0.00    +0.000 A 
ATOM     27  C   UNL     1       3.568   7.489  17.551  0.00  0.00    +0.000 A 
ATOM     28  C   UNL     1       2.807   7.345  18.719  0.00  0.00    +0.000 A 
ATOM     29  C   UNL     1       2.958   6.156  19.458  0.00  0.00    +0.000 A 
BRANCH  24  31
ATOM     30  C   UNL     1       4.007   2.773  18.805  0.00  0.00    +0.000 C 
ATOM     31  O   UNL     1       3.993   3.924  19.638  0.00  0.00    +0.000 OA
ENDBRANCH  24  31
ENDBRANCH   1  28
TORSDOF 2
ENDMDL
MODEL 5
REMARK VINA RESULT:      -7.2      4.016      5.680
REMARK  Name = 
REMARK  3 active torsions:
REMARK  status: ('A' for Active; 'I' for Inactive)
REMARK    1  A    between atoms: C_1  and  O_2
REMARK    2  A    between atoms: O_2  and  C_3
REMARK    3  A    between atoms: C_7  and  N_8
REMARK                            x       y       z     vdW  Elec       q    Type
REMARK                         _______ _______ _______ _____ _____    ______ ____
ROOT
ATOM      1  N   UNL     1       2.168   6.996  18.946  0.00  0.00    +0.000 N 
ATOM      2  C   UNL     1       2.876   7.813  17.952  0.00  0.00    +0.000 C 
ATOM      3  C   UNL     1       2.102   9.124  17.751  0.00  0.00    +0.000 C 
ATOM      4  N   UNL     1       1.863   9.826  19.020  0.00  0.00    +0.000 N 
ATOM      5  C   UNL     1       2.003  11.206  19.032  0.00  0.00    +0.000 C 
ATOM      6  O   UNL     1       2.704  11.759  18.176  0.00  0.00    +0.000 OA
ATOM      7  N   UNL     1       1.256  11.962  19.973  0.00  0.00    +0.000 N 
ATOM      8  C   UNL     1       1.717  13.333  20.086  0.00  0.00    +0.000 A 
ATOM      9  C   UNL     1       2.991  13.596  20.630  0.00  0.00    +0.000 A 
ATOM     10  C   UNL     1       3.456  14.913  20.747  0.00  0.00    +0.000 A 
ATOM     11  C   UNL     1       2.663  15.990  20.341  0.00  0.00    +0.000 A 
ATOM     12  C   UNL     1       1.418  15.737  19.771  0.00  0.00    +0.000 A 
ATOM     13  C   UNL     1       0.972  14.427  19.619  0.00  0.00    +0.000 A 
ATOM     14  C   UNL     1      -0.241  14.142  18.825  0.00  0.00    +0.000 A 
ATOM     15  O   UNL     1      -0.850  15.024  18.243  0.00  0.00    +0.000 OA
ATOM     16  C   UNL     1      -0.699  12.758  18.801  0.00  0.00    +0.000 A 
ATOM     17  C   UNL     1      -1.593  12.285  17.848  0.00  0.00    +0.000 A 
ATOM     18  C   UNL     1      -2.028  10.967  17.940  0.00  0.00    +0.000 A 
ATOM     19  C   UNL     1      -1.693  10.262  19.080  0.00  0.00    +0.000 A 
ATOM     20  N   UNL     1      -0.787  10.703  19.977  0.00  0.00    +0.000 NA
ATOM     21  C   UNL     1      -0.161  11.869  19.709  0.00  0.00    +0.000 A 
ATOM     22  C   UNL     1       1.284   8.976  20.082  0.00  0.00    +0.000 C 
ATOM     23  C   UNL     1       2.017   7.635  20.263  0.00  0.00    +0.000 C 
ENDROOT
BRANCH   1  28
ATOM     24  C   UNL     1       1.450   3.456  19.754  0.00  0.00    +0.000 A 
ATOM     25  C   UNL     1       1.712   2.850  18.526  0.00  0.00    +0.000 A 
ATOM     26  C   UNL     1       2.176   3.604  17.453  0.00  0.00    +0.000 A 
ATOM     27  C   UNL     1       2.360   4.979  17.599  0.00  0.00    +0.000 A 
ATOM     28  C   UNL     1       2.093   5.623  18.814  0.00  0.00    +0.000 A 
ATOM     29  C   UNL     1       1.654   4.833  19.893  0.00  0.00    +0.000 A 
BRANCH  24  31
ATOM     30  C   UNL     1       1.717   2.540  21.932  0.00  0.00    +0.000 C 
ATOM     31  O   UNL     1       0.985   2.605  20.716  0.00  0.00    +0.000 OA
ENDBRANCH  24  31
ENDBRANCH   1  28
TORSDOF 2
ENDMDL
MODEL 6
REMARK VINA RESULT:      -7.1      1.766      2.668
REMARK  Name = 
REMARK  3 active torsions:
REMARK  status: ('A' for Active; 'I' for Inactive)
REMARK    1  A    between atoms: C_1  and  O_2
REMARK    2  A    between atoms: O_2  and  C_3
REMARK    3  A    between atoms: C_7  and  N_8
REMARK                            x       y       z     vdW  Elec       q    Type
REMARK                         _______ _______ _______ _____ _____    ______ ____
ROOT
ATOM      1  N   UNL     1       1.590   8.364  19.812  0.00  0.00    +0.000 N 
ATOM      2  C   UNL     1       1.369   8.355  21.264  0.00  0.00    +0.000 C 
ATOM      3  C   UNL     1       1.368   9.805  21.769  0.00  0.00    +0.000 C 
ATOM      4  N   UNL     1       0.410  10.647  21.037  0.00  0.00    +0.000 N 
ATOM      5  C   UNL     1      -0.334  11.563  21.766  0.00  0.00    +0.000 C 
ATOM      6  O   UNL     1      -0.512  11.385  22.977  0.00  0.00    +0.000 OA
ATOM      7  N   UNL     1      -0.793  12.741  21.120  0.00  0.00    +0.000 N 
ATOM      8  C   UNL     1      -1.798  13.449  21.889  0.00  0.00    +0.000 A 
ATOM      9  C   UNL     1      -3.064  12.861  22.091  0.00  0.00    +0.000 A 
ATOM     10  C   UNL     1      -4.049  13.528  22.832  0.00  0.00    +0.000 A 
ATOM     11  C   UNL     1      -3.801  14.793  23.374  0.00  0.00    +0.000 A 
ATOM     12  C   UNL     1      -2.543  15.366  23.210  0.00  0.00    +0.000 A 
ATOM     13  C   UNL     1      -1.552  14.687  22.506  0.00  0.00    +0.000 A 
ATOM     14  C   UNL     1      -0.161  15.185  22.512  0.00  0.00    +0.000 A 
ATOM     15  O   UNL     1       0.169  16.160  23.166  0.00  0.00    +0.000 OA
ATOM     16  C   UNL     1       0.794  14.476  21.668  0.00  0.00    +0.000 A 
ATOM     17  C   UNL     1       2.168  14.603  21.829  0.00  0.00    +0.000 A 
ATOM     18  C   UNL     1       3.005  13.943  20.936  0.00  0.00    +0.000 A 
ATOM     19  C   UNL     1       2.423  13.353  19.830  0.00  0.00    +0.000 A 
ATOM     20  N   UNL     1       1.090  13.188  19.702  0.00  0.00    +0.000 NA
ATOM     21  C   UNL     1       0.311  13.586  20.730  0.00  0.00    +0.000 A 
ATOM     22  C   UNL     1       0.523  10.554  19.567  0.00  0.00    +0.000 C 
ATOM     23  C   UNL     1       0.576   9.106  19.046  0.00  0.00    +0.000 C 
ENDROOT
BRANCH   1  28
ATOM     24  C   UNL     1       3.932   6.762  17.436  0.00  0.00    +0.000 A 
ATOM     25  C   UNL     1       4.122   5.524  18.051  0.00  0.00    +0.000 A 
ATOM     26  C   UNL     1       3.434   5.205  19.218  0.00  0.00    +0.000 A 
ATOM     27  C   UNL     1       2.566   6.135  19.788  0.00  0.00    +0.000 A 
ATOM     28  C   UNL     1       2.362   7.393  19.205  0.00  0.00    +0.000 A 
ATOM     29  C   UNL     1       3.047   7.680  18.008  0.00  0.00    +0.000 A 
BRANCH  24  31
ATOM     30  C   UNL     1       5.359   5.818  15.785  0.00  0.00    +0.000 C 
ATOM     31  O   UNL     1       4.680   6.951  16.308  0.00  0.00    +0.000 OA
ENDBRANCH  24  31
ENDBRANCH   1  28
TORSDOF 2
ENDMDL
MODEL 7
REMARK VINA RESULT:      -7.0      8.168     12.119
REMARK  Name = 
REMARK  3 active torsions:
REMARK  status: ('A' for Active; 'I' for Inactive)
REMARK    1  A    between atoms: C_1  and  O_2
REMARK    2  A    between atoms: O_2  and  C_3
REMARK    3  A    between atoms: C_7  and  N_8
REMARK                            x       y       z     vdW  Elec       q    Type
REMARK                         _______ _______ _______ _____ _____    ______ ____
ROOT
ATOM      1  N   UNL     1       3.830  15.631  19.337  0.00  0.00    +0.000 N 
ATOM      2  C   UNL     1       4.269  14.820  18.195  0.00  0.00    +0.000 C 
ATOM      3  C   UNL     1       5.750  15.117  17.922  0.00  0.00    +0.000 C 
ATOM      4  N   UNL     1       6.582  14.936  19.121  0.00  0.00    +0.000 N 
ATOM      5  C   UNL     1       7.820  14.330  18.964  0.00  0.00    +0.000 C 
ATOM      6  O   UNL     1       8.026  13.598  17.988  0.00  0.00    +0.000 OA
ATOM      7  N   UNL     1       8.858  14.646  19.880  0.00  0.00    +0.000 N 
ATOM      8  C   UNL     1       9.981  13.732  19.794  0.00  0.00    +0.000 A 
ATOM      9  C   UNL     1       9.815  12.386  20.181  0.00  0.00    +0.000 A 
ATOM     10  C   UNL     1      10.888  11.487  20.104  0.00  0.00    +0.000 A 
ATOM     11  C   UNL     1      12.143  11.908  19.657  0.00  0.00    +0.000 A 
ATOM     12  C   UNL     1      12.307  13.227  19.239  0.00  0.00    +0.000 A 
ATOM     13  C   UNL     1      11.232  14.110  19.279  0.00  0.00    +0.000 A 
ATOM     14  C   UNL     1      11.336  15.439  18.641  0.00  0.00    +0.000 A 
ATOM     15  O   UNL     1      12.332  15.778  18.023  0.00  0.00    +0.000 OA
ATOM     16  C   UNL     1      10.206  16.343  18.816  0.00  0.00    +0.000 A 
ATOM     17  C   UNL     1      10.013  17.459  18.012  0.00  0.00    +0.000 A 
ATOM     18  C   UNL     1       8.944  18.303  18.293  0.00  0.00    +0.000 A 
ATOM     19  C   UNL     1       8.250  18.087  19.468  0.00  0.00    +0.000 A 
ATOM     20  N   UNL     1       8.406  16.978  20.219  0.00  0.00    +0.000 NA
ATOM     21  C   UNL     1       9.252  16.030  19.763  0.00  0.00    +0.000 A 
ATOM     22  C   UNL     1       6.071  15.629  20.322  0.00  0.00    +0.000 C 
ATOM     23  C   UNL     1       4.574  15.384  20.582  0.00  0.00    +0.000 C 
ENDROOT
BRANCH   1  28
ATOM     24  C   UNL     1       0.724  17.284  18.186  0.00  0.00    +0.000 A 
ATOM     25  C   UNL     1      -0.082  17.141  19.316  0.00  0.00    +0.000 A 
ATOM     26  C   UNL     1       0.422  16.548  20.469  0.00  0.00    +0.000 A 
ATOM     27  C   UNL     1       1.733  16.074  20.490  0.00  0.00    +0.000 A 
ATOM     28  C   UNL     1       2.566  16.189  19.369  0.00  0.00    +0.000 A 
ATOM     29  C   UNL     1       2.042  16.820  18.225  0.00  0.00    +0.000 A 
BRANCH  24  31
ATOM     30  C   UNL     1       0.932  18.448  16.123  0.00  0.00    +0.000 C 
ATOM     31  O   UNL     1       0.101  17.868  17.119  0.00  0.00    +0.000 OA
ENDBRANCH  24  31
ENDBRANCH   1  28
TORSDOF 2
ENDMDL
MODEL 8
REMARK VINA RESULT:      -6.9      7.055      8.708
REMARK  Name = 
REMARK  3 active torsions:
REMARK  status: ('A' for Active; 'I' for Inactive)
REMARK    1  A    between atoms: C_1  and  O_2
REMARK    2  A    between atoms: O_2  and  C_3
REMARK    3  A    between atoms: C_7  and  N_8
REMARK                            x       y       z     vdW  Elec       q    Type
REMARK                         _______ _______ _______ _____ _____    ______ ____
ROOT
ATOM      1  N   UNL     1       7.930  15.698  18.454  0.00  0.00    +0.000 N 
ATOM      2  C   UNL     1       7.145  14.899  17.505  0.00  0.00    +0.000 C 
ATOM      3  C   UNL     1       5.725  14.727  18.064  0.00  0.00    +0.000 C 
ATOM      4  N   UNL     1       5.101  16.015  18.400  0.00  0.00    +0.000 N 
ATOM      5  C   UNL     1       3.761  16.185  18.086  0.00  0.00    +0.000 C 
ATOM      6  O   UNL     1       3.245  15.495  17.198  0.00  0.00    +0.000 OA
ATOM      7  N   UNL     1       2.984  17.085  18.863  0.00  0.00    +0.000 N 
ATOM      8  C   UNL     1       1.707  17.398  18.251  0.00  0.00    +0.000 A 
ATOM      9  C   UNL     1       1.672  18.137  17.051  0.00  0.00    +0.000 A 
ATOM     10  C   UNL     1       0.449  18.450  16.443  0.00  0.00    +0.000 A 
ATOM     11  C   UNL     1      -0.759  18.049  17.020  0.00  0.00    +0.000 A 
ATOM     12  C   UNL     1      -0.733  17.289  18.187  0.00  0.00    +0.000 A 
ATOM     13  C   UNL     1       0.483  16.946  18.770  0.00  0.00    +0.000 A 
ATOM     14  C   UNL     1       0.528  15.966  19.876  0.00  0.00    +0.000 A 
ATOM     15  O   UNL     1      -0.476  15.397  20.271  0.00  0.00    +0.000 OA
ATOM     16  C   UNL     1       1.826  15.739  20.499  0.00  0.00    +0.000 A 
ATOM     17  C   UNL     1       2.088  14.629  21.292  0.00  0.00    +0.000 A 
ATOM     18  C   UNL     1       3.334  14.527  21.902  0.00  0.00    +0.000 A 
ATOM     19  C   UNL     1       4.170  15.625  21.837  0.00  0.00    +0.000 A 
ATOM     20  N   UNL     1       3.936  16.678  21.028  0.00  0.00    +0.000 NA
ATOM     21  C   UNL     1       2.853  16.618  20.223  0.00  0.00    +0.000 A 
ATOM     22  C   UNL     1       5.943  16.895  19.237  0.00  0.00    +0.000 C 
ATOM     23  C   UNL     1       7.385  17.039  18.719  0.00  0.00    +0.000 C 
ENDROOT
BRANCH   1  28
ATOM     24  C   UNL     1      11.181  13.930  18.374  0.00  0.00    +0.000 A 
ATOM     25  C   UNL     1      12.018  14.898  18.932  0.00  0.00    +0.000 A 
ATOM     26  C   UNL     1      11.495  16.107  19.380  0.00  0.00    +0.000 A 
ATOM     27  C   UNL     1      10.130  16.363  19.252  0.00  0.00    +0.000 A 
ATOM     28  C   UNL     1       9.263  15.420  18.685  0.00  0.00    +0.000 A 
ATOM     29  C   UNL     1       9.812  14.192  18.267  0.00  0.00    +0.000 A 
BRANCH  24  31
ATOM     30  C   UNL     1      11.075  11.591  17.960  0.00  0.00    +0.000 C 
ATOM     31  O   UNL     1      11.825  12.798  17.961  0.00  0.00    +0.000 OA
ENDBRANCH  24  31
ENDBRANCH   1  28
TORSDOF 2
ENDMDL
MODEL 9
REMARK VINA RESULT:      -6.9      2.141      4.178
REMARK  Name = 
REMARK  3 active torsions:
REMARK  status: ('A' for Active; 'I' for Inactive)
REMARK    1  A    between atoms: C_1  and  O_2
REMARK    2  A    between atoms: O_2  and  C_3
REMARK    3  A    between atoms: C_7  and  N_8
REMARK                            x       y       z     vdW  Elec       q    Type
REMARK                         _______ _______ _______ _____ _____    ______ ____
ROOT
ATOM      1  N   UNL     1      -0.902  11.541  21.551  0.00  0.00    +0.000 N 
ATOM      2  C   UNL     1      -0.633  12.890  21.037  0.00  0.00    +0.000 C 
ATOM      3  C   UNL     1      -1.967  13.636  20.895  0.00  0.00    +0.000 C 
ATOM      4  N   UNL     1      -2.742  13.630  22.144  0.00  0.00    +0.000 N 
ATOM      5  C   UNL     1      -3.400  14.798  22.502  0.00  0.00    +0.000 C 
ATOM      6  O   UNL     1      -3.010  15.884  22.056  0.00  0.00    +0.000 OA
ATOM      7  N   UNL     1      -4.571  14.707  23.300  0.00  0.00    +0.000 N 
ATOM      8  C   UNL     1      -4.977  15.986  23.851  0.00  0.00    +0.000 A 
ATOM      9  C   UNL     1      -4.164  16.618  24.814  0.00  0.00    +0.000 A 
ATOM     10  C   UNL     1      -4.538  17.854  25.359  0.00  0.00    +0.000 A 
ATOM     11  C   UNL     1      -5.727  18.477  24.969  0.00  0.00    +0.000 A 
ATOM     12  C   UNL     1      -6.518  17.877  23.992  0.00  0.00    +0.000 A 
ATOM     13  C   UNL     1      -6.128  16.668  23.424  0.00  0.00    +0.000 A 
ATOM     14  C   UNL     1      -6.841  16.136  22.244  0.00  0.00    +0.000 A 
ATOM     15  O   UNL     1      -7.745  16.755  21.707  0.00  0.00    +0.000 OA
ATOM     16  C   UNL     1      -6.439  14.817  21.773  0.00  0.00    +0.000 A 
ATOM     17  C   UNL     1      -6.764  14.346  20.507  0.00  0.00    +0.000 A 
ATOM     18  C   UNL     1      -6.396  13.049  20.165  0.00  0.00    +0.000 A 
ATOM     19  C   UNL     1      -5.897  12.241  21.168  0.00  0.00    +0.000 A 
ATOM     20  N   UNL     1      -5.536  12.712  22.379  0.00  0.00    +0.000 NA
ATOM     21  C   UNL     1      -5.637  14.042  22.586  0.00  0.00    +0.000 A 
ATOM     22  C   UNL     1      -2.897  12.293  22.754  0.00  0.00    +0.000 C 
ATOM     23  C   UNL     1      -1.576  11.510  22.859  0.00  0.00    +0.000 C 
ENDROOT
BRANCH   1  28
ATOM     24  C   UNL     1       1.132   9.387  19.332  0.00  0.00    +0.000 A 
ATOM     25  C   UNL     1       1.490   8.367  20.215  0.00  0.00    +0.000 A 
ATOM     26  C   UNL     1       1.013   8.368  21.522  0.00  0.00    +0.000 A 
ATOM     27  C   UNL     1       0.191   9.406  21.960  0.00  0.00    +0.000 A 
ATOM     28  C   UNL     1      -0.176  10.453  21.105  0.00  0.00    +0.000 A 
ATOM     29  C   UNL     1       0.294  10.412  19.779  0.00  0.00    +0.000 A 
BRANCH  24  31
ATOM     30  C   UNL     1       2.575   8.189  17.871  0.00  0.00    +0.000 C 
ATOM     31  O   UNL     1       1.681   9.272  18.087  0.00  0.00    +0.000 OA
ENDBRANCH  24  31
ENDBRANCH   1  28
TORSDOF 2
ENDMDL
