MODEL 1
REMARK VINA RESULT:      -9.3      0.000      0.000
REMARK  Name = 
REMARK  7 active torsions:
REMARK  status: ('A' for Active; 'I' for Inactive)
REMARK    1  A    between atoms: C_2  and  C_3
REMARK    2  A    between atoms: C_6  and  N_7
REMARK    3  A    between atoms: N_7  and  S_8
REMARK    4  A    between atoms: S_8  and  C_11
REMARK    5  A    between atoms: C_25  and  O_26
REMARK    6  A    between atoms: C_25  and  C_27
REMARK    7  A    between atoms: C_27  and  C_28
REMARK                            x       y       z     vdW  Elec       q    Type
REMARK                         _______ _______ _______ _____ _____    ______ ____
ROOT
ATOM      1  C   UNL     1       0.799   9.693  19.073  0.00  0.00    +0.000 A 
ATOM      2  C   UNL     1       0.759   9.157  20.362  0.00  0.00    +0.000 A 
ATOM      3  C   UNL     1       1.448   7.976  20.661  0.00  0.00    +0.000 A 
ATOM      4  C   UNL     1       2.265   7.390  19.703  0.00  0.00    +0.000 A 
ATOM      5  C   UNL     1       2.404   7.980  18.448  0.00  0.00    +0.000 A 
ATOM      6  C   UNL     1       1.665   9.127  18.126  0.00  0.00    +0.000 A 
ENDROOT
BRANCH   1   8
ATOM      7  O   UNL     1      -1.147  10.668  18.251  0.00  0.00    +0.000 OA
ATOM      8  C   UNL     1      -0.005  10.882  18.668  0.00  0.00    +0.000 C 
ATOM      9  N   UNL     1       0.511  12.174  18.799  0.00  0.00    +0.000 N 
ATOM     10  C   UNL     1      -0.347  13.303  18.460  0.00  0.00    +0.000 C 
ATOM     11  C   UNL     1      -0.884  13.966  19.732  0.00  0.00    +0.000 C 
ATOM     12  C   UNL     1       0.245  14.360  20.708  0.00  0.00    +0.000 C 
ATOM     13  C   UNL     1       1.237  13.199  20.906  0.00  0.00    +0.000 C 
ATOM     14  C   UNL     1       1.677  12.574  19.593  0.00  0.00    +0.000 C 
BRANCH  12  15
ATOM     15  O   UNL     1       0.989  15.451  20.143  0.00  0.00    +0.000 OA
ATOM     16  H   UNL     1       1.883  15.426  20.531  0.00  0.00    +0.000 HD
ENDBRANCH  12  15
BRANCH  12  17
ATOM     17  C   UNL     1      -0.271  14.748  22.113  0.00  0.00    +0.000 C 
BRANCH  17  18
ATOM     18  C   UNL     1      -1.477  13.994  22.616  0.00  0.00    +0.000 A 
ATOM     19  C   UNL     1      -1.385  12.631  22.922  0.00  0.00    +0.000 A 
ATOM     20  C   UNL     1      -2.489  11.948  23.433  0.00  0.00    +0.000 A 
ATOM     21  C   UNL     1      -3.689  12.622  23.643  0.00  0.00    +0.000 A 
ATOM     22  C   UNL     1      -3.793  13.978  23.333  0.00  0.00    +0.000 A 
ATOM     23  C   UNL     1      -2.692  14.661  22.820  0.00  0.00    +0.000 A 
ENDBRANCH  17  18
ENDBRANCH  12  17
ENDBRANCH   1   8
BRANCH   4  24
ATOM     24  N   UNL     1       2.995   6.215  20.024  0.00  0.00    +0.000 N 
ATOM     25  H   UNL     1       3.095   5.938  20.994  0.00  0.00    +0.000 HD
BRANCH  24  26
ATOM     26  S   UNL     1       3.032   4.920  18.929  0.00  0.00    +0.000 S 
ATOM     27  O   UNL     1       3.161   3.717  19.718  0.00  0.00    +0.000 OA
ATOM     28  O   UNL     1       1.970   5.092  17.966  0.00  0.00    +0.000 OA
BRANCH  26  29
ATOM     29  C   UNL     1       4.595   5.191  18.127  0.00  0.00    +0.000 A 
ATOM     30  C   UNL     1       5.780   4.721  18.729  0.00  0.00    +0.000 A 
ATOM     31  C   UNL     1       6.945   4.616  17.964  0.00  0.00    +0.000 A 
ATOM     32  C   UNL     1       6.855   4.938  16.627  0.00  0.00    +0.000 A 
ATOM     33  C   UNL     1       5.704   5.461  16.073  0.00  0.00    +0.000 A 
ATOM     34  C   UNL     1       4.564   5.652  16.810  0.00  0.00    +0.000 A 
ATOM     35  O   UNL     1       5.802   5.601  14.722  0.00  0.00    +0.000 OA
ATOM     36  C   UNL     1       6.991   4.820  14.490  0.00  0.00    +0.000 C 
ATOM     37  O   UNL     1       7.801   4.688  15.678  0.00  0.00    +0.000 OA
ENDBRANCH  26  29
ENDBRANCH  24  26
ENDBRANCH   4  24
TORSDOF 7
ENDMDL
MODEL 2
REMARK VINA RESULT:      -9.0      0.980      1.647
REMARK  Name = 
REMARK  7 active torsions:
REMARK  status: ('A' for Active; 'I' for Inactive)
REMARK    1  A    between atoms: C_2  and  C_3
REMARK    2  A    between atoms: C_6  and  N_7
REMARK    3  A    between atoms: N_7  and  S_8
REMARK    4  A    between atoms: S_8  and  C_11
REMARK    5  A    between atoms: C_25  and  O_26
REMARK    6  A    between atoms: C_25  and  C_27
REMARK    7  A    between atoms: C_27  and  C_28
REMARK                            x       y       z     vdW  Elec       q    Type
REMARK                         _______ _______ _______ _____ _____    ______ ____
ROOT
ATOM      1  C   UNL     1       0.819   9.527  19.151  0.00  0.00    +0.000 A 
ATOM      2  C   UNL     1       0.732   9.040  20.458  0.00  0.00    +0.000 A 
ATOM      3  C   UNL     1       1.390   7.860  20.820  0.00  0.00    +0.000 A 
ATOM      4  C   UNL     1       2.224   7.224  19.909  0.00  0.00    +0.000 A 
ATOM      5  C   UNL     1       2.410   7.765  18.638  0.00  0.00    +0.000 A 
ATOM      6  C   UNL     1       1.702   8.912  18.252  0.00  0.00    +0.000 A 
ENDROOT
BRANCH   1   8
ATOM      7  O   UNL     1      -1.081  10.505  18.231  0.00  0.00    +0.000 OA
ATOM      8  C   UNL     1       0.050  10.715  18.679  0.00  0.00    +0.000 C 
ATOM      9  N   UNL     1       0.583  12.002  18.784  0.00  0.00    +0.000 N 
ATOM     10  C   UNL     1      -0.244  13.132  18.378  0.00  0.00    +0.000 C 
ATOM     11  C   UNL     1      -0.813  13.846  19.608  0.00  0.00    +0.000 C 
ATOM     12  C   UNL     1       0.290  14.256  20.608  0.00  0.00    +0.000 C 
ATOM     13  C   UNL     1       1.255  13.087  20.879  0.00  0.00    +0.000 C 
ATOM     14  C   UNL     1       1.728  12.410  19.604  0.00  0.00    +0.000 C 
BRANCH  12  15
ATOM     15  O   UNL     1       1.070  15.315  20.033  0.00  0.00    +0.000 OA
ATOM     16  H   UNL     1       1.831  15.470  20.623  0.00  0.00    +0.000 HD
ENDBRANCH  12  15
BRANCH  12  17
ATOM     17  C   UNL     1      -0.267  14.700  21.981  0.00  0.00    +0.000 C 
BRANCH  17  18
ATOM     18  C   UNL     1      -1.546  14.039  22.431  0.00  0.00    +0.000 A 
ATOM     19  C   UNL     1      -2.776  14.685  22.262  0.00  0.00    +0.000 A 
ATOM     20  C   UNL     1      -3.962  14.051  22.634  0.00  0.00    +0.000 A 
ATOM     21  C   UNL     1      -3.926  12.768  23.174  0.00  0.00    +0.000 A 
ATOM     22  C   UNL     1      -2.705  12.120  23.355  0.00  0.00    +0.000 A 
ATOM     23  C   UNL     1      -1.519  12.754  22.987  0.00  0.00    +0.000 A 
ENDBRANCH  17  18
ENDBRANCH  12  17
ENDBRANCH   1   8
BRANCH   4  24
ATOM     24  N   UNL     1       2.922   6.049  20.295  0.00  0.00    +0.000 N 
ATOM     25  H   UNL     1       3.027   5.831  21.279  0.00  0.00    +0.000 HD
BRANCH  24  26
ATOM     26  S   UNL     1       2.904   4.688  19.284  0.00  0.00    +0.000 S 
ATOM     27  O   UNL     1       3.144   3.542  20.130  0.00  0.00    +0.000 OA
ATOM     28  O   UNL     1       1.754   4.767  18.413  0.00  0.00    +0.000 OA
BRANCH  26  29
ATOM     29  C   UNL     1       4.378   4.950  18.325  0.00  0.00    +0.000 A 
ATOM     30  C   UNL     1       4.285   5.089  16.925  0.00  0.00    +0.000 A 
ATOM     31  C   UNL     1       5.360   5.632  16.215  0.00  0.00    +0.000 A 
ATOM     32  C   UNL     1       6.450   6.056  16.945  0.00  0.00    +0.000 A 
ATOM     33  C   UNL     1       6.548   5.849  18.305  0.00  0.00    +0.000 A 
ATOM     34  C   UNL     1       5.548   5.249  19.025  0.00  0.00    +0.000 A 
ATOM     35  O   UNL     1       7.653   6.444  18.836  0.00  0.00    +0.000 OA
ATOM     36  C   UNL     1       8.025   7.284  17.726  0.00  0.00    +0.000 C 
ATOM     37  O   UNL     1       7.483   6.810  16.474  0.00  0.00    +0.000 OA
ENDBRANCH  26  29
ENDBRANCH  24  26
ENDBRANCH   4  24
TORSDOF 7
ENDMDL
MODEL 3
REMARK VINA RESULT:      -9.0      0.548      1.275
REMARK  Name = 
REMARK  7 active torsions:
REMARK  status: ('A' for Active; 'I' for Inactive)
REMARK    1  A    between atoms: C_2  and  C_3
REMARK    2  A    between atoms: C_6  and  N_7
REMARK    3  A    between atoms: N_7  and  S_8
REMARK    4  A    between atoms: S_8  and  C_11
REMARK    5  A    between atoms: C_25  and  O_26
REMARK    6  A    between atoms: C_25  and  C_27
REMARK    7  A    between atoms: C_27  and  C_28
REMARK                            x       y       z     vdW  Elec       q    Type
REMARK                         _______ _______ _______ _____ _____    ______ ____
ROOT
ATOM      1  C   UNL     1       0.830   9.494  18.905  0.00  0.00    +0.000 A 
ATOM      2  C   UNL     1       1.594   8.820  17.949  0.00  0.00    +0.000 A 
ATOM      3  C   UNL     1       2.424   7.759  18.324  0.00  0.00    +0.000 A 
ATOM      4  C   UNL     1       2.410   7.298  19.635  0.00  0.00    +0.000 A 
ATOM      5  C   UNL     1       1.564   7.889  20.573  0.00  0.00    +0.000 A 
ATOM      6  C   UNL     1       0.779   8.993  20.213  0.00  0.00    +0.000 A 
ENDROOT
BRANCH   1   8
ATOM      7  O   UNL     1      -1.160  10.512  18.256  0.00  0.00    +0.000 OA
ATOM      8  C   UNL     1       0.016  10.702  18.582  0.00  0.00    +0.000 C 
ATOM      9  N   UNL     1       0.563  11.983  18.688  0.00  0.00    +0.000 N 
ATOM     10  C   UNL     1      -0.301  13.130  18.435  0.00  0.00    +0.000 C 
ATOM     11  C   UNL     1      -0.723  13.782  19.755  0.00  0.00    +0.000 C 
ATOM     12  C   UNL     1       0.489  14.145  20.641  0.00  0.00    +0.000 C 
ATOM     13  C   UNL     1       1.474  12.966  20.743  0.00  0.00    +0.000 C 
ATOM     14  C   UNL     1       1.795  12.353  19.390  0.00  0.00    +0.000 C 
BRANCH  12  15
ATOM     15  O   UNL     1       1.202  15.232  20.032  0.00  0.00    +0.000 OA
ATOM     16  H   UNL     1       1.796  15.607  20.710  0.00  0.00    +0.000 HD
ENDBRANCH  12  15
BRANCH  12  17
ATOM     17  C   UNL     1       0.095  14.520  22.089  0.00  0.00    +0.000 C 
BRANCH  17  18
ATOM     18  C   UNL     1      -1.133  13.843  22.646  0.00  0.00    +0.000 A 
ATOM     19  C   UNL     1      -2.275  14.588  22.960  0.00  0.00    +0.000 A 
ATOM     20  C   UNL     1      -3.424  13.953  23.429  0.00  0.00    +0.000 A 
ATOM     21  C   UNL     1      -3.441  12.569  23.585  0.00  0.00    +0.000 A 
ATOM     22  C   UNL     1      -2.306  11.818  23.284  0.00  0.00    +0.000 A 
ATOM     23  C   UNL     1      -1.155  12.453  22.818  0.00  0.00    +0.000 A 
ENDBRANCH  17  18
ENDBRANCH  12  17
ENDBRANCH   1   8
BRANCH   4  24
ATOM     24  N   UNL     1       3.224   6.194  20.002  0.00  0.00    +0.000 N 
ATOM     25  H   UNL     1       3.359   5.976  20.982  0.00  0.00    +0.000 HD
BRANCH  24  26
ATOM     26  S   UNL     1       3.330   4.848  18.975  0.00  0.00    +0.000 S 
ATOM     27  O   UNL     1       3.925   3.784  19.750  0.00  0.00    +0.000 OA
ATOM     28  O   UNL     1       2.071   4.681  18.290  0.00  0.00    +0.000 OA
BRANCH  26  29
ATOM     29  C   UNL     1       4.557   5.398  17.812  0.00  0.00    +0.000 A 
ATOM     30  C   UNL     1       5.785   5.907  18.280  0.00  0.00    +0.000 A 
ATOM     31  C   UNL     1       6.867   6.011  17.401  0.00  0.00    +0.000 A 
ATOM     32  C   UNL     1       6.681   5.555  16.114  0.00  0.00    +0.000 A 
ATOM     33  C   UNL     1       5.453   5.124  15.657  0.00  0.00    +0.000 A 
ATOM     34  C   UNL     1       4.349   5.081  16.469  0.00  0.00    +0.000 A 
ATOM     35  O   UNL     1       5.523   4.616  14.395  0.00  0.00    +0.000 OA
ATOM     36  C   UNL     1       6.954   4.493  14.270  0.00  0.00    +0.000 C 
ATOM     37  O   UNL     1       7.660   5.358  15.186  0.00  0.00    +0.000 OA
ENDBRANCH  26  29
ENDBRANCH  24  26
ENDBRANCH   4  24
TORSDOF 7
ENDMDL
MODEL 4
REMARK VINA RESULT:      -9.0      0.943      1.603
REMARK  Name = 
REMARK  7 active torsions:
REMARK  status: ('A' for Active; 'I' for Inactive)
REMARK    1  A    between atoms: C_2  and  C_3
REMARK    2  A    between atoms: C_6  and  N_7
REMARK    3  A    between atoms: N_7  and  S_8
REMARK    4  A    between atoms: S_8  and  C_11
REMARK    5  A    between atoms: C_25  and  O_26
REMARK    6  A    between atoms: C_25  and  C_27
REMARK    7  A    between atoms: C_27  and  C_28
REMARK                            x       y       z     vdW  Elec       q    Type
REMARK                         _______ _______ _______ _____ _____    ______ ____
ROOT
ATOM      1  C   UNL     1       0.787   9.602  18.926  0.00  0.00    +0.000 A 
ATOM      2  C   UNL     1       1.623   8.905  18.051  0.00  0.00    +0.000 A 
ATOM      3  C   UNL     1       2.370   7.812  18.505  0.00  0.00    +0.000 A 
ATOM      4  C   UNL     1       2.200   7.348  19.803  0.00  0.00    +0.000 A 
ATOM      5  C   UNL     1       1.282   7.965  20.650  0.00  0.00    +0.000 A 
ATOM      6  C   UNL     1       0.580   9.099  20.218  0.00  0.00    +0.000 A 
ENDROOT
BRANCH   1   8
ATOM      7  O   UNL     1      -1.079  10.693  18.064  0.00  0.00    +0.000 OA
ATOM      8  C   UNL     1       0.055  10.840  18.528  0.00  0.00    +0.000 C 
ATOM      9  N   UNL     1       0.627  12.102  18.716  0.00  0.00    +0.000 N 
ATOM     10  C   UNL     1      -0.164  13.279  18.380  0.00  0.00    +0.000 C 
ATOM     11  C   UNL     1      -0.717  13.931  19.651  0.00  0.00    +0.000 C 
ATOM     12  C   UNL     1       0.392  14.243  20.679  0.00  0.00    +0.000 C 
ATOM     13  C   UNL     1       1.320  13.031  20.878  0.00  0.00    +0.000 C 
ATOM     14  C   UNL     1       1.779  12.422  19.564  0.00  0.00    +0.000 C 
BRANCH  12  15
ATOM     15  O   UNL     1       1.207  15.312  20.174  0.00  0.00    +0.000 OA
ATOM     16  H   UNL     1       1.991  15.378  20.750  0.00  0.00    +0.000 HD
ENDBRANCH  12  15
BRANCH  12  17
ATOM     17  C   UNL     1      -0.158  14.616  22.076  0.00  0.00    +0.000 C 
BRANCH  17  18
ATOM     18  C   UNL     1      -1.432  13.928  22.499  0.00  0.00    +0.000 A 
ATOM     19  C   UNL     1      -1.405  12.612  22.974  0.00  0.00    +0.000 A 
ATOM     20  C   UNL     1      -2.577  11.996  23.410  0.00  0.00    +0.000 A 
ATOM     21  C   UNL     1      -3.783  12.692  23.378  0.00  0.00    +0.000 A 
ATOM     22  C   UNL     1      -3.823  14.000  22.899  0.00  0.00    +0.000 A 
ATOM     23  C   UNL     1      -2.652  14.616  22.459  0.00  0.00    +0.000 A 
ENDBRANCH  17  18
ENDBRANCH  12  17
ENDBRANCH   1   8
BRANCH   4  24
ATOM     24  N   UNL     1       2.931   6.213  20.246  0.00  0.00    +0.000 N 
ATOM     25  H   UNL     1       3.077   6.069  21.238  0.00  0.00    +0.000 HD
BRANCH  24  26
ATOM     26  S   UNL     1       2.895   4.782  19.338  0.00  0.00    +0.000 S 
ATOM     27  O   UNL     1       3.127   3.699  20.265  0.00  0.00    +0.000 OA
ATOM     28  O   UNL     1       1.744   4.808  18.467  0.00  0.00    +0.000 OA
BRANCH  26  29
ATOM     29  C   UNL     1       4.368   4.958  18.358  0.00  0.00    +0.000 A 
ATOM     30  C   UNL     1       4.282   4.915  16.952  0.00  0.00    +0.000 A 
ATOM     31  C   UNL     1       5.347   5.390  16.182  0.00  0.00    +0.000 A 
ATOM     32  C   UNL     1       6.421   5.931  16.855  0.00  0.00    +0.000 A 
ATOM     33  C   UNL     1       6.516   5.903  18.232  0.00  0.00    +0.000 A 
ATOM     34  C   UNL     1       5.526   5.373  19.018  0.00  0.00    +0.000 A 
ATOM     35  O   UNL     1       7.602   6.589  18.686  0.00  0.00    +0.000 OA
ATOM     36  C   UNL     1       7.960   7.289  17.479  0.00  0.00    +0.000 C 
ATOM     37  O   UNL     1       7.439   6.646  16.296  0.00  0.00    +0.000 OA
ENDBRANCH  26  29
ENDBRANCH  24  26
ENDBRANCH   4  24
TORSDOF 7
ENDMDL
MODEL 5
REMARK VINA RESULT:      -9.0      0.937      1.631
REMARK  Name = 
REMARK  7 active torsions:
REMARK  status: ('A' for Active; 'I' for Inactive)
REMARK    1  A    between atoms: C_2  and  C_3
REMARK    2  A    between atoms: C_6  and  N_7
REMARK    3  A    between atoms: N_7  and  S_8
REMARK    4  A    between atoms: S_8  and  C_11
REMARK    5  A    between atoms: C_25  and  O_26
REMARK    6  A    between atoms: C_25  and  C_27
REMARK    7  A    between atoms: C_27  and  C_28
REMARK                            x       y       z     vdW  Elec       q    Type
REMARK                         _______ _______ _______ _____ _____    ______ ____
ROOT
ATOM      1  C   UNL     1       0.751   9.676  18.973  0.00  0.00    +0.000 A 
ATOM      2  C   UNL     1       1.560   8.963  18.085  0.00  0.00    +0.000 A 
ATOM      3  C   UNL     1       2.320   7.878  18.534  0.00  0.00    +0.000 A 
ATOM      4  C   UNL     1       2.190   7.437  19.845  0.00  0.00    +0.000 A 
ATOM      5  C   UNL     1       1.299   8.069  20.709  0.00  0.00    +0.000 A 
ATOM      6  C   UNL     1       0.584   9.195  20.279  0.00  0.00    +0.000 A 
ENDROOT
BRANCH   1   8
ATOM      7  O   UNL     1      -1.132  10.752  18.129  0.00  0.00    +0.000 OA
ATOM      8  C   UNL     1       0.008  10.908  18.576  0.00  0.00    +0.000 C 
ATOM      9  N   UNL     1       0.576  12.173  18.747  0.00  0.00    +0.000 N 
ATOM     10  C   UNL     1      -0.226  13.345  18.413  0.00  0.00    +0.000 C 
ATOM     11  C   UNL     1      -0.764  14.003  19.688  0.00  0.00    +0.000 C 
ATOM     12  C   UNL     1       0.359  14.328  20.697  0.00  0.00    +0.000 C 
ATOM     13  C   UNL     1       1.295  13.122  20.891  0.00  0.00    +0.000 C 
ATOM     14  C   UNL     1       1.738  12.505  19.575  0.00  0.00    +0.000 C 
BRANCH  12  15
ATOM     15  O   UNL     1       1.161  15.397  20.173  0.00  0.00    +0.000 OA
ATOM     16  H   UNL     1       0.665  15.800  19.436  0.00  0.00    +0.000 HD
ENDBRANCH  12  15
BRANCH  12  17
ATOM     17  C   UNL     1      -0.173  14.708  22.099  0.00  0.00    +0.000 C 
BRANCH  17  18
ATOM     18  C   UNL     1      -1.389  13.957  22.580  0.00  0.00    +0.000 A 
ATOM     19  C   UNL     1      -1.302  12.599  22.908  0.00  0.00    +0.000 A 
ATOM     20  C   UNL     1      -2.416  11.920  23.400  0.00  0.00    +0.000 A 
ATOM     21  C   UNL     1      -3.624  12.593  23.569  0.00  0.00    +0.000 A 
ATOM     22  C   UNL     1      -3.724  13.943  23.236  0.00  0.00    +0.000 A 
ATOM     23  C   UNL     1      -2.611  14.622  22.742  0.00  0.00    +0.000 A 
ENDBRANCH  17  18
ENDBRANCH  12  17
ENDBRANCH   1   8
BRANCH   4  24
ATOM     24  N   UNL     1       2.934   6.309  20.284  0.00  0.00    +0.000 N 
ATOM     25  H   UNL     1       3.482   6.372  21.135  0.00  0.00    +0.000 HD
BRANCH  24  26
ATOM     26  S   UNL     1       2.377   4.746  19.936  0.00  0.00    +0.000 S 
ATOM     27  O   UNL     1       2.554   3.967  21.140  0.00  0.00    +0.000 OA
ATOM     28  O   UNL     1       1.101   4.841  19.269  0.00  0.00    +0.000 OA
BRANCH  26  29
ATOM     29  C   UNL     1       3.603   4.195  18.771  0.00  0.00    +0.000 A 
ATOM     30  C   UNL     1       3.247   4.006  17.420  0.00  0.00    +0.000 A 
ATOM     31  C   UNL     1       4.250   3.917  16.451  0.00  0.00    +0.000 A 
ATOM     32  C   UNL     1       5.553   4.072  16.874  0.00  0.00    +0.000 A 
ATOM     33  C   UNL     1       5.884   4.188  18.208  0.00  0.00    +0.000 A 
ATOM     34  C   UNL     1       4.933   4.200  19.195  0.00  0.00    +0.000 A 
ATOM     35  O   UNL     1       7.210   4.441  18.389  0.00  0.00    +0.000 OA
ATOM     36  C   UNL     1       7.572   4.779  17.035  0.00  0.00    +0.000 C 
ATOM     37  O   UNL     1       6.640   4.246  16.070  0.00  0.00    +0.000 OA
ENDBRANCH  26  29
ENDBRANCH  24  26
ENDBRANCH   4  24
TORSDOF 7
ENDMDL
MODEL 6
REMARK VINA RESULT:      -8.9      2.922      3.858
REMARK  Name = 
REMARK  7 active torsions:
REMARK  status: ('A' for Active; 'I' for Inactive)
REMARK    1  A    between atoms: C_2  and  C_3
REMARK    2  A    between atoms: C_6  and  N_7
REMARK    3  A    between atoms: N_7  and  S_8
REMARK    4  A    between atoms: S_8  and  C_11
REMARK    5  A    between atoms: C_25  and  O_26
REMARK    6  A    between atoms: C_25  and  C_27
REMARK    7  A    between atoms: C_27  and  C_28
REMARK                            x       y       z     vdW  Elec       q    Type
REMARK                         _______ _______ _______ _____ _____    ______ ____
ROOT
ATOM      1  C   UNL     1       1.761   8.833  18.830  0.00  0.00    +0.000 A 
ATOM      2  C   UNL     1       2.152   7.950  17.820  0.00  0.00    +0.000 A 
ATOM      3  C   UNL     1       2.513   6.634  18.129  0.00  0.00    +0.000 A 
ATOM      4  C   UNL     1       2.378   6.167  19.430  0.00  0.00    +0.000 A 
ATOM      5  C   UNL     1       1.878   7.005  20.425  0.00  0.00    +0.000 A 
ATOM      6  C   UNL     1       1.577   8.341  20.131  0.00  0.00    +0.000 A 
ENDROOT
BRANCH   1   8
ATOM      7  O   UNL     1       2.257  10.876  17.834  0.00  0.00    +0.000 OA
ATOM      8  C   UNL     1       1.475  10.275  18.576  0.00  0.00    +0.000 C 
ATOM      9  N   UNL     1       0.349  10.890  19.129  0.00  0.00    +0.000 N 
ATOM     10  C   UNL     1       0.079  12.281  18.785  0.00  0.00    +0.000 C 
ATOM     11  C   UNL     1      -1.046  12.366  17.749  0.00  0.00    +0.000 C 
ATOM     12  C   UNL     1      -2.317  11.616  18.203  0.00  0.00    +0.000 C 
ATOM     13  C   UNL     1      -1.973  10.210  18.729  0.00  0.00    +0.000 C 
ATOM     14  C   UNL     1      -0.816  10.220  19.713  0.00  0.00    +0.000 C 
BRANCH  12  15
ATOM     15  O   UNL     1      -2.916  12.333  19.293  0.00  0.00    +0.000 OA
ATOM     16  H   UNL     1      -2.824  11.780  20.091  0.00  0.00    +0.000 HD
ENDBRANCH  12  15
BRANCH  12  17
ATOM     17  C   UNL     1      -3.350  11.425  17.068  0.00  0.00    +0.000 C 
BRANCH  17  18
ATOM     18  C   UNL     1      -4.801  11.578  17.451  0.00  0.00    +0.000 A 
ATOM     19  C   UNL     1      -5.424  10.627  18.268  0.00  0.00    +0.000 A 
ATOM     20  C   UNL     1      -6.752  10.797  18.660  0.00  0.00    +0.000 A 
ATOM     21  C   UNL     1      -7.465  11.918  18.240  0.00  0.00    +0.000 A 
ATOM     22  C   UNL     1      -6.856  12.865  17.419  0.00  0.00    +0.000 A 
ATOM     23  C   UNL     1      -5.530  12.695  17.024  0.00  0.00    +0.000 A 
ENDBRANCH  17  18
ENDBRANCH  12  17
ENDBRANCH   1   8
BRANCH   4  24
ATOM     24  N   UNL     1       2.706   4.817  19.730  0.00  0.00    +0.000 N 
ATOM     25  H   UNL     1       2.396   4.410  20.605  0.00  0.00    +0.000 HD
BRANCH  24  26
ATOM     26  S   UNL     1       2.888   3.695  18.472  0.00  0.00    +0.000 S 
ATOM     27  O   UNL     1       3.070   2.404  19.094  0.00  0.00    +0.000 OA
ATOM     28  O   UNL     1       1.862   3.929  17.484  0.00  0.00    +0.000 OA
BRANCH  26  29
ATOM     29  C   UNL     1       4.462   4.180  17.802  0.00  0.00    +0.000 A 
ATOM     30  C   UNL     1       4.608   4.344  16.409  0.00  0.00    +0.000 A 
ATOM     31  C   UNL     1       5.708   5.046  15.911  0.00  0.00    +0.000 A 
ATOM     32  C   UNL     1       6.579   5.593  16.830  0.00  0.00    +0.000 A 
ATOM     33  C   UNL     1       6.455   5.364  18.185  0.00  0.00    +0.000 A 
ATOM     34  C   UNL     1       5.433   4.614  18.706  0.00  0.00    +0.000 A 
ATOM     35  O   UNL     1       7.352   6.087  18.912  0.00  0.00    +0.000 OA
ATOM     36  C   UNL     1       7.801   7.000  17.891  0.00  0.00    +0.000 C 
ATOM     37  O   UNL     1       7.566   6.492  16.559  0.00  0.00    +0.000 OA
ENDBRANCH  26  29
ENDBRANCH  24  26
ENDBRANCH   4  24
TORSDOF 7
ENDMDL
MODEL 7
REMARK VINA RESULT:      -8.9      1.226      1.755
REMARK  Name = 
REMARK  7 active torsions:
REMARK  status: ('A' for Active; 'I' for Inactive)
REMARK    1  A    between atoms: C_2  and  C_3
REMARK    2  A    between atoms: C_6  and  N_7
REMARK    3  A    between atoms: N_7  and  S_8
REMARK    4  A    between atoms: S_8  and  C_11
REMARK    5  A    between atoms: C_25  and  O_26
REMARK    6  A    between atoms: C_25  and  C_27
REMARK    7  A    between atoms: C_27  and  C_28
REMARK                            x       y       z     vdW  Elec       q    Type
REMARK                         _______ _______ _______ _____ _____    ______ ____
ROOT
ATOM      1  C   UNL     1       0.452   9.539  19.387  0.00  0.00    +0.000 A 
ATOM      2  C   UNL     1       0.474   8.889  20.623  0.00  0.00    +0.000 A 
ATOM      3  C   UNL     1       1.305   7.783  20.829  0.00  0.00    +0.000 A 
ATOM      4  C   UNL     1       2.195   7.392  19.836  0.00  0.00    +0.000 A 
ATOM      5  C   UNL     1       2.265   8.105  18.641  0.00  0.00    +0.000 A 
ATOM      6  C   UNL     1       1.388   9.174  18.409  0.00  0.00    +0.000 A 
ENDROOT
BRANCH   1   8
ATOM      7  O   UNL     1      -1.376  10.414  18.244  0.00  0.00    +0.000 OA
ATOM      8  C   UNL     1      -0.494  10.649  19.075  0.00  0.00    +0.000 C 
ATOM      9  N   UNL     1      -0.396  11.879  19.732  0.00  0.00    +0.000 N 
ATOM     10  C   UNL     1      -1.395  12.902  19.442  0.00  0.00    +0.000 C 
ATOM     11  C   UNL     1      -2.420  12.983  20.578  0.00  0.00    +0.000 C 
ATOM     12  C   UNL     1      -1.752  13.188  21.955  0.00  0.00    +0.000 C 
ATOM     13  C   UNL     1      -0.583  12.206  22.155  0.00  0.00    +0.000 C 
ATOM     14  C   UNL     1       0.354  12.158  20.960  0.00  0.00    +0.000 C 
BRANCH  12  15
ATOM     15  O   UNL     1      -1.198  14.511  22.012  0.00  0.00    +0.000 OA
ATOM     16  H   UNL     1      -1.422  14.957  21.174  0.00  0.00    +0.000 HD
ENDBRANCH  12  15
BRANCH  12  17
ATOM     17  C   UNL     1      -2.721  12.972  23.141  0.00  0.00    +0.000 C 
BRANCH  17  18
ATOM     18  C   UNL     1      -3.314  14.215  23.757  0.00  0.00    +0.000 A 
ATOM     19  C   UNL     1      -2.670  14.857  24.821  0.00  0.00    +0.000 A 
ATOM     20  C   UNL     1      -3.195  16.033  25.355  0.00  0.00    +0.000 A 
ATOM     21  C   UNL     1      -4.364  16.577  24.829  0.00  0.00    +0.000 A 
ATOM     22  C   UNL     1      -5.018  15.941  23.775  0.00  0.00    +0.000 A 
ATOM     23  C   UNL     1      -4.496  14.763  23.242  0.00  0.00    +0.000 A 
ENDBRANCH  17  18
ENDBRANCH  12  17
ENDBRANCH   1   8
BRANCH   4  24
ATOM     24  N   UNL     1       3.067   6.294  20.065  0.00  0.00    +0.000 N 
ATOM     25  H   UNL     1       3.316   6.043  21.015  0.00  0.00    +0.000 HD
BRANCH  24  26
ATOM     26  S   UNL     1       3.082   4.991  18.980  0.00  0.00    +0.000 S 
ATOM     27  O   UNL     1       3.231   3.794  19.775  0.00  0.00    +0.000 OA
ATOM     28  O   UNL     1       2.000   5.152  18.039  0.00  0.00    +0.000 OA
BRANCH  26  29
ATOM     29  C   UNL     1       4.627   5.258  18.141  0.00  0.00    +0.000 A 
ATOM     30  C   UNL     1       5.828   4.814  18.731  0.00  0.00    +0.000 A 
ATOM     31  C   UNL     1       6.980   4.704  17.947  0.00  0.00    +0.000 A 
ATOM     32  C   UNL     1       6.860   4.994  16.604  0.00  0.00    +0.000 A 
ATOM     33  C   UNL     1       5.694   5.492  16.061  0.00  0.00    +0.000 A 
ATOM     34  C   UNL     1       4.566   5.688  16.815  0.00  0.00    +0.000 A 
ATOM     35  O   UNL     1       5.764   5.600  14.705  0.00  0.00    +0.000 OA
ATOM     36  C   UNL     1       6.956   4.827  14.468  0.00  0.00    +0.000 C 
ATOM     37  O   UNL     1       7.790   4.731  15.643  0.00  0.00    +0.000 OA
ENDBRANCH  26  29
ENDBRANCH  24  26
ENDBRANCH   4  24
TORSDOF 7
ENDMDL
MODEL 8
REMARK VINA RESULT:      -8.9      0.948      1.636
REMARK  Name = 
REMARK  7 active torsions:
REMARK  status: ('A' for Active; 'I' for Inactive)
REMARK    1  A    between atoms: C_2  and  C_3
REMARK    2  A    between atoms: C_6  and  N_7
REMARK    3  A    between atoms: N_7  and  S_8
REMARK    4  A    between atoms: S_8  and  C_11
REMARK    5  A    between atoms: C_25  and  O_26
REMARK    6  A    between atoms: C_25  and  C_27
REMARK    7  A    between atoms: C_27  and  C_28
REMARK                            x       y       z     vdW  Elec       q    Type
REMARK                         _______ _______ _______ _____ _____    ______ ____
ROOT
ATOM      1  C   UNL     1       0.738   9.561  19.217  0.00  0.00    +0.000 A 
ATOM      2  C   UNL     1       0.677   9.085  20.529  0.00  0.00    +0.000 A 
ATOM      3  C   UNL     1       1.358   7.918  20.892  0.00  0.00    +0.000 A 
ATOM      4  C   UNL     1       2.189   7.287  19.974  0.00  0.00    +0.000 A 
ATOM      5  C   UNL     1       2.348   7.819  18.696  0.00  0.00    +0.000 A 
ATOM      6  C   UNL     1       1.617   8.951  18.311  0.00  0.00    +0.000 A 
ENDROOT
BRANCH   1   8
ATOM      7  O   UNL     1      -1.196  10.503  18.331  0.00  0.00    +0.000 OA
ATOM      8  C   UNL     1      -0.057  10.732  18.745  0.00  0.00    +0.000 C 
ATOM      9  N   UNL     1       0.466  12.027  18.814  0.00  0.00    +0.000 N 
ATOM     10  C   UNL     1      -0.385  13.140  18.411  0.00  0.00    +0.000 C 
ATOM     11  C   UNL     1      -0.928  13.870  19.643  0.00  0.00    +0.000 C 
ATOM     12  C   UNL     1       0.196  14.309  20.606  0.00  0.00    +0.000 C 
ATOM     13  C   UNL     1       1.181  13.155  20.872  0.00  0.00    +0.000 C 
ATOM     14  C   UNL     1       1.627  12.461  19.596  0.00  0.00    +0.000 C 
BRANCH  12  15
ATOM     15  O   UNL     1       0.950  15.365  19.992  0.00  0.00    +0.000 OA
ATOM     16  H   UNL     1       0.812  16.170  20.526  0.00  0.00    +0.000 HD
ENDBRANCH  12  15
BRANCH  12  17
ATOM     17  C   UNL     1      -0.328  14.770  21.986  0.00  0.00    +0.000 C 
BRANCH  17  18
ATOM     18  C   UNL     1      -1.563  14.073  22.501  0.00  0.00    +0.000 A 
ATOM     19  C   UNL     1      -2.800  14.727  22.501  0.00  0.00    +0.000 A 
ATOM     20  C   UNL     1      -3.949  14.063  22.932  0.00  0.00    +0.000 A 
ATOM     21  C   UNL     1      -3.869  12.742  23.363  0.00  0.00    +0.000 A 
ATOM     22  C   UNL     1      -2.640  12.084  23.376  0.00  0.00    +0.000 A 
ATOM     23  C   UNL     1      -1.490  12.748  22.949  0.00  0.00    +0.000 A 
ENDBRANCH  17  18
ENDBRANCH  12  17
ENDBRANCH   1   8
BRANCH   4  24
ATOM     24  N   UNL     1       2.911   6.126  20.361  0.00  0.00    +0.000 N 
ATOM     25  H   UNL     1       3.436   6.130  21.228  0.00  0.00    +0.000 HD
BRANCH  24  26
ATOM     26  S   UNL     1       2.352   4.594  19.898  0.00  0.00    +0.000 S 
ATOM     27  O   UNL     1       2.493   3.737  21.053  0.00  0.00    +0.000 OA
ATOM     28  O   UNL     1       1.092   4.743  19.208  0.00  0.00    +0.000 OA
BRANCH  26  29
ATOM     29  C   UNL     1       3.601   4.109  18.730  0.00  0.00    +0.000 A 
ATOM     30  C   UNL     1       3.263   3.954  17.370  0.00  0.00    +0.000 A 
ATOM     31  C   UNL     1       4.278   3.919  16.408  0.00  0.00    +0.000 A 
ATOM     32  C   UNL     1       5.572   4.092  16.849  0.00  0.00    +0.000 A 
ATOM     33  C   UNL     1       5.887   4.173  18.190  0.00  0.00    +0.000 A 
ATOM     34  C   UNL     1       4.926   4.133  19.167  0.00  0.00    +0.000 A 
ATOM     35  O   UNL     1       7.205   4.453  18.393  0.00  0.00    +0.000 OA
ATOM     36  C   UNL     1       7.571   4.841  17.054  0.00  0.00    +0.000 C 
ATOM     37  O   UNL     1       6.662   4.316  16.062  0.00  0.00    +0.000 OA
ENDBRANCH  26  29
ENDBRANCH  24  26
ENDBRANCH   4  24
TORSDOF 7
ENDMDL
MODEL 9
REMARK VINA RESULT:      -8.9      2.653      4.270
REMARK  Name = 
REMARK  7 active torsions:
REMARK  status: ('A' for Active; 'I' for Inactive)
REMARK    1  A    between atoms: C_2  and  C_3
REMARK    2  A    between atoms: C_6  and  N_7
REMARK    3  A    between atoms: N_7  and  S_8
REMARK    4  A    between atoms: S_8  and  C_11
REMARK    5  A    between atoms: C_25  and  O_26
REMARK    6  A    between atoms: C_25  and  C_27
REMARK    7  A    between atoms: C_27  and  C_28
REMARK                            x       y       z     vdW  Elec       q    Type
REMARK                         _______ _______ _______ _____ _____    ______ ____
ROOT
ATOM      1  C   UNL     1       1.655   7.362  20.459  0.00  0.00    +0.000 A 
ATOM      2  C   UNL     1       2.754   7.275  19.602  0.00  0.00    +0.000 A 
ATOM      3  C   UNL     1       3.328   6.033  19.309  0.00  0.00    +0.000 A 
ATOM      4  C   UNL     1       2.737   4.868  19.784  0.00  0.00    +0.000 A 
ATOM      5  C   UNL     1       1.572   4.937  20.545  0.00  0.00    +0.000 A 
ATOM      6  C   UNL     1       1.032   6.183  20.892  0.00  0.00    +0.000 A 
ENDROOT
BRANCH   1   8
ATOM      7  O   UNL     1       1.099   8.910  22.105  0.00  0.00    +0.000 OA
ATOM      8  C   UNL     1       1.074   8.665  20.896  0.00  0.00    +0.000 C 
ATOM      9  N   UNL     1       0.565   9.572  19.962  0.00  0.00    +0.000 N 
ATOM     10  C   UNL     1       0.080  10.861  20.439  0.00  0.00    +0.000 C 
ATOM     11  C   UNL     1       1.108  11.959  20.147  0.00  0.00    +0.000 C 
ATOM     12  C   UNL     1       1.513  11.999  18.658  0.00  0.00    +0.000 C 
ATOM     13  C   UNL     1       1.849  10.590  18.136  0.00  0.00    +0.000 C 
ATOM     14  C   UNL     1       0.798   9.560  18.515  0.00  0.00    +0.000 C 
BRANCH  12  15
ATOM     15  O   UNL     1       0.401  12.475  17.885  0.00  0.00    +0.000 OA
ATOM     16  H   UNL     1       0.171  13.362  18.220  0.00  0.00    +0.000 HD
ENDBRANCH  12  15
BRANCH  12  17
ATOM     17  C   UNL     1       2.756  12.880  18.388  0.00  0.00    +0.000 C 
BRANCH  17  18
ATOM     18  C   UNL     1       2.524  14.370  18.344  0.00  0.00    +0.000 A 
ATOM     19  C   UNL     1       3.340  15.193  17.560  0.00  0.00    +0.000 A 
ATOM     20  C   UNL     1       3.092  16.564  17.484  0.00  0.00    +0.000 A 
ATOM     21  C   UNL     1       2.028  17.120  18.189  0.00  0.00    +0.000 A 
ATOM     22  C   UNL     1       1.215  16.310  18.980  0.00  0.00    +0.000 A 
ATOM     23  C   UNL     1       1.463  14.940  19.060  0.00  0.00    +0.000 A 
ENDBRANCH  17  18
ENDBRANCH  12  17
ENDBRANCH   1   8
BRANCH   4  24
ATOM     24  N   UNL     1       3.300   3.607  19.450  0.00  0.00    +0.000 N 
ATOM     25  H   UNL     1       3.261   2.849  20.121  0.00  0.00    +0.000 HD
BRANCH  24  26
ATOM     26  S   UNL     1       3.324   3.098  17.832  0.00  0.00    +0.000 S 
ATOM     27  O   UNL     1       3.625   1.685  17.849  0.00  0.00    +0.000 OA
ATOM     28  O   UNL     1       2.159   3.622  17.159  0.00  0.00    +0.000 OA
BRANCH  26  29
ATOM     29  C   UNL     1       4.770   3.936  17.228  0.00  0.00    +0.000 A 
ATOM     30  C   UNL     1       4.746   4.541  15.955  0.00  0.00    +0.000 A 
ATOM     31  C   UNL     1       5.727   5.480  15.621  0.00  0.00    +0.000 A 
ATOM     32  C   UNL     1       6.650   5.802  16.593  0.00  0.00    +0.000 A 
ATOM     33  C   UNL     1       6.697   5.149  17.807  0.00  0.00    +0.000 A 
ATOM     34  C   UNL     1       5.801   4.168  18.141  0.00  0.00    +0.000 A 
ATOM     35  O   UNL     1       7.612   5.702  18.653  0.00  0.00    +0.000 OA
ATOM     36  C   UNL     1       7.872   6.931  17.947  0.00  0.00    +0.000 C 
ATOM     37  O   UNL     1       7.530   6.842  16.547  0.00  0.00    +0.000 OA
ENDBRANCH  26  29
ENDBRANCH  24  26
ENDBRANCH   4  24
TORSDOF 7
ENDMDL
