MODEL 1
REMARK VINA RESULT:      -5.8      0.000      0.000
REMARK  Name = 
REMARK  7 active torsions:
REMARK  status: ('A' for Active; 'I' for Inactive)
REMARK    1  A    between atoms: C_2  and  C_4
REMARK    2  A    between atoms: C_4  and  C_7
REMARK    3  A    between atoms: C_7  and  C_8
REMARK    4  A    between atoms: C_8  and  C_9
REMARK    5  A    between atoms: C_9  and  C_11
REMARK    6  A    between atoms: C_11  and  C_12
REMARK    7  A    between atoms: C_11  and  C_13
REMARK                            x       y       z     vdW  Elec       q    Type
REMARK                         _______ _______ _______ _____ _____    ______ ____
ROOT
ATOM      1  C   UNL     1       3.008   3.693  17.243  0.00  0.00    +0.000 C 
ENDROOT
BRANCH   1   2
ATOM      2  C   UNL     1       4.346   4.414  17.469  0.00  0.00    +0.000 C 
ATOM      3  C   UNL     1       4.769   4.560  18.751  0.00  0.00    +0.000 C 
ATOM      4 CL   UNL     1       6.224   5.270  19.298  0.00  0.00    +0.000 Cl
BRANCH   2   6
ATOM      5  C   UNL     1       5.839   4.004  15.493  0.00  0.00    +0.000 C 
ATOM      6  C   UNL     1       5.091   4.805  16.270  0.00  0.00    +0.000 C 
ATOM      7 CL   UNL     1       5.080   6.503  15.844  0.00  0.00    +0.000 Cl
ENDBRANCH   2   6
ENDBRANCH   1   2
BRANCH   1   8
ATOM      8  C   UNL     1       1.856   4.288  18.065  0.00  0.00    +0.000 C 
BRANCH   8   9
ATOM      9  C   UNL     1       1.137   3.317  19.031  0.00  0.00    +0.000 C 
ATOM     10 CL   UNL     1       2.043   1.752  19.067  0.00  0.00    +0.000 Cl
BRANCH   9  11
ATOM     11  C   UNL     1       1.047   3.913  20.460  0.00  0.00    +0.000 C 
ATOM     12  C   UNL     1       1.687   2.988  21.509  0.00  0.00    +0.000 C 
ATOM     13  C   UNL     1       1.712   5.290  20.570  0.00  0.00    +0.000 C 
ENDBRANCH   9  11
ENDBRANCH   8   9
ENDBRANCH   1   8
TORSDOF 5
ENDMDL
MODEL 2
REMARK VINA RESULT:      -5.7      1.044      1.437
REMARK  Name = 
REMARK  7 active torsions:
REMARK  status: ('A' for Active; 'I' for Inactive)
REMARK    1  A    between atoms: C_2  and  C_4
REMARK    2  A    between atoms: C_4  and  C_7
REMARK    3  A    between atoms: C_7  and  C_8
REMARK    4  A    between atoms: C_8  and  C_9
REMARK    5  A    between atoms: C_9  and  C_11
REMARK    6  A    between atoms: C_11  and  C_12
REMARK    7  A    between atoms: C_11  and  C_13
REMARK                            x       y       z     vdW  Elec       q    Type
REMARK                         _______ _______ _______ _____ _____    ______ ____
ROOT
ATOM      1  C   UNL     1       3.097   3.992  17.399  0.00  0.00    +0.000 C 
ENDROOT
BRANCH   1   2
ATOM      2  C   UNL     1       4.178   4.972  17.880  0.00  0.00    +0.000 C 
ATOM      3  C   UNL     1       5.098   4.506  18.762  0.00  0.00    +0.000 C 
ATOM      4 CL   UNL     1       6.429   5.345  19.428  0.00  0.00    +0.000 Cl
BRANCH   2   6
ATOM      5  C   UNL     1       3.476   7.375  17.698  0.00  0.00    +0.000 C 
ATOM      6  C   UNL     1       4.170   6.306  17.274  0.00  0.00    +0.000 C 
ATOM      7 CL   UNL     1       5.088   6.517  15.799  0.00  0.00    +0.000 Cl
ENDBRANCH   2   6
ENDBRANCH   1   2
BRANCH   1   8
ATOM      8  C   UNL     1       1.715   4.274  18.006  0.00  0.00    +0.000 C 
BRANCH   8   9
ATOM      9  C   UNL     1       1.189   3.229  19.018  0.00  0.00    +0.000 C 
ATOM     10 CL   UNL     1       2.313   1.811  19.029  0.00  0.00    +0.000 Cl
BRANCH   9  11
ATOM     11  C   UNL     1       1.079   3.833  20.442  0.00  0.00    +0.000 C 
ATOM     12  C   UNL     1       1.771   2.952  21.495  0.00  0.00    +0.000 C 
ATOM     13  C   UNL     1       1.675   5.242  20.534  0.00  0.00    +0.000 C 
ENDBRANCH   9  11
ENDBRANCH   8   9
ENDBRANCH   1   8
TORSDOF 5
ENDMDL
MODEL 3
REMARK VINA RESULT:      -5.6      0.987      1.103
REMARK  Name = 
REMARK  7 active torsions:
REMARK  status: ('A' for Active; 'I' for Inactive)
REMARK    1  A    between atoms: C_2  and  C_4
REMARK    2  A    between atoms: C_4  and  C_7
REMARK    3  A    between atoms: C_7  and  C_8
REMARK    4  A    between atoms: C_8  and  C_9
REMARK    5  A    between atoms: C_9  and  C_11
REMARK    6  A    between atoms: C_11  and  C_12
REMARK    7  A    between atoms: C_11  and  C_13
REMARK                            x       y       z     vdW  Elec       q    Type
REMARK                         _______ _______ _______ _____ _____    ______ ____
ROOT
ATOM      1  C   UNL     1       3.393   4.044  17.185  0.00  0.00    +0.000 C 
ENDROOT
BRANCH   1   2
ATOM      2  C   UNL     1       4.717   4.742  17.531  0.00  0.00    +0.000 C 
ATOM      3  C   UNL     1       5.105   4.740  18.832  0.00  0.00    +0.000 C 
ATOM      4 CL   UNL     1       6.537   5.391  19.498  0.00  0.00    +0.000 Cl
BRANCH   2   6
ATOM      5  C   UNL     1       5.159   6.324  15.633  0.00  0.00    +0.000 C 
ATOM      6  C   UNL     1       5.489   5.277  16.407  0.00  0.00    +0.000 C 
ATOM      7 CL   UNL     1       6.952   4.423  15.965  0.00  0.00    +0.000 Cl
ENDBRANCH   2   6
ENDBRANCH   1   2
BRANCH   1   8
ATOM      8  C   UNL     1       2.200   4.583  17.986  0.00  0.00    +0.000 C 
BRANCH   8   9
ATOM      9  C   UNL     1       1.348   3.529  18.732  0.00  0.00    +0.000 C 
ATOM     10 CL   UNL     1       2.247   1.959  18.748  0.00  0.00    +0.000 Cl
BRANCH   9  11
ATOM     11  C   UNL     1       1.040   3.981  20.183  0.00  0.00    +0.000 C 
ATOM     12  C   UNL     1       1.362   2.881  21.208  0.00  0.00    +0.000 C 
ATOM     13  C   UNL     1       1.808   5.246  20.584  0.00  0.00    +0.000 C 
ENDBRANCH   9  11
ENDBRANCH   8   9
ENDBRANCH   1   8
TORSDOF 5
ENDMDL
MODEL 4
REMARK VINA RESULT:      -5.4      2.445      5.280
REMARK  Name = 
REMARK  7 active torsions:
REMARK  status: ('A' for Active; 'I' for Inactive)
REMARK    1  A    between atoms: C_2  and  C_4
REMARK    2  A    between atoms: C_4  and  C_7
REMARK    3  A    between atoms: C_7  and  C_8
REMARK    4  A    between atoms: C_8  and  C_9
REMARK    5  A    between atoms: C_9  and  C_11
REMARK    6  A    between atoms: C_11  and  C_12
REMARK    7  A    between atoms: C_11  and  C_13
REMARK                            x       y       z     vdW  Elec       q    Type
REMARK                         _______ _______ _______ _____ _____    ______ ____
ROOT
ATOM      1  C   UNL     1       4.635   3.493  18.975  0.00  0.00    +0.000 C 
ENDROOT
BRANCH   1   2
ATOM      2  C   UNL     1       3.248   3.594  19.628  0.00  0.00    +0.000 C 
ATOM      3  C   UNL     1       2.992   2.778  20.682  0.00  0.00    +0.000 C 
ATOM      4 CL   UNL     1       1.570   2.703  21.627  0.00  0.00    +0.000 Cl
BRANCH   2   6
ATOM      5  C   UNL     1       1.785   4.658  17.888  0.00  0.00    +0.000 C 
ATOM      6  C   UNL     1       2.351   4.628  19.106  0.00  0.00    +0.000 C 
ATOM      7 CL   UNL     1       2.044   6.011  20.134  0.00  0.00    +0.000 Cl
ENDBRANCH   2   6
ENDBRANCH   1   2
BRANCH   1   8
ATOM      8  C   UNL     1       5.465   4.775  19.123  0.00  0.00    +0.000 C 
BRANCH   8   9
ATOM      9  C   UNL     1       5.932   5.441  17.806  0.00  0.00    +0.000 C 
ATOM     10 CL   UNL     1       4.811   6.806  17.414  0.00  0.00    +0.000 Cl
BRANCH   9  11
ATOM     11  C   UNL     1       7.387   5.965  17.927  0.00  0.00    +0.000 C 
ATOM     12  C   UNL     1       7.504   7.437  17.502  0.00  0.00    +0.000 C 
ATOM     13  C   UNL     1       7.946   5.833  19.349  0.00  0.00    +0.000 C 
ENDBRANCH   9  11
ENDBRANCH   8   9
ENDBRANCH   1   8
TORSDOF 5
ENDMDL
MODEL 5
REMARK VINA RESULT:      -5.3      1.572      2.065
REMARK  Name = 
REMARK  7 active torsions:
REMARK  status: ('A' for Active; 'I' for Inactive)
REMARK    1  A    between atoms: C_2  and  C_4
REMARK    2  A    between atoms: C_4  and  C_7
REMARK    3  A    between atoms: C_7  and  C_8
REMARK    4  A    between atoms: C_8  and  C_9
REMARK    5  A    between atoms: C_9  and  C_11
REMARK    6  A    between atoms: C_11  and  C_12
REMARK    7  A    between atoms: C_11  and  C_13
REMARK                            x       y       z     vdW  Elec       q    Type
REMARK                         _______ _______ _______ _____ _____    ______ ____
ROOT
ATOM      1  C   UNL     1       4.463   4.288  19.431  0.00  0.00    +0.000 C 
ENDROOT
BRANCH   1   2
ATOM      2  C   UNL     1       5.445   5.032  18.514  0.00  0.00    +0.000 C 
ATOM      3  C   UNL     1       6.574   5.531  19.079  0.00  0.00    +0.000 C 
ATOM      4 CL   UNL     1       7.856   6.356  18.307  0.00  0.00    +0.000 Cl
BRANCH   2   6
ATOM      5  C   UNL     1       4.996   4.005  16.268  0.00  0.00    +0.000 C 
ATOM      6  C   UNL     1       5.115   5.064  17.087  0.00  0.00    +0.000 C 
ATOM      7 CL   UNL     1       4.937   6.638  16.344  0.00  0.00    +0.000 Cl
ENDBRANCH   2   6
ENDBRANCH   1   2
BRANCH   1   8
ATOM      8  C   UNL     1       3.241   5.132  19.817  0.00  0.00    +0.000 C 
BRANCH   8   9
ATOM      9  C   UNL     1       1.859   4.519  19.491  0.00  0.00    +0.000 C 
ATOM     10 CL   UNL     1       1.513   4.761  17.732  0.00  0.00    +0.000 Cl
BRANCH   9  11
ATOM     11  C   UNL     1       1.819   3.008  19.838  0.00  0.00    +0.000 C 
ATOM     12  C   UNL     1       1.314   2.760  21.269  0.00  0.00    +0.000 C 
ATOM     13  C   UNL     1       0.939   2.203  18.876  0.00  0.00    +0.000 C 
ENDBRANCH   9  11
ENDBRANCH   8   9
ENDBRANCH   1   8
TORSDOF 5
ENDMDL
MODEL 6
REMARK VINA RESULT:      -5.3      1.188      1.751
REMARK  Name = 
REMARK  7 active torsions:
REMARK  status: ('A' for Active; 'I' for Inactive)
REMARK    1  A    between atoms: C_2  and  C_4
REMARK    2  A    between atoms: C_4  and  C_7
REMARK    3  A    between atoms: C_7  and  C_8
REMARK    4  A    between atoms: C_8  and  C_9
REMARK    5  A    between atoms: C_9  and  C_11
REMARK    6  A    between atoms: C_11  and  C_12
REMARK    7  A    between atoms: C_11  and  C_13
REMARK                            x       y       z     vdW  Elec       q    Type
REMARK                         _______ _______ _______ _____ _____    ______ ____
ROOT
ATOM      1  C   UNL     1       3.724   3.568  17.772  0.00  0.00    +0.000 C 
ENDROOT
BRANCH   1   2
ATOM      2  C   UNL     1       4.695   4.727  18.040  0.00  0.00    +0.000 C 
ATOM      3  C   UNL     1       5.668   4.528  18.965  0.00  0.00    +0.000 C 
ATOM      4 CL   UNL     1       6.906   5.609  19.432  0.00  0.00    +0.000 Cl
BRANCH   2   6
ATOM      5  C   UNL     1       3.894   7.053  17.540  0.00  0.00    +0.000 C 
ATOM      6  C   UNL     1       4.536   5.921  17.206  0.00  0.00    +0.000 C 
ATOM      7 CL   UNL     1       5.171   5.847  15.576  0.00  0.00    +0.000 Cl
ENDBRANCH   2   6
ENDBRANCH   1   2
BRANCH   1   8
ATOM      8  C   UNL     1       2.279   4.033  17.542  0.00  0.00    +0.000 C 
BRANCH   8   9
ATOM      9  C   UNL     1       1.312   3.867  18.738  0.00  0.00    +0.000 C 
ATOM     10 CL   UNL     1       0.625   2.194  18.704  0.00  0.00    +0.000 Cl
BRANCH   9  11
ATOM     11  C   UNL     1       2.037   4.117  20.085  0.00  0.00    +0.000 C 
ATOM     12  C   UNL     1       1.878   5.570  20.563  0.00  0.00    +0.000 C 
ATOM     13  C   UNL     1       1.543   3.192  21.203  0.00  0.00    +0.000 C 
ENDBRANCH   9  11
ENDBRANCH   8   9
ENDBRANCH   1   8
TORSDOF 5
ENDMDL
MODEL 7
REMARK VINA RESULT:      -5.3      2.161      3.449
REMARK  Name = 
REMARK  7 active torsions:
REMARK  status: ('A' for Active; 'I' for Inactive)
REMARK    1  A    between atoms: C_2  and  C_4
REMARK    2  A    between atoms: C_4  and  C_7
REMARK    3  A    between atoms: C_7  and  C_8
REMARK    4  A    between atoms: C_8  and  C_9
REMARK    5  A    between atoms: C_9  and  C_11
REMARK    6  A    between atoms: C_11  and  C_12
REMARK    7  A    between atoms: C_11  and  C_13
REMARK                            x       y       z     vdW  Elec       q    Type
REMARK                         _______ _______ _______ _____ _____    ______ ____
ROOT
ATOM      1  C   UNL     1       4.373   6.185  17.157  0.00  0.00    +0.000 C 
ENDROOT
BRANCH   1   2
ATOM      2  C   UNL     1       5.684   5.777  16.468  0.00  0.00    +0.000 C 
ATOM      3  C   UNL     1       5.606   5.323  15.191  0.00  0.00    +0.000 C 
ATOM      4 CL   UNL     1       6.889   4.847  14.169  0.00  0.00    +0.000 Cl
BRANCH   2   6
ATOM      5  C   UNL     1       7.506   7.177  17.478  0.00  0.00    +0.000 C 
ATOM      6  C   UNL     1       6.918   5.996  17.226  0.00  0.00    +0.000 C 
ATOM      7 CL   UNL     1       7.767   4.575  17.796  0.00  0.00    +0.000 Cl
ENDBRANCH   2   6
ENDBRANCH   1   2
BRANCH   1   8
ATOM      8  C   UNL     1       4.342   5.834  18.651  0.00  0.00    +0.000 C 
BRANCH   8   9
ATOM      9  C   UNL     1       3.742   4.455  19.014  0.00  0.00    +0.000 C 
ATOM     10 CL   UNL     1       2.641   4.655  20.436  0.00  0.00    +0.000 Cl
BRANCH   9  11
ATOM     11  C   UNL     1       2.962   3.850  17.818  0.00  0.00    +0.000 C 
ATOM     12  C   UNL     1       3.147   2.326  17.724  0.00  0.00    +0.000 C 
ATOM     13  C   UNL     1       1.459   4.144  17.882  0.00  0.00    +0.000 C 
ENDBRANCH   9  11
ENDBRANCH   8   9
ENDBRANCH   1   8
TORSDOF 5
ENDMDL
MODEL 8
REMARK VINA RESULT:      -5.2      1.837      2.948
REMARK  Name = 
REMARK  7 active torsions:
REMARK  status: ('A' for Active; 'I' for Inactive)
REMARK    1  A    between atoms: C_2  and  C_4
REMARK    2  A    between atoms: C_4  and  C_7
REMARK    3  A    between atoms: C_7  and  C_8
REMARK    4  A    between atoms: C_8  and  C_9
REMARK    5  A    between atoms: C_9  and  C_11
REMARK    6  A    between atoms: C_11  and  C_12
REMARK    7  A    between atoms: C_11  and  C_13
REMARK                            x       y       z     vdW  Elec       q    Type
REMARK                         _______ _______ _______ _____ _____    ______ ____
ROOT
ATOM      1  C   UNL     1       3.985   3.826  16.722  0.00  0.00    +0.000 C 
ENDROOT
BRANCH   1   2
ATOM      2  C   UNL     1       5.298   4.422  16.190  0.00  0.00    +0.000 C 
ATOM      3  C   UNL     1       5.598   4.211  14.883  0.00  0.00    +0.000 C 
ATOM      4 CL   UNL     1       6.952   4.785  14.013  0.00  0.00    +0.000 Cl
BRANCH   2   6
ATOM      5  C   UNL     1       5.778   6.487  17.534  0.00  0.00    +0.000 C 
ATOM      6  C   UNL     1       6.072   5.242  17.126  0.00  0.00    +0.000 C 
ATOM      7 CL   UNL     1       7.579   4.573  17.714  0.00  0.00    +0.000 Cl
ENDBRANCH   2   6
ENDBRANCH   1   2
BRANCH   1   8
ATOM      8  C   UNL     1       4.090   3.335  18.172  0.00  0.00    +0.000 C 
BRANCH   8   9
ATOM      9  C   UNL     1       3.100   3.967  19.178  0.00  0.00    +0.000 C 
ATOM     10 CL   UNL     1       2.171   5.274  18.341  0.00  0.00    +0.000 Cl
BRANCH   9  11
ATOM     11  C   UNL     1       2.125   2.904  19.749  0.00  0.00    +0.000 C 
ATOM     12  C   UNL     1       1.285   3.459  20.911  0.00  0.00    +0.000 C 
ATOM     13  C   UNL     1       1.165   2.352  18.688  0.00  0.00    +0.000 C 
ENDBRANCH   9  11
ENDBRANCH   8   9
ENDBRANCH   1   8
TORSDOF 5
ENDMDL
MODEL 9
REMARK VINA RESULT:      -5.2      1.621      1.904
REMARK  Name = 
REMARK  7 active torsions:
REMARK  status: ('A' for Active; 'I' for Inactive)
REMARK    1  A    between atoms: C_2  and  C_4
REMARK    2  A    between atoms: C_4  and  C_7
REMARK    3  A    between atoms: C_7  and  C_8
REMARK    4  A    between atoms: C_8  and  C_9
REMARK    5  A    between atoms: C_9  and  C_11
REMARK    6  A    between atoms: C_11  and  C_12
REMARK    7  A    between atoms: C_11  and  C_13
REMARK                            x       y       z     vdW  Elec       q    Type
REMARK                         _______ _______ _______ _____ _____    ______ ____
ROOT
ATOM      1  C   UNL     1       4.394   3.808  17.941  0.00  0.00    +0.000 C 
ENDROOT
BRANCH   1   2
ATOM      2  C   UNL     1       5.587   4.744  17.693  0.00  0.00    +0.000 C 
ATOM      3  C   UNL     1       6.352   5.081  18.763  0.00  0.00    +0.000 C 
ATOM      4 CL   UNL     1       7.755   6.056  18.782  0.00  0.00    +0.000 Cl
BRANCH   2   6
ATOM      5  C   UNL     1       6.661   4.499  15.438  0.00  0.00    +0.000 C 
ATOM      6  C   UNL     1       5.844   5.124  16.302  0.00  0.00    +0.000 C 
ATOM      7 CL   UNL     1       5.079   6.587  15.720  0.00  0.00    +0.000 Cl
ENDBRANCH   2   6
ENDBRANCH   1   2
BRANCH   1   8
ATOM      8  C   UNL     1       3.160   4.537  18.491  0.00  0.00    +0.000 C 
BRANCH   8   9
ATOM      9  C   UNL     1       2.801   4.249  19.968  0.00  0.00    +0.000 C 
ATOM     10 CL   UNL     1       1.735   5.578  20.578  0.00  0.00    +0.000 Cl
BRANCH   9  11
ATOM     11  C   UNL     1       2.084   2.882  20.114  0.00  0.00    +0.000 C 
ATOM     12  C   UNL     1       1.490   2.692  21.519  0.00  0.00    +0.000 C 
ATOM     13  C   UNL     1       0.959   2.691  19.091  0.00  0.00    +0.000 C 
ENDBRANCH   9  11
ENDBRANCH   8   9
ENDBRANCH   1   8
TORSDOF 5
ENDMDL
