MODEL 1
REMARK VINA RESULT:      -8.0      0.000      0.000
REMARK  Name = 
REMARK  6 active torsions:
REMARK  status: ('A' for Active; 'I' for Inactive)
REMARK    1  A    between atoms: C_1  and  C_2
REMARK    2  A    between atoms: C_4  and  C_5
REMARK    3  A    between atoms: C_9  and  C_10
REMARK    4  A    between atoms: C_12  and  S_13
REMARK    5  A    between atoms: S_13  and  C_14
REMARK    6  A    between atoms: C_14  and  C_15
REMARK                            x       y       z     vdW  Elec       q    Type
REMARK                         _______ _______ _______ _____ _____    ______ ____
ROOT
ATOM      1  S   UNL     1       6.265   5.129  17.370  0.00  0.00    +0.000 S 
ENDROOT
BRANCH   1   7
ATOM      2  C   UNL     1       2.563   8.575  17.609  0.00  0.00    +0.000 C 
ATOM      3  C   UNL     1       3.040   7.249  18.123  0.00  0.00    +0.000 A 
ATOM      4  C   UNL     1       2.299   6.524  19.041  0.00  0.00    +0.000 A 
ATOM      5  C   UNL     1       2.787   5.290  19.489  0.00  0.00    +0.000 A 
ATOM      6  C   UNL     1       4.020   4.818  18.995  0.00  0.00    +0.000 A 
ATOM      7  C   UNL     1       4.700   5.616  18.065  0.00  0.00    +0.000 A 
ATOM      8  N   UNL     1       4.220   6.808  17.641  0.00  0.00    +0.000 NA
BRANCH   5   9
ATOM      9  C   UNL     1       1.981   4.490  20.484  0.00  0.00    +0.000 C 
ATOM     10  F   UNL     1       0.812   5.102  20.833  0.00  0.00    +0.000 F 
ATOM     11  F   UNL     1       1.625   3.269  20.009  0.00  0.00    +0.000 F 
ATOM     12  F   UNL     1       2.646   4.282  21.651  0.00  0.00    +0.000 F 
ENDBRANCH   5   9
BRANCH   6  13
ATOM     13  C   UNL     1       4.547   3.555  19.439  0.00  0.00    +0.000 C 
ATOM     14  N   UNL     1       4.936   2.508  19.763  0.00  0.00    +0.000 NA
ENDBRANCH   6  13
ENDBRANCH   1   7
BRANCH   1  15
ATOM     15  C   UNL     1       7.461   5.889  18.544  0.00  0.00    +0.000 C 
BRANCH  15  16
ATOM     16  C   UNL     1       7.845   7.293  18.074  0.00  0.00    +0.000 C 
ATOM     17  O   UNL     1       7.633   7.678  16.927  0.00  0.00    +0.000 OA
ATOM     18  N   UNL     1       8.443   8.060  19.066  0.00  0.00    +0.000 N 
ATOM     19  C   UNL     1       8.854   9.366  18.903  0.00  0.00    +0.000 A 
ATOM     20  N   UNL     1       9.727   9.939  19.698  0.00  0.00    +0.000 NA
ATOM     21  C   UNL     1      10.026  11.211  19.213  0.00  0.00    +0.000 A 
ATOM     22  C   UNL     1      10.993  12.105  19.721  0.00  0.00    +0.000 A 
ATOM     23  C   UNL     1      11.209  13.338  19.086  0.00  0.00    +0.000 A 
ATOM     24  C   UNL     1      10.466  13.697  17.967  0.00  0.00    +0.000 A 
ATOM     25  C   UNL     1       9.485  12.845  17.460  0.00  0.00    +0.000 A 
ATOM     26  C   UNL     1       9.289  11.608  18.095  0.00  0.00    +0.000 A 
ATOM     27  S   UNL     1       8.188  10.362  17.690  0.00  0.00    +0.000 S 
ATOM     28  H   UNL     1       8.824   7.612  19.893  0.00  0.00    +0.000 HD
ENDBRANCH  15  16
ENDBRANCH   1  15
TORSDOF 5
ENDMDL
MODEL 2
REMARK VINA RESULT:      -7.6      5.438      8.796
REMARK  Name = 
REMARK  6 active torsions:
REMARK  status: ('A' for Active; 'I' for Inactive)
REMARK    1  A    between atoms: C_1  and  C_2
REMARK    2  A    between atoms: C_4  and  C_5
REMARK    3  A    between atoms: C_9  and  C_10
REMARK    4  A    between atoms: C_12  and  S_13
REMARK    5  A    between atoms: S_13  and  C_14
REMARK    6  A    between atoms: C_14  and  C_15
REMARK                            x       y       z     vdW  Elec       q    Type
REMARK                         _______ _______ _______ _____ _____    ______ ____
ROOT
ATOM      1  S   UNL     1       2.643   7.573  19.312  0.00  0.00    +0.000 S 
ENDROOT
BRANCH   1   7
ATOM      2  C   UNL     1       5.507   5.710  15.575  0.00  0.00    +0.000 C 
ATOM      3  C   UNL     1       4.557   5.363  16.683  0.00  0.00    +0.000 A 
ATOM      4  C   UNL     1       4.200   4.050  16.940  0.00  0.00    +0.000 A 
ATOM      5  C   UNL     1       3.311   3.777  17.987  0.00  0.00    +0.000 A 
ATOM      6  C   UNL     1       2.800   4.846  18.751  0.00  0.00    +0.000 A 
ATOM      7  C   UNL     1       3.219   6.142  18.422  0.00  0.00    +0.000 A 
ATOM      8  N   UNL     1       4.077   6.394  17.407  0.00  0.00    +0.000 NA
BRANCH   5   9
ATOM      9  C   UNL     1       2.923   2.347  18.279  0.00  0.00    +0.000 C 
ATOM     10  F   UNL     1       1.605   2.095  18.030  0.00  0.00    +0.000 F 
ATOM     11  F   UNL     1       3.613   1.454  17.524  0.00  0.00    +0.000 F 
ATOM     12  F   UNL     1       3.121   2.004  19.578  0.00  0.00    +0.000 F 
ENDBRANCH   5   9
BRANCH   6  13
ATOM     13  C   UNL     1       1.882   4.596  19.830  0.00  0.00    +0.000 C 
ATOM     14  N   UNL     1       1.119   4.352  20.673  0.00  0.00    +0.000 NA
ENDBRANCH   6  13
ENDBRANCH   1   7
BRANCH   1  15
ATOM     15  C   UNL     1       1.881   8.579  17.973  0.00  0.00    +0.000 C 
BRANCH  15  16
ATOM     16  C   UNL     1       0.651   9.319  18.501  0.00  0.00    +0.000 C 
ATOM     17  O   UNL     1       0.484   9.535  19.698  0.00  0.00    +0.000 OA
ATOM     18  N   UNL     1      -0.228   9.709  17.498  0.00  0.00    +0.000 N 
ATOM     19  C   UNL     1      -1.393  10.415  17.711  0.00  0.00    +0.000 A 
ATOM     20  N   UNL     1      -2.371  10.449  16.837  0.00  0.00    +0.000 NA
ATOM     21  C   UNL     1      -3.452  11.141  17.381  0.00  0.00    +0.000 A 
ATOM     22  C   UNL     1      -4.728  11.309  16.802  0.00  0.00    +0.000 A 
ATOM     23  C   UNL     1      -5.731  11.994  17.505  0.00  0.00    +0.000 A 
ATOM     24  C   UNL     1      -5.475  12.527  18.763  0.00  0.00    +0.000 A 
ATOM     25  C   UNL     1      -4.215  12.400  19.348  0.00  0.00    +0.000 A 
ATOM     26  C   UNL     1      -3.225  11.698  18.641  0.00  0.00    +0.000 A 
ATOM     27  S   UNL     1      -1.612  11.366  19.109  0.00  0.00    +0.000 S 
ATOM     28  H   UNL     1      -0.172   9.282  16.580  0.00  0.00    +0.000 HD
ENDBRANCH  15  16
ENDBRANCH   1  15
TORSDOF 5
ENDMDL
MODEL 3
REMARK VINA RESULT:      -7.5      5.184      6.289
REMARK  Name = 
REMARK  6 active torsions:
REMARK  status: ('A' for Active; 'I' for Inactive)
REMARK    1  A    between atoms: C_1  and  C_2
REMARK    2  A    between atoms: C_4  and  C_5
REMARK    3  A    between atoms: C_9  and  C_10
REMARK    4  A    between atoms: C_12  and  S_13
REMARK    5  A    between atoms: S_13  and  C_14
REMARK    6  A    between atoms: C_14  and  C_15
REMARK                            x       y       z     vdW  Elec       q    Type
REMARK                         _______ _______ _______ _____ _____    ______ ____
ROOT
ATOM      1  S   UNL     1       2.263   7.499  19.163  0.00  0.00    +0.000 S 
ENDROOT
BRANCH   1   7
ATOM      2  C   UNL     1       5.614   5.791  15.775  0.00  0.00    +0.000 C 
ATOM      3  C   UNL     1       4.585   5.393  16.791  0.00  0.00    +0.000 A 
ATOM      4  C   UNL     1       4.300   4.062  17.043  0.00  0.00    +0.000 A 
ATOM      5  C   UNL     1       3.332   3.741  18.004  0.00  0.00    +0.000 A 
ATOM      6  C   UNL     1       2.671   4.782  18.686  0.00  0.00    +0.000 A 
ATOM      7  C   UNL     1       3.026   6.100  18.370  0.00  0.00    +0.000 A 
ATOM      8  N   UNL     1       3.962   6.398  17.439  0.00  0.00    +0.000 NA
BRANCH   5   9
ATOM      9  C   UNL     1       3.020   2.292  18.289  0.00  0.00    +0.000 C 
ATOM     10  F   UNL     1       3.200   1.961  19.601  0.00  0.00    +0.000 F 
ATOM     11  F   UNL     1       1.733   1.968  18.005  0.00  0.00    +0.000 F 
ATOM     12  F   UNL     1       3.809   1.437  17.587  0.00  0.00    +0.000 F 
ENDBRANCH   5   9
BRANCH   6  13
ATOM     13  C   UNL     1       1.670   4.483  19.676  0.00  0.00    +0.000 C 
ATOM     14  N   UNL     1       0.887   4.193  20.485  0.00  0.00    +0.000 NA
ENDBRANCH   6  13
ENDBRANCH   1   7
BRANCH   1  15
ATOM     15  C   UNL     1       1.856   8.581  17.731  0.00  0.00    +0.000 C 
BRANCH  15  16
ATOM     16  C   UNL     1       1.345   9.937  18.219  0.00  0.00    +0.000 C 
ATOM     17  O   UNL     1       0.222  10.079  18.695  0.00  0.00    +0.000 OA
ATOM     18  N   UNL     1       2.273  10.960  18.068  0.00  0.00    +0.000 N 
ATOM     19  C   UNL     1       2.066  12.266  18.456  0.00  0.00    +0.000 A 
ATOM     20  N   UNL     1       2.772  13.267  17.984  0.00  0.00    +0.000 NA
ATOM     21  C   UNL     1       2.255  14.466  18.472  0.00  0.00    +0.000 A 
ATOM     22  C   UNL     1       2.666  15.770  18.121  0.00  0.00    +0.000 A 
ATOM     23  C   UNL     1       2.007  16.883  18.667  0.00  0.00    +0.000 A 
ATOM     24  C   UNL     1       0.961  16.714  19.568  0.00  0.00    +0.000 A 
ATOM     25  C   UNL     1       0.553  15.437  19.954  0.00  0.00    +0.000 A 
ATOM     26  C   UNL     1       1.210  14.332  19.388  0.00  0.00    +0.000 A 
ATOM     27  S   UNL     1       0.916  12.666  19.650  0.00  0.00    +0.000 S 
ATOM     28  H   UNL     1       3.062  10.841  17.441  0.00  0.00    +0.000 HD
ENDBRANCH  15  16
ENDBRANCH   1  15
TORSDOF 5
ENDMDL
MODEL 4
REMARK VINA RESULT:      -7.4      5.386      7.369
REMARK  Name = 
REMARK  6 active torsions:
REMARK  status: ('A' for Active; 'I' for Inactive)
REMARK    1  A    between atoms: C_1  and  C_2
REMARK    2  A    between atoms: C_4  and  C_5
REMARK    3  A    between atoms: C_9  and  C_10
REMARK    4  A    between atoms: C_12  and  S_13
REMARK    5  A    between atoms: S_13  and  C_14
REMARK    6  A    between atoms: C_14  and  C_15
REMARK                            x       y       z     vdW  Elec       q    Type
REMARK                         _______ _______ _______ _____ _____    ______ ____
ROOT
ATOM      1  S   UNL     1       2.503   7.299  19.205  0.00  0.00    +0.000 S 
ENDROOT
BRANCH   1   7
ATOM      2  C   UNL     1       5.656   5.568  15.641  0.00  0.00    +0.000 C 
ATOM      3  C   UNL     1       4.661   5.178  16.694  0.00  0.00    +0.000 A 
ATOM      4  C   UNL     1       4.349   3.851  16.933  0.00  0.00    +0.000 A 
ATOM      5  C   UNL     1       3.416   3.538  17.930  0.00  0.00    +0.000 A 
ATOM      6  C   UNL     1       2.814   4.582  18.660  0.00  0.00    +0.000 A 
ATOM      7  C   UNL     1       3.192   5.896  18.353  0.00  0.00    +0.000 A 
ATOM      8  N   UNL     1       4.095   6.187  17.388  0.00  0.00    +0.000 NA
BRANCH   5   9
ATOM      9  C   UNL     1       3.076   2.092  18.202  0.00  0.00    +0.000 C 
ATOM     10  F   UNL     1       3.864   1.223  17.504  0.00  0.00    +0.000 F 
ATOM     11  F   UNL     1       3.231   1.755  19.508  0.00  0.00    +0.000 F 
ATOM     12  F   UNL     1       1.798   1.780  17.862  0.00  0.00    +0.000 F 
ENDBRANCH   5   9
BRANCH   6  13
ATOM     13  C   UNL     1       1.849   4.291  19.687  0.00  0.00    +0.000 C 
ATOM     14  N   UNL     1       1.028   4.064  20.478  0.00  0.00    +0.000 NA
ENDBRANCH   6  13
ENDBRANCH   1   7
BRANCH   1  15
ATOM     15  C   UNL     1       2.212   8.483  17.826  0.00  0.00    +0.000 C 
BRANCH  15  16
ATOM     16  C   UNL     1       1.734   9.829  18.375  0.00  0.00    +0.000 C 
ATOM     17  O   UNL     1       2.123  10.897  17.911  0.00  0.00    +0.000 OA
ATOM     18  N   UNL     1       0.835   9.705  19.426  0.00  0.00    +0.000 N 
ATOM     19  C   UNL     1       0.237  10.766  20.072  0.00  0.00    +0.000 A 
ATOM     20  N   UNL     1      -0.298  10.659  21.266  0.00  0.00    +0.000 NA
ATOM     21  C   UNL     1      -0.714  11.917  21.699  0.00  0.00    +0.000 A 
ATOM     22  C   UNL     1      -1.243  12.244  22.966  0.00  0.00    +0.000 A 
ATOM     23  C   UNL     1      -1.569  13.576  23.266  0.00  0.00    +0.000 A 
ATOM     24  C   UNL     1      -1.393  14.579  22.318  0.00  0.00    +0.000 A 
ATOM     25  C   UNL     1      -0.897  14.279  21.049  0.00  0.00    +0.000 A 
ATOM     26  C   UNL     1      -0.560  12.946  20.767  0.00  0.00    +0.000 A 
ATOM     27  S   UNL     1       0.084  12.290  19.323  0.00  0.00    +0.000 S 
ATOM     28  H   UNL     1       0.758   8.826  19.927  0.00  0.00    +0.000 HD
ENDBRANCH  15  16
ENDBRANCH   1  15
TORSDOF 5
ENDMDL
MODEL 5
REMARK VINA RESULT:      -7.3      4.850      7.053
REMARK  Name = 
REMARK  6 active torsions:
REMARK  status: ('A' for Active; 'I' for Inactive)
REMARK    1  A    between atoms: C_1  and  C_2
REMARK    2  A    between atoms: C_4  and  C_5
REMARK    3  A    between atoms: C_9  and  C_10
REMARK    4  A    between atoms: C_12  and  S_13
REMARK    5  A    between atoms: S_13  and  C_14
REMARK    6  A    between atoms: C_14  and  C_15
REMARK                            x       y       z     vdW  Elec       q    Type
REMARK                         _______ _______ _______ _____ _____    ______ ____
ROOT
ATOM      1  S   UNL     1       4.076   2.638  17.671  0.00  0.00    +0.000 S 
ENDROOT
BRANCH   1   7
ATOM      2  C   UNL     1       6.400   3.900  13.353  0.00  0.00    +0.000 C 
ATOM      3  C   UNL     1       6.211   4.262  14.796  0.00  0.00    +0.000 A 
ATOM      4  C   UNL     1       6.851   5.357  15.354  0.00  0.00    +0.000 A 
ATOM      5  C   UNL     1       6.640   5.655  16.706  0.00  0.00    +0.000 A 
ATOM      6  C   UNL     1       5.785   4.832  17.466  0.00  0.00    +0.000 A 
ATOM      7  C   UNL     1       5.176   3.748  16.818  0.00  0.00    +0.000 A 
ATOM      8  N   UNL     1       5.388   3.469  15.512  0.00  0.00    +0.000 NA
BRANCH   5   9
ATOM      9  C   UNL     1       7.329   6.851  17.319  0.00  0.00    +0.000 C 
ATOM     10  F   UNL     1       8.193   7.463  16.458  0.00  0.00    +0.000 F 
ATOM     11  F   UNL     1       6.456   7.816  17.706  0.00  0.00    +0.000 F 
ATOM     12  F   UNL     1       8.070   6.527  18.411  0.00  0.00    +0.000 F 
ENDBRANCH   5   9
BRANCH   6  13
ATOM     13  C   UNL     1       5.552   5.112  18.857  0.00  0.00    +0.000 C 
ATOM     14  N   UNL     1       5.373   5.393  19.972  0.00  0.00    +0.000 NA
ENDBRANCH   6  13
ENDBRANCH   1   7
BRANCH   1  15
ATOM     15  C   UNL     1       2.424   3.319  17.231  0.00  0.00    +0.000 C 
BRANCH  15  16
ATOM     16  C   UNL     1       2.007   4.391  18.239  0.00  0.00    +0.000 C 
ATOM     17  O   UNL     1       1.469   4.108  19.306  0.00  0.00    +0.000 OA
ATOM     18  N   UNL     1       2.300   5.682  17.821  0.00  0.00    +0.000 N 
ATOM     19  C   UNL     1       2.051   6.818  18.561  0.00  0.00    +0.000 A 
ATOM     20  N   UNL     1       1.985   8.014  18.023  0.00  0.00    +0.000 NA
ATOM     21  C   UNL     1       1.606   8.937  18.997  0.00  0.00    +0.000 A 
ATOM     22  C   UNL     1       1.324  10.306  18.801  0.00  0.00    +0.000 A 
ATOM     23  C   UNL     1       0.903  11.095  19.883  0.00  0.00    +0.000 A 
ATOM     24  C   UNL     1       0.778  10.546  21.154  0.00  0.00    +0.000 A 
ATOM     25  C   UNL     1       1.077   9.202  21.381  0.00  0.00    +0.000 A 
ATOM     26  C   UNL     1       1.481   8.419  20.287  0.00  0.00    +0.000 A 
ATOM     27  S   UNL     1       1.886   6.756  20.257  0.00  0.00    +0.000 S 
ATOM     28  H   UNL     1       2.496   5.866  16.843  0.00  0.00    +0.000 HD
ENDBRANCH  15  16
ENDBRANCH   1  15
TORSDOF 5
ENDMDL
MODEL 6
REMARK VINA RESULT:      -7.2      5.363      7.718
REMARK  Name = 
REMARK  6 active torsions:
REMARK  status: ('A' for Active; 'I' for Inactive)
REMARK    1  A    between atoms: C_1  and  C_2
REMARK    2  A    between atoms: C_4  and  C_5
REMARK    3  A    between atoms: C_9  and  C_10
REMARK    4  A    between atoms: C_12  and  S_13
REMARK    5  A    between atoms: S_13  and  C_14
REMARK    6  A    between atoms: C_14  and  C_15
REMARK                            x       y       z     vdW  Elec       q    Type
REMARK                         _______ _______ _______ _____ _____    ______ ____
ROOT
ATOM      1  S   UNL     1       2.198   7.371  19.499  0.00  0.00    +0.000 S 
ENDROOT
BRANCH   1   7
ATOM      2  C   UNL     1       5.455   6.012  15.869  0.00  0.00    +0.000 C 
ATOM      3  C   UNL     1       4.480   5.511  16.893  0.00  0.00    +0.000 A 
ATOM      4  C   UNL     1       4.243   4.157  17.060  0.00  0.00    +0.000 A 
ATOM      5  C   UNL     1       3.325   3.740  18.032  0.00  0.00    +0.000 A 
ATOM      6  C   UNL     1       2.663   4.709  18.813  0.00  0.00    +0.000 A 
ATOM      7  C   UNL     1       2.968   6.057  18.578  0.00  0.00    +0.000 A 
ATOM      8  N   UNL     1       3.855   6.448  17.636  0.00  0.00    +0.000 NA
BRANCH   5   9
ATOM      9  C   UNL     1       3.067   2.265  18.226  0.00  0.00    +0.000 C 
ATOM     10  F   UNL     1       3.281   1.854  19.509  0.00  0.00    +0.000 F 
ATOM     11  F   UNL     1       1.786   1.916  17.940  0.00  0.00    +0.000 F 
ATOM     12  F   UNL     1       3.870   1.486  17.455  0.00  0.00    +0.000 F 
ENDBRANCH   5   9
BRANCH   6  13
ATOM     13  C   UNL     1       1.712   4.310  19.817  0.00  0.00    +0.000 C 
ATOM     14  N   UNL     1       0.925   3.948  20.592  0.00  0.00    +0.000 NA
ENDBRANCH   6  13
ENDBRANCH   1   7
BRANCH   1  15
ATOM     15  C   UNL     1       2.144   8.730  18.259  0.00  0.00    +0.000 C 
BRANCH  15  16
ATOM     16  C   UNL     1       1.018   9.710  18.595  0.00  0.00    +0.000 C 
ATOM     17  O   UNL     1       0.193  10.067  17.758  0.00  0.00    +0.000 OA
ATOM     18  N   UNL     1       1.037  10.136  19.917  0.00  0.00    +0.000 N 
ATOM     19  C   UNL     1       0.114  10.995  20.474  0.00  0.00    +0.000 A 
ATOM     20  N   UNL     1       0.346  11.665  21.578  0.00  0.00    +0.000 NA
ATOM     21  C   UNL     1      -0.719  12.531  21.824  0.00  0.00    +0.000 A 
ATOM     22  C   UNL     1      -0.807  13.494  22.852  0.00  0.00    +0.000 A 
ATOM     23  C   UNL     1      -1.932  14.329  22.935  0.00  0.00    +0.000 A 
ATOM     24  C   UNL     1      -2.974  14.205  22.022  0.00  0.00    +0.000 A 
ATOM     25  C   UNL     1      -2.925  13.243  21.013  0.00  0.00    +0.000 A 
ATOM     26  C   UNL     1      -1.787  12.425  20.931  0.00  0.00    +0.000 A 
ATOM     27  S   UNL     1      -1.440  11.189  19.799  0.00  0.00    +0.000 S 
ATOM     28  H   UNL     1       1.876  10.019  20.475  0.00  0.00    +0.000 HD
ENDBRANCH  15  16
ENDBRANCH   1  15
TORSDOF 5
ENDMDL
MODEL 7
REMARK VINA RESULT:      -7.2      1.204      1.670
REMARK  Name = 
REMARK  6 active torsions:
REMARK  status: ('A' for Active; 'I' for Inactive)
REMARK    1  A    between atoms: C_1  and  C_2
REMARK    2  A    between atoms: C_4  and  C_5
REMARK    3  A    between atoms: C_9  and  C_10
REMARK    4  A    between atoms: C_12  and  S_13
REMARK    5  A    between atoms: S_13  and  C_14
REMARK    6  A    between atoms: C_14  and  C_15
REMARK                            x       y       z     vdW  Elec       q    Type
REMARK                         _______ _______ _______ _____ _____    ______ ____
ROOT
ATOM      1  S   UNL     1       6.474   4.925  18.070  0.00  0.00    +0.000 S 
ENDROOT
BRANCH   1   7
ATOM      2  C   UNL     1       2.612   8.183  17.747  0.00  0.00    +0.000 C 
ATOM      3  C   UNL     1       3.060   6.862  18.297  0.00  0.00    +0.000 A 
ATOM      4  C   UNL     1       2.208   6.068  19.047  0.00  0.00    +0.000 A 
ATOM      5  C   UNL     1       2.673   4.841  19.537  0.00  0.00    +0.000 A 
ATOM      6  C   UNL     1       3.997   4.447  19.258  0.00  0.00    +0.000 A 
ATOM      7  C   UNL     1       4.788   5.311  18.488  0.00  0.00    +0.000 A 
ATOM      8  N   UNL     1       4.329   6.495  18.021  0.00  0.00    +0.000 NA
BRANCH   5   9
ATOM      9  C   UNL     1       1.748   3.967  20.349  0.00  0.00    +0.000 C 
ATOM     10  F   UNL     1       2.214   3.730  21.610  0.00  0.00    +0.000 F 
ATOM     11  F   UNL     1       0.518   4.518  20.513  0.00  0.00    +0.000 F 
ATOM     12  F   UNL     1       1.561   2.741  19.793  0.00  0.00    +0.000 F 
ENDBRANCH   5   9
BRANCH   6  13
ATOM     13  C   UNL     1       4.503   3.194  19.751  0.00  0.00    +0.000 C 
ATOM     14  N   UNL     1       4.902   2.158  20.099  0.00  0.00    +0.000 NA
ENDBRANCH   6  13
ENDBRANCH   1   7
BRANCH   1  15
ATOM     15  C   UNL     1       6.962   6.379  17.053  0.00  0.00    +0.000 C 
BRANCH  15  16
ATOM     16  C   UNL     1       7.666   7.422  17.923  0.00  0.00    +0.000 C 
ATOM     17  O   UNL     1       8.132   7.145  19.025  0.00  0.00    +0.000 OA
ATOM     18  N   UNL     1       7.717   8.681  17.338  0.00  0.00    +0.000 N 
ATOM     19  C   UNL     1       8.321   9.782  17.905  0.00  0.00    +0.000 A 
ATOM     20  N   UNL     1       8.047  11.011  17.535  0.00  0.00    +0.000 NA
ATOM     21  C   UNL     1       8.723  11.904  18.364  0.00  0.00    +0.000 A 
ATOM     22  C   UNL     1       8.613  13.311  18.361  0.00  0.00    +0.000 A 
ATOM     23  C   UNL     1       9.328  14.071  19.299  0.00  0.00    +0.000 A 
ATOM     24  C   UNL     1      10.161  13.452  20.225  0.00  0.00    +0.000 A 
ATOM     25  C   UNL     1      10.310  12.065  20.232  0.00  0.00    +0.000 A 
ATOM     26  C   UNL     1       9.577  11.315  19.299  0.00  0.00    +0.000 A 
ATOM     27  S   UNL     1       9.538   9.617  19.088  0.00  0.00    +0.000 S 
ATOM     28  H   UNL     1       7.098   8.907  16.566  0.00  0.00    +0.000 HD
ENDBRANCH  15  16
ENDBRANCH   1  15
TORSDOF 5
ENDMDL
MODEL 8
REMARK VINA RESULT:      -7.2      5.401      8.999
REMARK  Name = 
REMARK  6 active torsions:
REMARK  status: ('A' for Active; 'I' for Inactive)
REMARK    1  A    between atoms: C_1  and  C_2
REMARK    2  A    between atoms: C_4  and  C_5
REMARK    3  A    between atoms: C_9  and  C_10
REMARK    4  A    between atoms: C_12  and  S_13
REMARK    5  A    between atoms: S_13  and  C_14
REMARK    6  A    between atoms: C_14  and  C_15
REMARK                            x       y       z     vdW  Elec       q    Type
REMARK                         _______ _______ _______ _____ _____    ______ ____
ROOT
ATOM      1  S   UNL     1       3.003   7.482  19.101  0.00  0.00    +0.000 S 
ENDROOT
BRANCH   1   7
ATOM      2  C   UNL     1       1.527   2.727  18.178  0.00  0.00    +0.000 C 
ATOM      3  C   UNL     1       2.569   3.767  17.888  0.00  0.00    +0.000 A 
ATOM      4  C   UNL     1       3.637   3.501  17.048  0.00  0.00    +0.000 A 
ATOM      5  C   UNL     1       4.582   4.506  16.807  0.00  0.00    +0.000 A 
ATOM      6  C   UNL     1       4.425   5.761  17.428  0.00  0.00    +0.000 A 
ATOM      7  C   UNL     1       3.311   5.942  18.261  0.00  0.00    +0.000 A 
ATOM      8  N   UNL     1       2.405   4.964  18.487  0.00  0.00    +0.000 NA
BRANCH   5   9
ATOM      9  C   UNL     1       5.746   4.226  15.886  0.00  0.00    +0.000 C 
ATOM     10  F   UNL     1       5.797   2.925  15.478  0.00  0.00    +0.000 F 
ATOM     11  F   UNL     1       5.700   4.964  14.747  0.00  0.00    +0.000 F 
ATOM     12  F   UNL     1       6.948   4.473  16.469  0.00  0.00    +0.000 F 
ENDBRANCH   5   9
BRANCH   6  13
ATOM     13  C   UNL     1       5.381   6.811  17.202  0.00  0.00    +0.000 C 
ATOM     14  N   UNL     1       6.187   7.638  17.061  0.00  0.00    +0.000 NA
ENDBRANCH   6  13
ENDBRANCH   1   7
BRANCH   1  15
ATOM     15  C   UNL     1       2.150   8.466  17.800  0.00  0.00    +0.000 C 
BRANCH  15  16
ATOM     16  C   UNL     1       0.969   9.229  18.403  0.00  0.00    +0.000 C 
ATOM     17  O   UNL     1       0.897   9.478  19.603  0.00  0.00    +0.000 OA
ATOM     18  N   UNL     1       0.017   9.599  17.462  0.00  0.00    +0.000 N 
ATOM     19  C   UNL     1      -1.124  10.319  17.746  0.00  0.00    +0.000 A 
ATOM     20  N   UNL     1      -2.168  10.337  16.950  0.00  0.00    +0.000 NA
ATOM     21  C   UNL     1      -3.199  11.051  17.558  0.00  0.00    +0.000 A 
ATOM     22  C   UNL     1      -4.515  11.212  17.076  0.00  0.00    +0.000 A 
ATOM     23  C   UNL     1      -5.457  11.923  17.836  0.00  0.00    +0.000 A 
ATOM     24  C   UNL     1      -5.101  12.487  19.056  0.00  0.00    +0.000 A 
ATOM     25  C   UNL     1      -3.799  12.366  19.543  0.00  0.00    +0.000 A 
ATOM     26  C   UNL     1      -2.871  11.639  18.781  0.00  0.00    +0.000 A 
ATOM     27  S   UNL     1      -1.229  11.307  19.131  0.00  0.00    +0.000 S 
ATOM     28  H   UNL     1      -0.001   9.147  16.554  0.00  0.00    +0.000 HD
ENDBRANCH  15  16
ENDBRANCH   1  15
TORSDOF 5
ENDMDL
MODEL 9
REMARK VINA RESULT:      -7.2      1.197      1.440
REMARK  Name = 
REMARK  6 active torsions:
REMARK  status: ('A' for Active; 'I' for Inactive)
REMARK    1  A    between atoms: C_1  and  C_2
REMARK    2  A    between atoms: C_4  and  C_5
REMARK    3  A    between atoms: C_9  and  C_10
REMARK    4  A    between atoms: C_12  and  S_13
REMARK    5  A    between atoms: S_13  and  C_14
REMARK    6  A    between atoms: C_14  and  C_15
REMARK                            x       y       z     vdW  Elec       q    Type
REMARK                         _______ _______ _______ _____ _____    ______ ____
ROOT
ATOM      1  S   UNL     1       6.479   5.153  19.415  0.00  0.00    +0.000 S 
ENDROOT
BRANCH   1   7
ATOM      2  C   UNL     1       2.341   7.510  17.694  0.00  0.00    +0.000 C 
ATOM      3  C   UNL     1       2.877   6.229  18.261  0.00  0.00    +0.000 A 
ATOM      4  C   UNL     1       2.055   5.133  18.468  0.00  0.00    +0.000 A 
ATOM      5  C   UNL     1       2.605   3.958  18.997  0.00  0.00    +0.000 A 
ATOM      6  C   UNL     1       3.979   3.922  19.309  0.00  0.00    +0.000 A 
ATOM      7  C   UNL     1       4.735   5.076  19.063  0.00  0.00    +0.000 A 
ATOM      8  N   UNL     1       4.194   6.206  18.553  0.00  0.00    +0.000 NA
BRANCH   5   9
ATOM      9  C   UNL     1       1.717   2.757  19.219  0.00  0.00    +0.000 C 
ATOM     10  F   UNL     1       1.584   2.434  20.538  0.00  0.00    +0.000 F 
ATOM     11  F   UNL     1       0.453   2.950  18.762  0.00  0.00    +0.000 F 
ATOM     12  F   UNL     1       2.190   1.636  18.615  0.00  0.00    +0.000 F 
ENDBRANCH   5   9
BRANCH   6  13
ATOM     13  C   UNL     1       4.570   2.730  19.857  0.00  0.00    +0.000 C 
ATOM     14  N   UNL     1       5.057   1.749  20.247  0.00  0.00    +0.000 NA
ENDBRANCH   6  13
ENDBRANCH   1   7
BRANCH   1  15
ATOM     15  C   UNL     1       7.202   5.362  17.736  0.00  0.00    +0.000 C 
BRANCH  15  16
ATOM     16  C   UNL     1       7.485   6.840  17.460  0.00  0.00    +0.000 C 
ATOM     17  O   UNL     1       7.166   7.379  16.404  0.00  0.00    +0.000 OA
ATOM     18  N   UNL     1       8.125   7.482  18.512  0.00  0.00    +0.000 N 
ATOM     19  C   UNL     1       8.463   8.818  18.523  0.00  0.00    +0.000 A 
ATOM     20  N   UNL     1       9.370   9.314  19.331  0.00  0.00    +0.000 NA
ATOM     21  C   UNL     1       9.573  10.659  19.028  0.00  0.00    +0.000 A 
ATOM     22  C   UNL     1      10.536  11.519  19.596  0.00  0.00    +0.000 A 
ATOM     23  C   UNL     1      10.646  12.843  19.144  0.00  0.00    +0.000 A 
ATOM     24  C   UNL     1       9.802  13.324  18.149  0.00  0.00    +0.000 A 
ATOM     25  C   UNL     1       8.822  12.503  17.589  0.00  0.00    +0.000 A 
ATOM     26  C   UNL     1       8.733  11.176  18.039  0.00  0.00    +0.000 A 
ATOM     27  S   UNL     1       7.659   9.945  17.527  0.00  0.00    +0.000 S 
ATOM     28  H   UNL     1       8.590   6.937  19.231  0.00  0.00    +0.000 HD
ENDBRANCH  15  16
ENDBRANCH   1  15
TORSDOF 5
ENDMDL
