MODEL 1
REMARK VINA RESULT:      -8.5      0.000      0.000
REMARK  Name = 
REMARK  5 active torsions:
REMARK  status: ('A' for Active; 'I' for Inactive)
REMARK    1  A    between atoms: N_11  and  N_12
REMARK    2  A    between atoms: N_12  and  C_13
REMARK    3  A    between atoms: C_13  and  N_15
REMARK    4  A    between atoms: N_15  and  C_16
REMARK    5  A    between atoms: C_20  and  C_21
REMARK                            x       y       z     vdW  Elec       q    Type
REMARK                         _______ _______ _______ _____ _____    ______ ____
ROOT
ATOM      1  N   UNL     1       4.452   4.340  17.844  0.00  0.00    +0.000 N 
ATOM      2  H   UNL     1       5.262   4.607  18.415  0.00  0.00    +0.000 HD
ENDROOT
BRANCH   1  13
ATOM      3  O   UNL     1       6.841   5.729  17.659  0.00  0.00    +0.000 OA
ATOM      4  C   UNL     1       6.773   5.334  16.514  0.00  0.00    +0.000 C 
ATOM      5  N   UNL     1       7.588   5.619  15.439  0.00  0.00    +0.000 N 
ATOM      6  C   UNL     1       7.147   4.952  14.299  0.00  0.00    +0.000 A 
ATOM      7  C   UNL     1       7.671   5.017  13.027  0.00  0.00    +0.000 A 
ATOM      8  C   UNL     1       7.030   4.268  12.031  0.00  0.00    +0.000 A 
ATOM      9  C   UNL     1       5.894   3.485  12.321  0.00  0.00    +0.000 A 
ATOM     10  C   UNL     1       5.371   3.430  13.613  0.00  0.00    +0.000 A 
ATOM     11  C   UNL     1       6.024   4.174  14.572  0.00  0.00    +0.000 A 
ATOM     12  C   UNL     1       5.691   4.388  15.971  0.00  0.00    +0.000 C 
ATOM     13  N   UNL     1       4.637   3.918  16.562  0.00  0.00    +0.000 NA
ATOM     14  H   UNL     1       8.379   6.245  15.495  0.00  0.00    +0.000 HD
ENDBRANCH   1  13
BRANCH   1  15
ATOM     15  C   UNL     1       3.220   4.762  18.292  0.00  0.00    +0.000 C 
ATOM     16  S   UNL     1       1.885   3.886  17.787  0.00  0.00    +0.000 S 
BRANCH  15  17
ATOM     17  N   UNL     1       3.273   5.833  19.164  0.00  0.00    +0.000 N 
ATOM     18  H   UNL     1       3.820   5.627  19.995  0.00  0.00    +0.000 HD
BRANCH  17  19
ATOM     19  C   UNL     1       2.604   7.072  19.079  0.00  0.00    +0.000 A 
ATOM     20  C   UNL     1       2.742   7.899  17.962  0.00  0.00    +0.000 A 
ATOM     21  C   UNL     1       2.074   9.117  17.876  0.00  0.00    +0.000 A 
ATOM     22  C   UNL     1       1.260   9.533  18.923  0.00  0.00    +0.000 A 
ATOM     23  C   UNL     1       1.128   8.742  20.075  0.00  0.00    +0.000 A 
ATOM     24  C   UNL     1       1.830   7.520  20.157  0.00  0.00    +0.000 A 
BRANCH  23  25
ATOM     25  C   UNL     1       0.227   9.195  21.197  0.00  0.00    +0.000 C 
ATOM     26  F   UNL     1      -0.479   8.178  21.772  0.00  0.00    +0.000 F 
ATOM     27  F   UNL     1       0.911   9.788  22.213  0.00  0.00    +0.000 F 
ATOM     28  F   UNL     1      -0.702  10.103  20.790  0.00  0.00    +0.000 F 
ENDBRANCH  23  25
ENDBRANCH  17  19
ENDBRANCH  15  17
ENDBRANCH   1  15
TORSDOF 5
ENDMDL
MODEL 2
REMARK VINA RESULT:      -8.5      0.670      1.055
REMARK  Name = 
REMARK  5 active torsions:
REMARK  status: ('A' for Active; 'I' for Inactive)
REMARK    1  A    between atoms: N_11  and  N_12
REMARK    2  A    between atoms: N_12  and  C_13
REMARK    3  A    between atoms: C_13  and  N_15
REMARK    4  A    between atoms: N_15  and  C_16
REMARK    5  A    between atoms: C_20  and  C_21
REMARK                            x       y       z     vdW  Elec       q    Type
REMARK                         _______ _______ _______ _____ _____    ______ ____
ROOT
ATOM      1  N   UNL     1       4.815   3.733  17.836  0.00  0.00    +0.000 N 
ATOM      2  H   UNL     1       5.584   4.128  18.387  0.00  0.00    +0.000 HD
ENDROOT
BRANCH   1  13
ATOM      3  O   UNL     1       6.935   5.506  17.663  0.00  0.00    +0.000 OA
ATOM      4  C   UNL     1       6.885   5.171  16.498  0.00  0.00    +0.000 C 
ATOM      5  N   UNL     1       7.597   5.648  15.418  0.00  0.00    +0.000 N 
ATOM      6  C   UNL     1       7.223   4.984  14.252  0.00  0.00    +0.000 A 
ATOM      7  C   UNL     1       7.677   5.208  12.971  0.00  0.00    +0.000 A 
ATOM      8  C   UNL     1       7.125   4.421  11.951  0.00  0.00    +0.000 A 
ATOM      9  C   UNL     1       6.145   3.446  12.227  0.00  0.00    +0.000 A 
ATOM     10  C   UNL     1       5.691   3.231  13.528  0.00  0.00    +0.000 A 
ATOM     11  C   UNL     1       6.254   4.017  14.511  0.00  0.00    +0.000 A 
ATOM     12  C   UNL     1       5.950   4.092  15.931  0.00  0.00    +0.000 C 
ATOM     13  N   UNL     1       5.012   3.421  16.524  0.00  0.00    +0.000 NA
ATOM     14  H   UNL     1       8.277   6.392  15.488  0.00  0.00    +0.000 HD
ENDBRANCH   1  13
BRANCH   1  15
ATOM     15  C   UNL     1       3.548   3.877  18.358  0.00  0.00    +0.000 C 
ATOM     16  S   UNL     1       2.388   2.779  17.857  0.00  0.00    +0.000 S 
BRANCH  15  17
ATOM     17  N   UNL     1       3.435   4.892  19.290  0.00  0.00    +0.000 N 
ATOM     18  H   UNL     1       3.710   4.593  20.220  0.00  0.00    +0.000 HD
BRANCH  17  19
ATOM     19  C   UNL     1       2.910   6.189  19.119  0.00  0.00    +0.000 A 
ATOM     20  C   UNL     1       3.156   6.927  17.958  0.00  0.00    +0.000 A 
ATOM     21  C   UNL     1       2.629   8.205  17.788  0.00  0.00    +0.000 A 
ATOM     22  C   UNL     1       1.851   8.771  18.791  0.00  0.00    +0.000 A 
ATOM     23  C   UNL     1       1.616   8.070  19.985  0.00  0.00    +0.000 A 
ATOM     24  C   UNL     1       2.175   6.785  20.152  0.00  0.00    +0.000 A 
BRANCH  23  25
ATOM     25  C   UNL     1       0.754   8.686  21.059  0.00  0.00    +0.000 C 
ATOM     26  F   UNL     1       0.029   9.759  20.627  0.00  0.00    +0.000 F 
ATOM     27  F   UNL     1      -0.154   7.810  21.570  0.00  0.00    +0.000 F 
ATOM     28  F   UNL     1       1.479   9.136  22.119  0.00  0.00    +0.000 F 
ENDBRANCH  23  25
ENDBRANCH  17  19
ENDBRANCH  15  17
ENDBRANCH   1  15
TORSDOF 5
ENDMDL
MODEL 3
REMARK VINA RESULT:      -8.4      1.326      1.659
REMARK  Name = 
REMARK  5 active torsions:
REMARK  status: ('A' for Active; 'I' for Inactive)
REMARK    1  A    between atoms: N_11  and  N_12
REMARK    2  A    between atoms: N_12  and  C_13
REMARK    3  A    between atoms: C_13  and  N_15
REMARK    4  A    between atoms: N_15  and  C_16
REMARK    5  A    between atoms: C_20  and  C_21
REMARK                            x       y       z     vdW  Elec       q    Type
REMARK                         _______ _______ _______ _____ _____    ______ ____
ROOT
ATOM      1  N   UNL     1       3.761   4.042  19.594  0.00  0.00    +0.000 N 
ATOM      2  H   UNL     1       4.454   3.763  20.297  0.00  0.00    +0.000 HD
ENDROOT
BRANCH   1  13
ATOM      3  O   UNL     1       6.307   5.094  19.884  0.00  0.00    +0.000 OA
ATOM      4  C   UNL     1       6.310   4.940  18.680  0.00  0.00    +0.000 C 
ATOM      5  N   UNL     1       7.262   5.311  17.754  0.00  0.00    +0.000 N 
ATOM      6  C   UNL     1       6.864   4.945  16.470  0.00  0.00    +0.000 A 
ATOM      7  C   UNL     1       7.523   5.180  15.284  0.00  0.00    +0.000 A 
ATOM      8  C   UNL     1       6.902   4.734  14.108  0.00  0.00    +0.000 A 
ATOM      9  C   UNL     1       5.656   4.076  14.142  0.00  0.00    +0.000 A 
ATOM     10  C   UNL     1       4.998   3.847  15.351  0.00  0.00    +0.000 A 
ATOM     11  C   UNL     1       5.633   4.293  16.490  0.00  0.00    +0.000 A 
ATOM     12  C   UNL     1       5.185   4.277  17.873  0.00  0.00    +0.000 C 
ATOM     13  N   UNL     1       4.025   3.854  18.271  0.00  0.00    +0.000 NA
ATOM     14  H   UNL     1       8.112   5.798  17.998  0.00  0.00    +0.000 HD
ENDBRANCH   1  13
BRANCH   1  15
ATOM     15  C   UNL     1       2.773   4.905  20.014  0.00  0.00    +0.000 C 
ATOM     16  S   UNL     1       1.335   4.223  20.532  0.00  0.00    +0.000 S 
BRANCH  15  17
ATOM     17  N   UNL     1       3.146   6.236  20.006  0.00  0.00    +0.000 N 
ATOM     18  H   UNL     1       4.058   6.383  20.429  0.00  0.00    +0.000 HD
BRANCH  17  19
ATOM     19  C   UNL     1       2.398   7.358  19.593  0.00  0.00    +0.000 A 
ATOM     20  C   UNL     1       2.472   7.842  18.285  0.00  0.00    +0.000 A 
ATOM     21  C   UNL     1       1.725   8.945  17.878  0.00  0.00    +0.000 A 
ATOM     22  C   UNL     1       0.895   9.590  18.787  0.00  0.00    +0.000 A 
ATOM     23  C   UNL     1       0.827   9.151  20.119  0.00  0.00    +0.000 A 
ATOM     24  C   UNL     1       1.606   8.046  20.522  0.00  0.00    +0.000 A 
BRANCH  23  25
ATOM     25  C   UNL     1      -0.092   9.848  21.092  0.00  0.00    +0.000 C 
ATOM     26  F   UNL     1      -0.813   8.990  21.870  0.00  0.00    +0.000 F 
ATOM     27  F   UNL     1       0.578  10.656  21.959  0.00  0.00    +0.000 F 
ATOM     28  F   UNL     1      -1.008  10.641  20.472  0.00  0.00    +0.000 F 
ENDBRANCH  23  25
ENDBRANCH  17  19
ENDBRANCH  15  17
ENDBRANCH   1  15
TORSDOF 5
ENDMDL
MODEL 4
REMARK VINA RESULT:      -8.2      3.436      7.071
REMARK  Name = 
REMARK  5 active torsions:
REMARK  status: ('A' for Active; 'I' for Inactive)
REMARK    1  A    between atoms: N_11  and  N_12
REMARK    2  A    between atoms: N_12  and  C_13
REMARK    3  A    between atoms: C_13  and  N_15
REMARK    4  A    between atoms: N_15  and  C_16
REMARK    5  A    between atoms: C_20  and  C_21
REMARK                            x       y       z     vdW  Elec       q    Type
REMARK                         _______ _______ _______ _____ _____    ______ ____
ROOT
ATOM      1  N   UNL     1       2.746   3.790  18.709  0.00  0.00    +0.000 N 
ATOM      2  H   UNL     1       1.872   3.271  18.847  0.00  0.00    +0.000 HD
ENDROOT
BRANCH   1  13
ATOM      3  O   UNL     1       2.081   4.678  21.247  0.00  0.00    +0.000 OA
ATOM      4  C   UNL     1       1.998   5.735  20.658  0.00  0.00    +0.000 C 
ATOM      5  N   UNL     1       1.571   6.963  21.119  0.00  0.00    +0.000 N 
ATOM      6  C   UNL     1       1.631   7.915  20.105  0.00  0.00    +0.000 A 
ATOM      7  C   UNL     1       1.250   9.237  20.165  0.00  0.00    +0.000 A 
ATOM      8  C   UNL     1       1.383   9.995  18.993  0.00  0.00    +0.000 A 
ATOM      9  C   UNL     1       1.882   9.425  17.804  0.00  0.00    +0.000 A 
ATOM     10  C   UNL     1       2.261   8.083  17.756  0.00  0.00    +0.000 A 
ATOM     11  C   UNL     1       2.123   7.364  18.923  0.00  0.00    +0.000 A 
ATOM     12  C   UNL     1       2.353   5.952  19.179  0.00  0.00    +0.000 C 
ATOM     13  N   UNL     1       2.704   5.083  18.282  0.00  0.00    +0.000 NA
ATOM     14  H   UNL     1       1.245   7.117  22.062  0.00  0.00    +0.000 HD
ENDBRANCH   1  13
BRANCH   1  15
ATOM     15  C   UNL     1       3.898   3.041  18.623  0.00  0.00    +0.000 C 
ATOM     16  S   UNL     1       4.430   2.299  20.027  0.00  0.00    +0.000 S 
BRANCH  15  17
ATOM     17  N   UNL     1       4.424   2.959  17.347  0.00  0.00    +0.000 N 
ATOM     18  H   UNL     1       4.134   2.113  16.866  0.00  0.00    +0.000 HD
BRANCH  17  19
ATOM     19  C   UNL     1       5.347   3.819  16.719  0.00  0.00    +0.000 A 
ATOM     20  C   UNL     1       5.796   3.580  15.418  0.00  0.00    +0.000 A 
ATOM     21  C   UNL     1       6.702   4.436  14.796  0.00  0.00    +0.000 A 
ATOM     22  C   UNL     1       7.184   5.546  15.479  0.00  0.00    +0.000 A 
ATOM     23  C   UNL     1       6.781   5.794  16.801  0.00  0.00    +0.000 A 
ATOM     24  C   UNL     1       5.879   4.906  17.425  0.00  0.00    +0.000 A 
BRANCH  23  25
ATOM     25  C   UNL     1       7.295   7.013  17.526  0.00  0.00    +0.000 C 
ATOM     26  F   UNL     1       8.204   7.732  16.805  0.00  0.00    +0.000 F 
ATOM     27  F   UNL     1       6.304   7.889  17.848  0.00  0.00    +0.000 F 
ATOM     28  F   UNL     1       7.917   6.703  18.697  0.00  0.00    +0.000 F 
ENDBRANCH  23  25
ENDBRANCH  17  19
ENDBRANCH  15  17
ENDBRANCH   1  15
TORSDOF 5
ENDMDL
MODEL 5
REMARK VINA RESULT:      -8.2      4.291      7.439
REMARK  Name = 
REMARK  5 active torsions:
REMARK  status: ('A' for Active; 'I' for Inactive)
REMARK    1  A    between atoms: N_11  and  N_12
REMARK    2  A    between atoms: N_12  and  C_13
REMARK    3  A    between atoms: C_13  and  N_15
REMARK    4  A    between atoms: N_15  and  C_16
REMARK    5  A    between atoms: C_20  and  C_21
REMARK                            x       y       z     vdW  Elec       q    Type
REMARK                         _______ _______ _______ _____ _____    ______ ____
ROOT
ATOM      1  N   UNL     1       2.869   3.734  19.076  0.00  0.00    +0.000 N 
ATOM      2  H   UNL     1       1.995   3.260  19.327  0.00  0.00    +0.000 HD
ENDROOT
BRANCH   1  13
ATOM      3  O   UNL     1       2.074   4.790  21.510  0.00  0.00    +0.000 OA
ATOM      4  C   UNL     1       2.004   5.801  20.843  0.00  0.00    +0.000 C 
ATOM      5  N   UNL     1       1.539   7.051  21.194  0.00  0.00    +0.000 N 
ATOM      6  C   UNL     1       1.634   7.929  20.118  0.00  0.00    +0.000 A 
ATOM      7  C   UNL     1       1.233   9.245  20.065  0.00  0.00    +0.000 A 
ATOM      8  C   UNL     1       1.410   9.920  18.849  0.00  0.00    +0.000 A 
ATOM      9  C   UNL     1       1.972   9.274  17.728  0.00  0.00    +0.000 A 
ATOM     10  C   UNL     1       2.371   7.939  17.794  0.00  0.00    +0.000 A 
ATOM     11  C   UNL     1       2.188   7.303  19.003  0.00  0.00    +0.000 A 
ATOM     12  C   UNL     1       2.425   5.917  19.371  0.00  0.00    +0.000 C 
ATOM     13  N   UNL     1       2.830   4.993  18.555  0.00  0.00    +0.000 NA
ATOM     14  H   UNL     1       1.167   7.266  22.108  0.00  0.00    +0.000 HD
ENDBRANCH   1  13
BRANCH   1  15
ATOM     15  C   UNL     1       3.987   2.939  18.951  0.00  0.00    +0.000 C 
ATOM     16  S   UNL     1       3.746   1.360  18.449  0.00  0.00    +0.000 S 
BRANCH  15  17
ATOM     17  N   UNL     1       5.177   3.595  19.205  0.00  0.00    +0.000 N 
ATOM     18  H   UNL     1       5.482   3.481  20.166  0.00  0.00    +0.000 HD
BRANCH  17  19
ATOM     19  C   UNL     1       5.914   4.443  18.352  0.00  0.00    +0.000 A 
ATOM     20  C   UNL     1       6.652   5.517  18.853  0.00  0.00    +0.000 A 
ATOM     21  C   UNL     1       7.385   6.347  18.009  0.00  0.00    +0.000 A 
ATOM     22  C   UNL     1       7.380   6.118  16.638  0.00  0.00    +0.000 A 
ATOM     23  C   UNL     1       6.618   5.069  16.099  0.00  0.00    +0.000 A 
ATOM     24  C   UNL     1       5.863   4.250  16.965  0.00  0.00    +0.000 A 
BRANCH  23  25
ATOM     25  C   UNL     1       6.635   4.817  14.612  0.00  0.00    +0.000 C 
ATOM     26  F   UNL     1       7.694   5.395  13.974  0.00  0.00    +0.000 F 
ATOM     27  F   UNL     1       6.699   3.493  14.305  0.00  0.00    +0.000 F 
ATOM     28  F   UNL     1       5.524   5.294  13.987  0.00  0.00    +0.000 F 
ENDBRANCH  23  25
ENDBRANCH  17  19
ENDBRANCH  15  17
ENDBRANCH   1  15
TORSDOF 5
ENDMDL
MODEL 6
REMARK VINA RESULT:      -8.1      4.857      8.243
REMARK  Name = 
REMARK  5 active torsions:
REMARK  status: ('A' for Active; 'I' for Inactive)
REMARK    1  A    between atoms: N_11  and  N_12
REMARK    2  A    between atoms: N_12  and  C_13
REMARK    3  A    between atoms: C_13  and  N_15
REMARK    4  A    between atoms: N_15  and  C_16
REMARK    5  A    between atoms: C_20  and  C_21
REMARK                            x       y       z     vdW  Elec       q    Type
REMARK                         _______ _______ _______ _____ _____    ______ ____
ROOT
ATOM      1  N   UNL     1       5.185   5.758  16.507  0.00  0.00    +0.000 N 
ATOM      2  H   UNL     1       4.761   6.667  16.293  0.00  0.00    +0.000 HD
ENDROOT
BRANCH   1  13
ATOM      3  O   UNL     1       3.727   7.554  18.031  0.00  0.00    +0.000 OA
ATOM      4  C   UNL     1       3.227   6.526  18.436  0.00  0.00    +0.000 C 
ATOM      5  N   UNL     1       2.306   6.339  19.446  0.00  0.00    +0.000 N 
ATOM      6  C   UNL     1       2.002   4.988  19.587  0.00  0.00    +0.000 A 
ATOM      7  C   UNL     1       1.163   4.404  20.509  0.00  0.00    +0.000 A 
ATOM      8  C   UNL     1       1.039   3.008  20.469  0.00  0.00    +0.000 A 
ATOM      9  C   UNL     1       1.747   2.237  19.524  0.00  0.00    +0.000 A 
ATOM     10  C   UNL     1       2.597   2.841  18.596  0.00  0.00    +0.000 A 
ATOM     11  C   UNL     1       2.696   4.214  18.658  0.00  0.00    +0.000 A 
ATOM     12  C   UNL     1       3.538   5.122  17.897  0.00  0.00    +0.000 C 
ATOM     13  N   UNL     1       4.416   4.755  17.015  0.00  0.00    +0.000 NA
ATOM     14  H   UNL     1       1.936   7.095  20.003  0.00  0.00    +0.000 HD
ENDBRANCH   1  13
BRANCH   1  15
ATOM     15  C   UNL     1       6.559   5.729  16.602  0.00  0.00    +0.000 C 
ATOM     16  S   UNL     1       7.265   6.726  17.746  0.00  0.00    +0.000 S 
BRANCH  15  17
ATOM     17  N   UNL     1       7.162   4.812  15.761  0.00  0.00    +0.000 N 
ATOM     18  H   UNL     1       7.787   4.186  16.260  0.00  0.00    +0.000 HD
BRANCH  17  19
ATOM     19  C   UNL     1       7.088   4.724  14.356  0.00  0.00    +0.000 A 
ATOM     20  C   UNL     1       7.999   5.395  13.536  0.00  0.00    +0.000 A 
ATOM     21  C   UNL     1       7.929   5.301  12.149  0.00  0.00    +0.000 A 
ATOM     22  C   UNL     1       6.930   4.536  11.558  0.00  0.00    +0.000 A 
ATOM     23  C   UNL     1       5.977   3.879  12.352  0.00  0.00    +0.000 A 
ATOM     24  C   UNL     1       6.048   4.003  13.757  0.00  0.00    +0.000 A 
BRANCH  23  25
ATOM     25  C   UNL     1       4.909   3.036  11.701  0.00  0.00    +0.000 C 
ATOM     26  F   UNL     1       4.470   3.539  10.510  0.00  0.00    +0.000 F 
ATOM     27  F   UNL     1       5.331   1.770  11.433  0.00  0.00    +0.000 F 
ATOM     28  F   UNL     1       3.799   2.905  12.477  0.00  0.00    +0.000 F 
ENDBRANCH  23  25
ENDBRANCH  17  19
ENDBRANCH  15  17
ENDBRANCH   1  15
TORSDOF 5
ENDMDL
MODEL 7
REMARK VINA RESULT:      -8.1      3.984      8.539
REMARK  Name = 
REMARK  5 active torsions:
REMARK  status: ('A' for Active; 'I' for Inactive)
REMARK    1  A    between atoms: N_11  and  N_12
REMARK    2  A    between atoms: N_12  and  C_13
REMARK    3  A    between atoms: C_13  and  N_15
REMARK    4  A    between atoms: N_15  and  C_16
REMARK    5  A    between atoms: C_20  and  C_21
REMARK                            x       y       z     vdW  Elec       q    Type
REMARK                         _______ _______ _______ _____ _____    ______ ____
ROOT
ATOM      1  N   UNL     1       2.511   6.839  20.266  0.00  0.00    +0.000 N 
ATOM      2  H   UNL     1       3.498   7.117  20.278  0.00  0.00    +0.000 HD
ENDROOT
BRANCH   1  13
ATOM      3  O   UNL     1       2.010   8.815  18.391  0.00  0.00    +0.000 OA
ATOM      4  C   UNL     1       1.345   9.258  19.303  0.00  0.00    +0.000 C 
ATOM      5  N   UNL     1       0.664  10.455  19.388  0.00  0.00    +0.000 N 
ATOM      6  C   UNL     1       0.030  10.570  20.623  0.00  0.00    +0.000 A 
ATOM      7  C   UNL     1      -0.707  11.632  21.097  0.00  0.00    +0.000 A 
ATOM      8  C   UNL     1      -1.228  11.522  22.394  0.00  0.00    +0.000 A 
ATOM      9  C   UNL     1      -1.003  10.372  23.178  0.00  0.00    +0.000 A 
ATOM     10  C   UNL     1      -0.252   9.304  22.687  0.00  0.00    +0.000 A 
ATOM     11  C   UNL     1       0.245   9.439  21.409  0.00  0.00    +0.000 A 
ATOM     12  C   UNL     1       1.113   8.556  20.649  0.00  0.00    +0.000 C 
ATOM     13  N   UNL     1       1.625   7.452  21.100  0.00  0.00    +0.000 NA
ATOM     14  H   UNL     1       0.660  11.144  18.650  0.00  0.00    +0.000 HD
ENDBRANCH   1  13
BRANCH   1  15
ATOM     15  C   UNL     1       2.219   5.633  19.668  0.00  0.00    +0.000 C 
ATOM     16  S   UNL     1       1.387   4.509  20.588  0.00  0.00    +0.000 S 
BRANCH  15  17
ATOM     17  N   UNL     1       2.611   5.550  18.345  0.00  0.00    +0.000 N 
ATOM     18  H   UNL     1       1.842   5.727  17.704  0.00  0.00    +0.000 HD
BRANCH  17  19
ATOM     19  C   UNL     1       3.862   5.167  17.819  0.00  0.00    +0.000 A 
ATOM     20  C   UNL     1       3.960   4.428  16.638  0.00  0.00    +0.000 A 
ATOM     21  C   UNL     1       5.196   4.057  16.117  0.00  0.00    +0.000 A 
ATOM     22  C   UNL     1       6.362   4.415  16.783  0.00  0.00    +0.000 A 
ATOM     23  C   UNL     1       6.297   5.126  17.992  0.00  0.00    +0.000 A 
ATOM     24  C   UNL     1       5.035   5.475  18.519  0.00  0.00    +0.000 A 
BRANCH  23  25
ATOM     25  C   UNL     1       7.569   5.526  18.697  0.00  0.00    +0.000 C 
ATOM     26  F   UNL     1       8.587   4.633  18.531  0.00  0.00    +0.000 F 
ATOM     27  F   UNL     1       8.055   6.722  18.264  0.00  0.00    +0.000 F 
ATOM     28  F   UNL     1       7.406   5.653  20.042  0.00  0.00    +0.000 F 
ENDBRANCH  23  25
ENDBRANCH  17  19
ENDBRANCH  15  17
ENDBRANCH   1  15
TORSDOF 5
ENDMDL
MODEL 8
REMARK VINA RESULT:      -8.0      1.273      1.895
REMARK  Name = 
REMARK  5 active torsions:
REMARK  status: ('A' for Active; 'I' for Inactive)
REMARK    1  A    between atoms: N_11  and  N_12
REMARK    2  A    between atoms: N_12  and  C_13
REMARK    3  A    between atoms: C_13  and  N_15
REMARK    4  A    between atoms: N_15  and  C_16
REMARK    5  A    between atoms: C_20  and  C_21
REMARK                            x       y       z     vdW  Elec       q    Type
REMARK                         _______ _______ _______ _____ _____    ______ ____
ROOT
ATOM      1  N   UNL     1       4.388   3.943  17.686  0.00  0.00    +0.000 N 
ATOM      2  H   UNL     1       5.115   3.869  18.406  0.00  0.00    +0.000 HD
ENDROOT
BRANCH   1  13
ATOM      3  O   UNL     1       6.635   5.563  17.699  0.00  0.00    +0.000 OA
ATOM      4  C   UNL     1       6.662   5.225  16.534  0.00  0.00    +0.000 C 
ATOM      5  N   UNL     1       7.498   5.646  15.521  0.00  0.00    +0.000 N 
ATOM      6  C   UNL     1       7.181   5.003  14.326  0.00  0.00    +0.000 A 
ATOM      7  C   UNL     1       7.758   5.186  13.090  0.00  0.00    +0.000 A 
ATOM      8  C   UNL     1       7.243   4.435  12.025  0.00  0.00    +0.000 A 
ATOM      9  C   UNL     1       6.177   3.531  12.214  0.00  0.00    +0.000 A 
ATOM     10  C   UNL     1       5.599   3.357  13.471  0.00  0.00    +0.000 A 
ATOM     11  C   UNL     1       6.128   4.106  14.500  0.00  0.00    +0.000 A 
ATOM     12  C   UNL     1       5.707   4.211  15.887  0.00  0.00    +0.000 C 
ATOM     13  N   UNL     1       4.676   3.611  16.396  0.00  0.00    +0.000 NA
ATOM     14  H   UNL     1       8.219   6.340  15.650  0.00  0.00    +0.000 HD
ENDBRANCH   1  13
BRANCH   1  15
ATOM     15  C   UNL     1       3.285   4.704  18.003  0.00  0.00    +0.000 C 
ATOM     16  S   UNL     1       1.782   4.024  17.717  0.00  0.00    +0.000 S 
BRANCH  15  17
ATOM     17  N   UNL     1       3.588   5.922  18.583  0.00  0.00    +0.000 N 
ATOM     18  H   UNL     1       4.588   6.099  18.606  0.00  0.00    +0.000 HD
BRANCH  17  19
ATOM     19  C   UNL     1       2.718   6.842  19.204  0.00  0.00    +0.000 A 
ATOM     20  C   UNL     1       2.172   6.591  20.465  0.00  0.00    +0.000 A 
ATOM     21  C   UNL     1       1.320   7.505  21.079  0.00  0.00    +0.000 A 
ATOM     22  C   UNL     1       0.991   8.688  20.428  0.00  0.00    +0.000 A 
ATOM     23  C   UNL     1       1.494   8.953  19.145  0.00  0.00    +0.000 A 
ATOM     24  C   UNL     1       2.338   8.007  18.526  0.00  0.00    +0.000 A 
BRANCH  23  25
ATOM     25  C   UNL     1       1.145  10.250  18.456  0.00  0.00    +0.000 C 
ATOM     26  F   UNL     1       0.037  10.164  17.664  0.00  0.00    +0.000 F 
ATOM     27  F   UNL     1       0.893  11.259  19.334  0.00  0.00    +0.000 F 
ATOM     28  F   UNL     1       2.143  10.698  17.646  0.00  0.00    +0.000 F 
ENDBRANCH  23  25
ENDBRANCH  17  19
ENDBRANCH  15  17
ENDBRANCH   1  15
TORSDOF 5
ENDMDL
MODEL 9
REMARK VINA RESULT:      -8.0      4.102      7.922
REMARK  Name = 
REMARK  5 active torsions:
REMARK  status: ('A' for Active; 'I' for Inactive)
REMARK    1  A    between atoms: N_11  and  N_12
REMARK    2  A    between atoms: N_12  and  C_13
REMARK    3  A    between atoms: C_13  and  N_15
REMARK    4  A    between atoms: N_15  and  C_16
REMARK    5  A    between atoms: C_20  and  C_21
REMARK                            x       y       z     vdW  Elec       q    Type
REMARK                         _______ _______ _______ _____ _____    ______ ____
ROOT
ATOM      1  N   UNL     1       3.162   6.075  19.983  0.00  0.00    +0.000 N 
ATOM      2  H   UNL     1       4.142   6.376  20.015  0.00  0.00    +0.000 HD
ENDROOT
BRANCH   1  13
ATOM      3  O   UNL     1       3.404   7.521  17.634  0.00  0.00    +0.000 OA
ATOM      4  C   UNL     1       2.591   8.224  18.195  0.00  0.00    +0.000 C 
ATOM      5  N   UNL     1       2.066   9.438  17.805  0.00  0.00    +0.000 N 
ATOM      6  C   UNL     1       1.159   9.907  18.753  0.00  0.00    +0.000 A 
ATOM      7  C   UNL     1       0.465  11.096  18.741  0.00  0.00    +0.000 A 
ATOM      8  C   UNL     1      -0.377  11.357  19.831  0.00  0.00    +0.000 A 
ATOM      9  C   UNL     1      -0.504  10.439  20.894  0.00  0.00    +0.000 A 
ATOM     10  C   UNL     1       0.207   9.239  20.896  0.00  0.00    +0.000 A 
ATOM     11  C   UNL     1       1.024   9.009  19.810  0.00  0.00    +0.000 A 
ATOM     12  C   UNL     1       1.939   7.909  19.550  0.00  0.00    +0.000 C 
ATOM     13  N   UNL     1       2.178   6.934  20.371  0.00  0.00    +0.000 NA
ATOM     14  H   UNL     1       2.336   9.911  16.955  0.00  0.00    +0.000 HD
ENDBRANCH   1  13
BRANCH   1  15
ATOM     15  C   UNL     1       2.938   4.720  19.890  0.00  0.00    +0.000 C 
ATOM     16  S   UNL     1       1.400   4.174  20.264  0.00  0.00    +0.000 S 
BRANCH  15  17
ATOM     17  N   UNL     1       4.024   3.999  19.430  0.00  0.00    +0.000 N 
ATOM     18  H   UNL     1       4.016   3.038  19.759  0.00  0.00    +0.000 HD
BRANCH  17  19
ATOM     19  C   UNL     1       5.131   4.455  18.684  0.00  0.00    +0.000 A 
ATOM     20  C   UNL     1       6.223   5.068  19.302  0.00  0.00    +0.000 A 
ATOM     21  C   UNL     1       7.318   5.510  18.565  0.00  0.00    +0.000 A 
ATOM     22  C   UNL     1       7.329   5.352  17.184  0.00  0.00    +0.000 A 
ATOM     23  C   UNL     1       6.231   4.773  16.528  0.00  0.00    +0.000 A 
ATOM     24  C   UNL     1       5.119   4.351  17.287  0.00  0.00    +0.000 A 
BRANCH  23  25
ATOM     25  C   UNL     1       6.262   4.590  15.031  0.00  0.00    +0.000 C 
ATOM     26  F   UNL     1       6.264   3.282  14.643  0.00  0.00    +0.000 F 
ATOM     27  F   UNL     1       5.191   5.157  14.411  0.00  0.00    +0.000 F 
ATOM     28  F   UNL     1       7.365   5.146  14.458  0.00  0.00    +0.000 F 
ENDBRANCH  23  25
ENDBRANCH  17  19
ENDBRANCH  15  17
ENDBRANCH   1  15
TORSDOF 5
ENDMDL
