MODEL 1
REMARK VINA RESULT:      -6.9      0.000      0.000
REMARK  Name = 
REMARK  7 active torsions:
REMARK  status: ('A' for Active; 'I' for Inactive)
REMARK    1  A    between atoms: C_1  and  C_2
REMARK    2  A    between atoms: C_2  and  N_3
REMARK    3  A    between atoms: N_3  and  C_4
REMARK    4  A    between atoms: N_3  and  C_6
REMARK    5  A    between atoms: C_4  and  C_5
REMARK    6  A    between atoms: C_9  and  C_10
REMARK    7  A    between atoms: N_12  and  C_13
REMARK                            x       y       z     vdW  Elec       q    Type
REMARK                         _______ _______ _______ _____ _____    ______ ____
ROOT
ATOM      1  C   UNL     1       0.750   9.731  19.670  0.00  0.00    +0.000 A 
ATOM      2  C   UNL     1       1.111   9.610  18.323  0.00  0.00    +0.000 A 
ATOM      3  C   UNL     1       1.887   8.547  17.865  0.00  0.00    +0.000 A 
ATOM      4  C   UNL     1       2.311   7.547  18.743  0.00  0.00    +0.000 A 
ATOM      5  C   UNL     1       1.933   7.608  20.082  0.00  0.00    +0.000 A 
ATOM      6  C   UNL     1       1.167   8.699  20.533  0.00  0.00    +0.000 A 
ENDROOT
BRANCH   4   7
ATOM      7  C   UNL     1       3.257   6.546  18.196  0.00  0.00    +0.000 C 
ATOM      8  O   UNL     1       3.081   5.380  18.541  0.00  0.00    +0.000 OA
ATOM      9  N   UNL     1       4.290   7.009  17.394  0.00  0.00    +0.000 N 
ATOM     10  H   UNL     1       4.444   8.009  17.358  0.00  0.00    +0.000 HD
BRANCH   9  11
ATOM     11  C   UNL     1       5.278   6.175  16.815  0.00  0.00    +0.000 A 
ATOM     12  C   UNL     1       5.287   5.839  15.453  0.00  0.00    +0.000 A 
ATOM     13  C   UNL     1       6.243   4.968  14.924  0.00  0.00    +0.000 A 
ATOM     14  C   UNL     1       7.217   4.431  15.755  0.00  0.00    +0.000 A 
ATOM     15  C   UNL     1       7.231   4.786  17.099  0.00  0.00    +0.000 A 
ATOM     16  F   UNL     1       8.171   4.265  17.899  0.00  0.00    +0.000 F 
ATOM     17  C   UNL     1       6.282   5.657  17.635  0.00  0.00    +0.000 A 
ENDBRANCH   9  11
ENDBRANCH   4   7
BRANCH   1  18
ATOM     18  N   UNL     1       0.032  10.832  20.117  0.00  0.00    +0.000 N 
BRANCH  18  20
ATOM     19  C   UNL     1      -0.801  11.272  22.424  0.00  0.00    +0.000 C 
ATOM     20  C   UNL     1       0.336  11.427  21.424  0.00  0.00    +0.000 C 
ENDBRANCH  18  20
BRANCH  18  21
ATOM     21  C   UNL     1      -1.046  11.414  19.312  0.00  0.00    +0.000 C 
ATOM     22  C   UNL     1      -0.709  12.833  18.868  0.00  0.00    +0.000 C 
ENDBRANCH  18  21
ENDBRANCH   1  18
TORSDOF 5
ENDMDL
MODEL 2
REMARK VINA RESULT:      -6.7      0.467      1.387
REMARK  Name = 
REMARK  7 active torsions:
REMARK  status: ('A' for Active; 'I' for Inactive)
REMARK    1  A    between atoms: C_1  and  C_2
REMARK    2  A    between atoms: C_2  and  N_3
REMARK    3  A    between atoms: N_3  and  C_4
REMARK    4  A    between atoms: N_3  and  C_6
REMARK    5  A    between atoms: C_4  and  C_5
REMARK    6  A    between atoms: C_9  and  C_10
REMARK    7  A    between atoms: N_12  and  C_13
REMARK                            x       y       z     vdW  Elec       q    Type
REMARK                         _______ _______ _______ _____ _____    ______ ____
ROOT
ATOM      1  C   UNL     1       0.954   9.982  19.453  0.00  0.00    +0.000 A 
ATOM      2  C   UNL     1       1.474   9.897  18.156  0.00  0.00    +0.000 A 
ATOM      3  C   UNL     1       2.214   8.795  17.734  0.00  0.00    +0.000 A 
ATOM      4  C   UNL     1       2.441   7.720  18.597  0.00  0.00    +0.000 A 
ATOM      5  C   UNL     1       1.901   7.747  19.880  0.00  0.00    +0.000 A 
ATOM      6  C   UNL     1       1.173   8.877  20.297  0.00  0.00    +0.000 A 
ENDROOT
BRANCH   4   7
ATOM      7  C   UNL     1       3.366   6.668  18.112  0.00  0.00    +0.000 C 
ATOM      8  O   UNL     1       3.231   5.551  18.604  0.00  0.00    +0.000 OA
ATOM      9  N   UNL     1       4.338   7.040  17.195  0.00  0.00    +0.000 N 
ATOM     10  H   UNL     1       4.473   8.030  17.029  0.00  0.00    +0.000 HD
BRANCH   9  11
ATOM     11  C   UNL     1       5.300   6.151  16.655  0.00  0.00    +0.000 A 
ATOM     12  C   UNL     1       5.275   5.723  15.319  0.00  0.00    +0.000 A 
ATOM     13  C   UNL     1       6.206   4.801  14.833  0.00  0.00    +0.000 A 
ATOM     14  C   UNL     1       7.188   4.304  15.681  0.00  0.00    +0.000 A 
ATOM     15  C   UNL     1       7.234   4.749  16.997  0.00  0.00    +0.000 A 
ATOM     16  F   UNL     1       8.181   4.266  17.813  0.00  0.00    +0.000 F 
ATOM     17  C   UNL     1       6.311   5.671  17.490  0.00  0.00    +0.000 A 
ENDBRANCH   9  11
ENDBRANCH   4   7
BRANCH   1  18
ATOM     18  N   UNL     1       0.276  11.119  19.873  0.00  0.00    +0.000 N 
BRANCH  18  20
ATOM     19  C   UNL     1      -1.817  10.604  18.622  0.00  0.00    +0.000 C 
ATOM     20  C   UNL     1      -0.819  11.665  19.060  0.00  0.00    +0.000 C 
ENDBRANCH  18  20
BRANCH  18  21
ATOM     21  C   UNL     1       0.640  11.807  21.114  0.00  0.00    +0.000 C 
ATOM     22  C   UNL     1      -0.591  12.153  21.943  0.00  0.00    +0.000 C 
ENDBRANCH  18  21
ENDBRANCH   1  18
TORSDOF 5
ENDMDL
MODEL 3
REMARK VINA RESULT:      -6.6      2.744      3.047
REMARK  Name = 
REMARK  7 active torsions:
REMARK  status: ('A' for Active; 'I' for Inactive)
REMARK    1  A    between atoms: C_1  and  C_2
REMARK    2  A    between atoms: C_2  and  N_3
REMARK    3  A    between atoms: N_3  and  C_4
REMARK    4  A    between atoms: N_3  and  C_6
REMARK    5  A    between atoms: C_4  and  C_5
REMARK    6  A    between atoms: C_9  and  C_10
REMARK    7  A    between atoms: N_12  and  C_13
REMARK                            x       y       z     vdW  Elec       q    Type
REMARK                         _______ _______ _______ _____ _____    ______ ____
ROOT
ATOM      1  C   UNL     1       0.721  10.232  19.768  0.00  0.00    +0.000 A 
ATOM      2  C   UNL     1       0.976   9.176  20.652  0.00  0.00    +0.000 A 
ATOM      3  C   UNL     1       1.671   8.037  20.253  0.00  0.00    +0.000 A 
ATOM      4  C   UNL     1       2.162   7.926  18.949  0.00  0.00    +0.000 A 
ATOM      5  C   UNL     1       1.969   8.975  18.054  0.00  0.00    +0.000 A 
ATOM      6  C   UNL     1       1.246  10.109  18.468  0.00  0.00    +0.000 A 
ENDROOT
BRANCH   4   7
ATOM      7  C   UNL     1       2.751   6.618  18.576  0.00  0.00    +0.000 C 
ATOM      8  O   UNL     1       3.636   6.639  17.724  0.00  0.00    +0.000 OA
ATOM      9  N   UNL     1       2.220   5.481  19.168  0.00  0.00    +0.000 N 
ATOM     10  H   UNL     1       1.360   5.583  19.692  0.00  0.00    +0.000 HD
BRANCH   9  11
ATOM     11  C   UNL     1       2.667   4.165  18.898  0.00  0.00    +0.000 A 
ATOM     12  C   UNL     1       2.210   3.415  17.804  0.00  0.00    +0.000 A 
ATOM     13  C   UNL     1       2.629   2.098  17.598  0.00  0.00    +0.000 A 
ATOM     14  C   UNL     1       3.528   1.516  18.482  0.00  0.00    +0.000 A 
ATOM     15  C   UNL     1       4.008   2.266  19.550  0.00  0.00    +0.000 A 
ATOM     16  F   UNL     1       4.874   1.702  20.403  0.00  0.00    +0.000 F 
ATOM     17  C   UNL     1       3.597   3.583  19.762  0.00  0.00    +0.000 A 
ENDBRANCH   9  11
ENDBRANCH   4   7
BRANCH   1  18
ATOM     18  N   UNL     1      -0.031  11.328  20.169  0.00  0.00    +0.000 N 
BRANCH  18  20
ATOM     19  C   UNL     1      -1.055  11.751  22.401  0.00  0.00    +0.000 C 
ATOM     20  C   UNL     1       0.165  11.905  21.505  0.00  0.00    +0.000 C 
ENDBRANCH  18  20
BRANCH  18  21
ATOM     21  C   UNL     1      -1.040  11.921  19.288  0.00  0.00    +0.000 C 
ATOM     22  C   UNL     1      -0.597  13.283  18.766  0.00  0.00    +0.000 C 
ENDBRANCH  18  21
ENDBRANCH   1  18
TORSDOF 5
ENDMDL
MODEL 4
REMARK VINA RESULT:      -6.6      1.102      2.033
REMARK  Name = 
REMARK  7 active torsions:
REMARK  status: ('A' for Active; 'I' for Inactive)
REMARK    1  A    between atoms: C_1  and  C_2
REMARK    2  A    between atoms: C_2  and  N_3
REMARK    3  A    between atoms: N_3  and  C_4
REMARK    4  A    between atoms: N_3  and  C_6
REMARK    5  A    between atoms: C_4  and  C_5
REMARK    6  A    between atoms: C_9  and  C_10
REMARK    7  A    between atoms: N_12  and  C_13
REMARK                            x       y       z     vdW  Elec       q    Type
REMARK                         _______ _______ _______ _____ _____    ______ ____
ROOT
ATOM      1  C   UNL     1       0.909  10.022  19.390  0.00  0.00    +0.000 A 
ATOM      2  C   UNL     1       1.452   9.856  18.110  0.00  0.00    +0.000 A 
ATOM      3  C   UNL     1       2.191   8.726  17.769  0.00  0.00    +0.000 A 
ATOM      4  C   UNL     1       2.393   7.702  18.698  0.00  0.00    +0.000 A 
ATOM      5  C   UNL     1       1.829   7.809  19.966  0.00  0.00    +0.000 A 
ATOM      6  C   UNL     1       1.103   8.967  20.302  0.00  0.00    +0.000 A 
ENDROOT
BRANCH   4   7
ATOM      7  C   UNL     1       3.318   6.617  18.293  0.00  0.00    +0.000 C 
ATOM      8  O   UNL     1       3.139   5.521  18.819  0.00  0.00    +0.000 OA
ATOM      9  N   UNL     1       4.337   6.937  17.408  0.00  0.00    +0.000 N 
ATOM     10  H   UNL     1       4.498   7.918  17.214  0.00  0.00    +0.000 HD
BRANCH   9  11
ATOM     11  C   UNL     1       5.304   6.012  16.945  0.00  0.00    +0.000 A 
ATOM     12  C   UNL     1       6.369   5.563  17.740  0.00  0.00    +0.000 A 
ATOM     13  C   UNL     1       7.339   4.693  17.234  0.00  0.00    +0.000 A 
ATOM     14  C   UNL     1       7.246   4.248  15.922  0.00  0.00    +0.000 A 
ATOM     15  C   UNL     1       6.175   4.666  15.141  0.00  0.00    +0.000 A 
ATOM     16  F   UNL     1       6.088   4.236  13.874  0.00  0.00    +0.000 F 
ATOM     17  C   UNL     1       5.200   5.532  15.638  0.00  0.00    +0.000 A 
ENDBRANCH   9  11
ENDBRANCH   4   7
BRANCH   1  18
ATOM     18  N   UNL     1       0.233  11.186  19.729  0.00  0.00    +0.000 N 
BRANCH  18  20
ATOM     19  C   UNL     1      -1.845  10.656  18.460  0.00  0.00    +0.000 C 
ATOM     20  C   UNL     1      -0.818  11.709  18.847  0.00  0.00    +0.000 C 
ENDBRANCH  18  20
BRANCH  18  21
ATOM     21  C   UNL     1       0.556  11.925  20.952  0.00  0.00    +0.000 C 
ATOM     22  C   UNL     1      -0.537  11.772  22.004  0.00  0.00    +0.000 C 
ENDBRANCH  18  21
ENDBRANCH   1  18
TORSDOF 5
ENDMDL
MODEL 5
REMARK VINA RESULT:      -6.6      1.191      1.916
REMARK  Name = 
REMARK  7 active torsions:
REMARK  status: ('A' for Active; 'I' for Inactive)
REMARK    1  A    between atoms: C_1  and  C_2
REMARK    2  A    between atoms: C_2  and  N_3
REMARK    3  A    between atoms: N_3  and  C_4
REMARK    4  A    between atoms: N_3  and  C_6
REMARK    5  A    between atoms: C_4  and  C_5
REMARK    6  A    between atoms: C_9  and  C_10
REMARK    7  A    between atoms: N_12  and  C_13
REMARK                            x       y       z     vdW  Elec       q    Type
REMARK                         _______ _______ _______ _____ _____    ______ ____
ROOT
ATOM      1  C   UNL     1       0.674   9.706  19.811  0.00  0.00    +0.000 A 
ATOM      2  C   UNL     1       1.194   8.618  20.521  0.00  0.00    +0.000 A 
ATOM      3  C   UNL     1       2.042   7.689  19.922  0.00  0.00    +0.000 A 
ATOM      4  C   UNL     1       2.422   7.833  18.585  0.00  0.00    +0.000 A 
ATOM      5  C   UNL     1       1.962   8.928  17.859  0.00  0.00    +0.000 A 
ATOM      6  C   UNL     1       1.090   9.845  18.472  0.00  0.00    +0.000 A 
ENDROOT
BRANCH   4   7
ATOM      7  C   UNL     1       3.198   6.716  17.996  0.00  0.00    +0.000 C 
ATOM      8  O   UNL     1       2.677   5.604  18.042  0.00  0.00    +0.000 OA
ATOM      9  N   UNL     1       4.461   7.003  17.500  0.00  0.00    +0.000 N 
ATOM     10  H   UNL     1       4.853   7.912  17.711  0.00  0.00    +0.000 HD
BRANCH   9  11
ATOM     11  C   UNL     1       5.323   6.038  16.923  0.00  0.00    +0.000 A 
ATOM     12  C   UNL     1       6.404   5.473  17.616  0.00  0.00    +0.000 A 
ATOM     13  C   UNL     1       7.270   4.565  17.000  0.00  0.00    +0.000 A 
ATOM     14  C   UNL     1       7.054   4.199  15.678  0.00  0.00    +0.000 A 
ATOM     15  C   UNL     1       5.966   4.733  14.997  0.00  0.00    +0.000 A 
ATOM     16  F   UNL     1       5.761   4.380  13.721  0.00  0.00    +0.000 F 
ATOM     17  C   UNL     1       5.095   5.637  15.605  0.00  0.00    +0.000 A 
ENDBRANCH   9  11
ENDBRANCH   4   7
BRANCH   1  18
ATOM     18  N   UNL     1      -0.222  10.582  20.409  0.00  0.00    +0.000 N 
BRANCH  18  20
ATOM     19  C   UNL     1      -0.862  11.578  22.601  0.00  0.00    +0.000 C 
ATOM     20  C   UNL     1      -0.717  10.315  21.765  0.00  0.00    +0.000 C 
ENDBRANCH  18  20
BRANCH  18  21
ATOM     21  C   UNL     1      -0.705  11.773  19.706  0.00  0.00    +0.000 C 
ATOM     22  C   UNL     1      -2.076  11.537  19.083  0.00  0.00    +0.000 C 
ENDBRANCH  18  21
ENDBRANCH   1  18
TORSDOF 5
ENDMDL
MODEL 6
REMARK VINA RESULT:      -6.6      3.037      8.288
REMARK  Name = 
REMARK  7 active torsions:
REMARK  status: ('A' for Active; 'I' for Inactive)
REMARK    1  A    between atoms: C_1  and  C_2
REMARK    2  A    between atoms: C_2  and  N_3
REMARK    3  A    between atoms: N_3  and  C_4
REMARK    4  A    between atoms: N_3  and  C_6
REMARK    5  A    between atoms: C_4  and  C_5
REMARK    6  A    between atoms: C_9  and  C_10
REMARK    7  A    between atoms: N_12  and  C_13
REMARK                            x       y       z     vdW  Elec       q    Type
REMARK                         _______ _______ _______ _____ _____    ______ ____
ROOT
ATOM      1  C   UNL     1       5.058   5.107  17.475  0.00  0.00    +0.000 A 
ATOM      2  C   UNL     1       4.387   4.443  18.509  0.00  0.00    +0.000 A 
ATOM      3  C   UNL     1       3.394   5.071  19.259  0.00  0.00    +0.000 A 
ATOM      4  C   UNL     1       3.019   6.387  18.980  0.00  0.00    +0.000 A 
ATOM      5  C   UNL     1       3.632   7.065  17.929  0.00  0.00    +0.000 A 
ATOM      6  C   UNL     1       4.647   6.424  17.195  0.00  0.00    +0.000 A 
ENDROOT
BRANCH   4   7
ATOM      7  C   UNL     1       2.069   7.017  19.928  0.00  0.00    +0.000 C 
ATOM      8  O   UNL     1       1.507   6.265  20.720  0.00  0.00    +0.000 OA
ATOM      9  N   UNL     1       1.848   8.381  19.805  0.00  0.00    +0.000 N 
ATOM     10  H   UNL     1       2.213   8.844  18.982  0.00  0.00    +0.000 HD
BRANCH   9  11
ATOM     11  C   UNL     1       0.958   9.116  20.626  0.00  0.00    +0.000 A 
ATOM     12  C   UNL     1       0.112  10.117  20.125  0.00  0.00    +0.000 A 
ATOM     13  C   UNL     1      -0.714  10.863  20.971  0.00  0.00    +0.000 A 
ATOM     14  C   UNL     1      -0.713  10.604  22.335  0.00  0.00    +0.000 A 
ATOM     15  C   UNL     1       0.101   9.593  22.831  0.00  0.00    +0.000 A 
ATOM     16  F   UNL     1       0.102   9.346  24.149  0.00  0.00    +0.000 F 
ATOM     17  C   UNL     1       0.926   8.841  21.994  0.00  0.00    +0.000 A 
ENDBRANCH   9  11
ENDBRANCH   4   7
BRANCH   1  18
ATOM     18  N   UNL     1       6.089   4.484  16.784  0.00  0.00    +0.000 N 
BRANCH  18  20
ATOM     19  C   UNL     1       5.702   4.339  14.327  0.00  0.00    +0.000 C 
ATOM     20  C   UNL     1       5.788   3.598  15.653  0.00  0.00    +0.000 C 
ENDBRANCH  18  20
BRANCH  18  21
ATOM     21  C   UNL     1       7.490   4.679  17.171  0.00  0.00    +0.000 C 
ATOM     22  C   UNL     1       7.617   5.651  18.338  0.00  0.00    +0.000 C 
ENDBRANCH  18  21
ENDBRANCH   1  18
TORSDOF 5
ENDMDL
MODEL 7
REMARK VINA RESULT:      -6.5      1.184      1.981
REMARK  Name = 
REMARK  7 active torsions:
REMARK  status: ('A' for Active; 'I' for Inactive)
REMARK    1  A    between atoms: C_1  and  C_2
REMARK    2  A    between atoms: C_2  and  N_3
REMARK    3  A    between atoms: N_3  and  C_4
REMARK    4  A    between atoms: N_3  and  C_6
REMARK    5  A    between atoms: C_4  and  C_5
REMARK    6  A    between atoms: C_9  and  C_10
REMARK    7  A    between atoms: N_12  and  C_13
REMARK                            x       y       z     vdW  Elec       q    Type
REMARK                         _______ _______ _______ _____ _____    ______ ____
ROOT
ATOM      1  C   UNL     1       0.955   9.945  19.734  0.00  0.00    +0.000 A 
ATOM      2  C   UNL     1       1.329   9.865  18.387  0.00  0.00    +0.000 A 
ATOM      3  C   UNL     1       1.992   8.752  17.875  0.00  0.00    +0.000 A 
ATOM      4  C   UNL     1       2.284   7.660  18.695  0.00  0.00    +0.000 A 
ATOM      5  C   UNL     1       1.886   7.682  20.030  0.00  0.00    +0.000 A 
ATOM      6  C   UNL     1       1.236   8.822  20.536  0.00  0.00    +0.000 A 
ENDROOT
BRANCH   4   7
ATOM      7  C   UNL     1       3.124   6.594  18.101  0.00  0.00    +0.000 C 
ATOM      8  O   UNL     1       2.657   5.458  18.112  0.00  0.00    +0.000 OA
ATOM      9  N   UNL     1       4.383   6.951  17.638  0.00  0.00    +0.000 N 
ATOM     10  H   UNL     1       4.726   7.873  17.876  0.00  0.00    +0.000 HD
BRANCH   9  11
ATOM     11  C   UNL     1       5.302   6.041  17.061  0.00  0.00    +0.000 A 
ATOM     12  C   UNL     1       6.354   5.461  17.785  0.00  0.00    +0.000 A 
ATOM     13  C   UNL     1       7.278   4.610  17.172  0.00  0.00    +0.000 A 
ATOM     14  C   UNL     1       7.150   4.316  15.821  0.00  0.00    +0.000 A 
ATOM     15  C   UNL     1       6.091   4.864  15.107  0.00  0.00    +0.000 A 
ATOM     16  F   UNL     1       5.971   4.581  13.802  0.00  0.00    +0.000 F 
ATOM     17  C   UNL     1       5.162   5.712  15.711  0.00  0.00    +0.000 A 
ENDBRANCH   9  11
ENDBRANCH   4   7
BRANCH   1  18
ATOM     18  N   UNL     1       0.354  11.091  20.237  0.00  0.00    +0.000 N 
BRANCH  18  20
ATOM     19  C   UNL     1       0.181  13.265  19.033  0.00  0.00    +0.000 C 
ATOM     20  C   UNL     1       0.969  12.405  20.008  0.00  0.00    +0.000 C 
ENDBRANCH  18  20
BRANCH  18  21
ATOM     21  C   UNL     1      -0.886  11.020  21.015  0.00  0.00    +0.000 C 
ATOM     22  C   UNL     1      -0.735  11.704  22.369  0.00  0.00    +0.000 C 
ENDBRANCH  18  21
ENDBRANCH   1  18
TORSDOF 5
ENDMDL
MODEL 8
REMARK VINA RESULT:      -6.5      2.793      3.243
REMARK  Name = 
REMARK  7 active torsions:
REMARK  status: ('A' for Active; 'I' for Inactive)
REMARK    1  A    between atoms: C_1  and  C_2
REMARK    2  A    between atoms: C_2  and  N_3
REMARK    3  A    between atoms: N_3  and  C_4
REMARK    4  A    between atoms: N_3  and  C_6
REMARK    5  A    between atoms: C_4  and  C_5
REMARK    6  A    between atoms: C_9  and  C_10
REMARK    7  A    between atoms: N_12  and  C_13
REMARK                            x       y       z     vdW  Elec       q    Type
REMARK                         _______ _______ _______ _____ _____    ______ ____
ROOT
ATOM      1  C   UNL     1       0.906  10.333  19.451  0.00  0.00    +0.000 A 
ATOM      2  C   UNL     1       1.040   9.271  20.354  0.00  0.00    +0.000 A 
ATOM      3  C   UNL     1       1.700   8.094  20.008  0.00  0.00    +0.000 A 
ATOM      4  C   UNL     1       2.276   7.948  18.744  0.00  0.00    +0.000 A 
ATOM      5  C   UNL     1       2.205   9.000  17.835  0.00  0.00    +0.000 A 
ATOM      6  C   UNL     1       1.516  10.174  18.191  0.00  0.00    +0.000 A 
ENDROOT
BRANCH   4   7
ATOM      7  C   UNL     1       2.819   6.608  18.418  0.00  0.00    +0.000 C 
ATOM      8  O   UNL     1       3.679   6.565  17.541  0.00  0.00    +0.000 OA
ATOM      9  N   UNL     1       2.276   5.516  19.078  0.00  0.00    +0.000 N 
ATOM     10  H   UNL     1       1.434   5.667  19.621  0.00  0.00    +0.000 HD
BRANCH   9  11
ATOM     11  C   UNL     1       2.681   4.176  18.860  0.00  0.00    +0.000 A 
ATOM     12  C   UNL     1       2.161   3.384  17.825  0.00  0.00    +0.000 A 
ATOM     13  C   UNL     1       2.540   2.047  17.672  0.00  0.00    +0.000 A 
ATOM     14  C   UNL     1       3.460   1.489  18.548  0.00  0.00    +0.000 A 
ATOM     15  C   UNL     1       4.001   2.280  19.556  0.00  0.00    +0.000 A 
ATOM     16  F   UNL     1       4.888   1.738  20.402  0.00  0.00    +0.000 F 
ATOM     17  C   UNL     1       3.631   3.615  19.715  0.00  0.00    +0.000 A 
ENDBRANCH   9  11
ENDBRANCH   4   7
BRANCH   1  18
ATOM     18  N   UNL     1       0.187  11.470  19.793  0.00  0.00    +0.000 N 
BRANCH  18  20
ATOM     19  C   UNL     1       1.887  13.176  20.434  0.00  0.00    +0.000 C 
ATOM     20  C   UNL     1       0.737  12.802  19.511  0.00  0.00    +0.000 C 
ENDBRANCH  18  20
BRANCH  18  21
ATOM     21  C   UNL     1      -1.118  11.374  20.454  0.00  0.00    +0.000 C 
ATOM     22  C   UNL     1      -1.965  12.616  20.201  0.00  0.00    +0.000 C 
ENDBRANCH  18  21
ENDBRANCH   1  18
TORSDOF 5
ENDMDL
MODEL 9
REMARK VINA RESULT:      -6.5      3.875      7.895
REMARK  Name = 
REMARK  7 active torsions:
REMARK  status: ('A' for Active; 'I' for Inactive)
REMARK    1  A    between atoms: C_1  and  C_2
REMARK    2  A    between atoms: C_2  and  N_3
REMARK    3  A    between atoms: N_3  and  C_4
REMARK    4  A    between atoms: N_3  and  C_6
REMARK    5  A    between atoms: C_4  and  C_5
REMARK    6  A    between atoms: C_9  and  C_10
REMARK    7  A    between atoms: N_12  and  C_13
REMARK                            x       y       z     vdW  Elec       q    Type
REMARK                         _______ _______ _______ _____ _____    ______ ____
ROOT
ATOM      1  C   UNL     1       2.430   4.887  19.429  0.00  0.00    +0.000 A 
ATOM      2  C   UNL     1       2.690   5.422  18.162  0.00  0.00    +0.000 A 
ATOM      3  C   UNL     1       2.509   6.776  17.887  0.00  0.00    +0.000 A 
ATOM      4  C   UNL     1       2.081   7.652  18.887  0.00  0.00    +0.000 A 
ATOM      5  C   UNL     1       1.857   7.166  20.172  0.00  0.00    +0.000 A 
ATOM      6  C   UNL     1       2.024   5.793  20.428  0.00  0.00    +0.000 A 
ENDROOT
BRANCH   4   7
ATOM      7  C   UNL     1       1.769   9.037  18.461  0.00  0.00    +0.000 C 
ATOM      8  O   UNL     1       2.200   9.383  17.363  0.00  0.00    +0.000 OA
ATOM      9  N   UNL     1       1.075   9.843  19.352  0.00  0.00    +0.000 N 
ATOM     10  H   UNL     1       0.963   9.506  20.300  0.00  0.00    +0.000 HD
BRANCH   9  11
ATOM     11  C   UNL     1       0.722  11.190  19.092  0.00  0.00    +0.000 A 
ATOM     12  C   UNL     1      -0.559  11.572  18.667  0.00  0.00    +0.000 A 
ATOM     13  C   UNL     1      -0.859  12.903  18.364  0.00  0.00    +0.000 A 
ATOM     14  C   UNL     1       0.122  13.876  18.499  0.00  0.00    +0.000 A 
ATOM     15  C   UNL     1       1.384  13.507  18.950  0.00  0.00    +0.000 A 
ATOM     16  F   UNL     1       2.330  14.448  19.077  0.00  0.00    +0.000 F 
ATOM     17  C   UNL     1       1.692  12.181  19.257  0.00  0.00    +0.000 A 
ENDBRANCH   9  11
ENDBRANCH   4   7
BRANCH   1  18
ATOM     18  N   UNL     1       2.554   3.524  19.663  0.00  0.00    +0.000 N 
BRANCH  18  20
ATOM     19  C   UNL     1       3.517   1.645  18.339  0.00  0.00    +0.000 C 
ATOM     20  C   UNL     1       3.781   2.819  19.270  0.00  0.00    +0.000 C 
ENDBRANCH  18  20
BRANCH  18  21
ATOM     21  C   UNL     1       1.471   2.758  20.285  0.00  0.00    +0.000 C 
ATOM     22  C   UNL     1       1.714   2.556  21.777  0.00  0.00    +0.000 C 
ENDBRANCH  18  21
ENDBRANCH   1  18
TORSDOF 5
ENDMDL
