MODEL 1
REMARK VINA RESULT:      -8.1      0.000      0.000
REMARK  Name = 
REMARK  6 active torsions:
REMARK  status: ('A' for Active; 'I' for Inactive)
REMARK    1  A    between atoms: C_1  and  O_2
REMARK    2  A    between atoms: O_2  and  C_3
REMARK    3  A    between atoms: C_3  and  C_5
REMARK    4  A    between atoms: C_5  and  N_6
REMARK    5  A    between atoms: C_5  and  C_28
REMARK    6  A    between atoms: C_7  and  C_9
REMARK                            x       y       z     vdW  Elec       q    Type
REMARK                         _______ _______ _______ _____ _____    ______ ____
ROOT
ATOM      1  C   UNL     1       3.023   5.770  18.541  0.00  0.00    +0.000 A 
ATOM      2  C   UNL     1       4.081   5.825  17.596  0.00  0.00    +0.000 A 
ATOM      3  C   UNL     1       4.310   4.671  16.827  0.00  0.00    +0.000 A 
ATOM      4  N   UNL     1       3.690   3.495  17.073  0.00  0.00    +0.000 NA
ATOM      5  C   UNL     1       2.752   3.431  18.019  0.00  0.00    +0.000 A 
ATOM      6  C   UNL     1       2.213   2.181  18.288  0.00  0.00    +0.000 A 
ATOM      7  C   UNL     1       1.181   2.003  19.210  0.00  0.00    +0.000 A 
ATOM      8  C   UNL     1       0.614   3.108  19.817  0.00  0.00    +0.000 A 
ATOM      9  C   UNL     1       1.147   4.371  19.555  0.00  0.00    +0.000 A 
ATOM     10  C   UNL     1       2.290   4.552  18.730  0.00  0.00    +0.000 A 
ATOM     11  C   UNL     1       5.258   4.623  15.689  0.00  0.00    +0.000 A 
ATOM     12  C   UNL     1       4.835   4.167  14.427  0.00  0.00    +0.000 A 
ATOM     13  C   UNL     1       5.704   4.145  13.332  0.00  0.00    +0.000 A 
ATOM     14  C   UNL     1       7.019   4.573  13.481  0.00  0.00    +0.000 A 
ATOM     15  C   UNL     1       7.467   5.017  14.726  0.00  0.00    +0.000 A 
ATOM     16  C   UNL     1       6.597   5.045  15.828  0.00  0.00    +0.000 A 
ATOM     17  C   UNL     1       7.087   5.504  17.175  0.00  0.00    +0.000 C 
ATOM     18  C   UNL     1       6.458   6.828  17.620  0.00  0.00    +0.000 C 
ATOM     19  C   UNL     1       4.957   7.033  17.329  0.00  0.00    +0.000 C 
ENDROOT
BRANCH   1  21
ATOM     20  N   UNL     1       1.780   7.896  18.759  0.00  0.00    +0.000 N 
ATOM     21  C   UNL     1       2.644   6.988  19.346  0.00  0.00    +0.000 C 
ATOM     22  O   UNL     1       3.094   7.156  20.473  0.00  0.00    +0.000 OA
ATOM     23  H   UNL     1       1.332   7.680  17.876  0.00  0.00    +0.000 HD
BRANCH  20  24
ATOM     24  C   UNL     1       1.316   9.103  19.447  0.00  0.00    +0.000 C 
BRANCH  24  25
ATOM     25  C   UNL     1       0.275   9.887  18.653  0.00  0.00    +0.000 A 
ATOM     26  C   UNL     1       0.032  11.234  18.969  0.00  0.00    +0.000 A 
ATOM     27  C   UNL     1      -1.029  11.928  18.382  0.00  0.00    +0.000 A 
ATOM     28  C   UNL     1      -1.855  11.292  17.459  0.00  0.00    +0.000 A 
ATOM     29  C   UNL     1      -1.603   9.971  17.100  0.00  0.00    +0.000 A 
ATOM     30  C   UNL     1      -0.538   9.274  17.684  0.00  0.00    +0.000 A 
ENDBRANCH  24  25
BRANCH  24  31
ATOM     31  C   UNL     1       0.749   8.714  20.823  0.00  0.00    +0.000 C 
ATOM     32  O   UNL     1      -0.123   7.869  21.001  0.00  0.00    +0.000 OA
BRANCH  31  34
ATOM     33  C   UNL     1       0.516   9.581  22.991  0.00  0.00    +0.000 C 
ATOM     34  O   UNL     1       1.296   9.494  21.800  0.00  0.00    +0.000 OA
ENDBRANCH  31  34
ENDBRANCH  24  31
ENDBRANCH  20  24
ENDBRANCH   1  21
TORSDOF 5
ENDMDL
MODEL 2
REMARK VINA RESULT:      -7.8      1.011      1.053
REMARK  Name = 
REMARK  6 active torsions:
REMARK  status: ('A' for Active; 'I' for Inactive)
REMARK    1  A    between atoms: C_1  and  O_2
REMARK    2  A    between atoms: O_2  and  C_3
REMARK    3  A    between atoms: C_3  and  C_5
REMARK    4  A    between atoms: C_5  and  N_6
REMARK    5  A    between atoms: C_5  and  C_28
REMARK    6  A    between atoms: C_7  and  C_9
REMARK                            x       y       z     vdW  Elec       q    Type
REMARK                         _______ _______ _______ _____ _____    ______ ____
ROOT
ATOM      1  C   UNL     1       2.933   6.438  18.475  0.00  0.00    +0.000 A 
ATOM      2  C   UNL     1       3.987   6.338  17.529  0.00  0.00    +0.000 A 
ATOM      3  C   UNL     1       4.330   5.048  17.090  0.00  0.00    +0.000 A 
ATOM      4  N   UNL     1       3.824   3.927  17.651  0.00  0.00    +0.000 NA
ATOM      5  C   UNL     1       2.891   4.029  18.598  0.00  0.00    +0.000 A 
ATOM      6  C   UNL     1       2.472   2.850  19.199  0.00  0.00    +0.000 A 
ATOM      7  C   UNL     1       1.456   2.828  20.155  0.00  0.00    +0.000 A 
ATOM      8  C   UNL     1       0.782   3.997  20.458  0.00  0.00    +0.000 A 
ATOM      9  C   UNL     1       1.193   5.189  19.860  0.00  0.00    +0.000 A 
ATOM     10  C   UNL     1       2.319   5.250  18.994  0.00  0.00    +0.000 A 
ATOM     11  C   UNL     1       5.286   4.789  15.987  0.00  0.00    +0.000 A 
ATOM     12  C   UNL     1       4.916   3.975  14.900  0.00  0.00    +0.000 A 
ATOM     13  C   UNL     1       5.790   3.745  13.833  0.00  0.00    +0.000 A 
ATOM     14  C   UNL     1       7.058   4.319  13.838  0.00  0.00    +0.000 A 
ATOM     15  C   UNL     1       7.453   5.117  14.911  0.00  0.00    +0.000 A 
ATOM     16  C   UNL     1       6.577   5.355  15.983  0.00  0.00    +0.000 A 
ATOM     17  C   UNL     1       7.013   6.201  17.150  0.00  0.00    +0.000 C 
ATOM     18  C   UNL     1       6.256   7.530  17.240  0.00  0.00    +0.000 C 
ATOM     19  C   UNL     1       4.745   7.508  16.934  0.00  0.00    +0.000 C 
ENDROOT
BRANCH   1  21
ATOM     20  N   UNL     1       1.721   7.829  20.119  0.00  0.00    +0.000 N 
ATOM     21  C   UNL     1       2.434   7.784  18.935  0.00  0.00    +0.000 C 
ATOM     22  O   UNL     1       2.657   8.791  18.272  0.00  0.00    +0.000 OA
ATOM     23  H   UNL     1       1.648   7.006  20.706  0.00  0.00    +0.000 HD
BRANCH  20  24
ATOM     24  C   UNL     1       1.207   9.080  20.685  0.00  0.00    +0.000 C 
BRANCH  24  25
ATOM     25  C   UNL     1       0.466   9.941  19.666  0.00  0.00    +0.000 A 
ATOM     26  C   UNL     1       0.869  11.272  19.460  0.00  0.00    +0.000 A 
ATOM     27  C   UNL     1       0.110  12.136  18.667  0.00  0.00    +0.000 A 
ATOM     28  C   UNL     1      -1.056  11.682  18.056  0.00  0.00    +0.000 A 
ATOM     29  C   UNL     1      -1.448  10.355  18.212  0.00  0.00    +0.000 A 
ATOM     30  C   UNL     1      -0.687   9.485  19.003  0.00  0.00    +0.000 A 
ENDBRANCH  24  25
BRANCH  24  31
ATOM     31  C   UNL     1       0.286   8.756  21.873  0.00  0.00    +0.000 C 
ATOM     32  O   UNL     1      -0.542   7.850  21.883  0.00  0.00    +0.000 OA
BRANCH  31  34
ATOM     33  C   UNL     1      -0.682  10.451  23.173  0.00  0.00    +0.000 C 
ATOM     34  O   UNL     1       0.468   9.663  22.876  0.00  0.00    +0.000 OA
ENDBRANCH  31  34
ENDBRANCH  24  31
ENDBRANCH  20  24
ENDBRANCH   1  21
TORSDOF 5
ENDMDL
MODEL 3
REMARK VINA RESULT:      -7.8      2.573      7.352
REMARK  Name = 
REMARK  6 active torsions:
REMARK  status: ('A' for Active; 'I' for Inactive)
REMARK    1  A    between atoms: C_1  and  O_2
REMARK    2  A    between atoms: O_2  and  C_3
REMARK    3  A    between atoms: C_3  and  C_5
REMARK    4  A    between atoms: C_5  and  N_6
REMARK    5  A    between atoms: C_5  and  C_28
REMARK    6  A    between atoms: C_7  and  C_9
REMARK                            x       y       z     vdW  Elec       q    Type
REMARK                         _______ _______ _______ _____ _____    ______ ____
ROOT
ATOM      1  C   UNL     1       3.688   4.740  18.711  0.00  0.00    +0.000 A 
ATOM      2  C   UNL     1       3.328   6.105  18.872  0.00  0.00    +0.000 A 
ATOM      3  C   UNL     1       2.094   6.370  19.487  0.00  0.00    +0.000 A 
ATOM      4  N   UNL     1       1.191   5.403  19.762  0.00  0.00    +0.000 NA
ATOM      5  C   UNL     1       1.505   4.127  19.533  0.00  0.00    +0.000 A 
ATOM      6  C   UNL     1       0.509   3.184  19.751  0.00  0.00    +0.000 A 
ATOM      7  C   UNL     1       0.742   1.816  19.607  0.00  0.00    +0.000 A 
ATOM      8  C   UNL     1       2.019   1.370  19.321  0.00  0.00    +0.000 A 
ATOM      9  C   UNL     1       3.029   2.307  19.100  0.00  0.00    +0.000 A 
ATOM     10  C   UNL     1       2.774   3.706  19.101  0.00  0.00    +0.000 A 
ATOM     11  C   UNL     1       1.653   7.730  19.879  0.00  0.00    +0.000 A 
ATOM     12  C   UNL     1       1.232   7.992  21.196  0.00  0.00    +0.000 A 
ATOM     13  C   UNL     1       0.844   9.275  21.594  0.00  0.00    +0.000 A 
ATOM     14  C   UNL     1       0.862  10.322  20.678  0.00  0.00    +0.000 A 
ATOM     15  C   UNL     1       1.262  10.085  19.363  0.00  0.00    +0.000 A 
ATOM     16  C   UNL     1       1.656   8.799  18.958  0.00  0.00    +0.000 A 
ATOM     17  C   UNL     1       2.068   8.541  17.533  0.00  0.00    +0.000 C 
ATOM     18  C   UNL     1       3.556   8.206  17.393  0.00  0.00    +0.000 C 
ATOM     19  C   UNL     1       4.181   7.290  18.464  0.00  0.00    +0.000 C 
ENDROOT
BRANCH   1  21
ATOM     20  N   UNL     1       5.161   4.334  16.768  0.00  0.00    +0.000 N 
ATOM     21  C   UNL     1       5.033   4.359  18.146  0.00  0.00    +0.000 C 
ATOM     22  O   UNL     1       5.966   4.080  18.889  0.00  0.00    +0.000 OA
ATOM     23  H   UNL     1       4.413   4.677  16.177  0.00  0.00    +0.000 HD
BRANCH  20  24
ATOM     24  C   UNL     1       6.422   4.006  16.098  0.00  0.00    +0.000 C 
BRANCH  24  25
ATOM     25  C   UNL     1       6.357   4.162  14.582  0.00  0.00    +0.000 A 
ATOM     26  C   UNL     1       5.285   3.594  13.872  0.00  0.00    +0.000 A 
ATOM     27  C   UNL     1       5.283   3.569  12.476  0.00  0.00    +0.000 A 
ATOM     28  C   UNL     1       6.345   4.123  11.764  0.00  0.00    +0.000 A 
ATOM     29  C   UNL     1       7.395   4.729  12.449  0.00  0.00    +0.000 A 
ATOM     30  C   UNL     1       7.397   4.759  13.849  0.00  0.00    +0.000 A 
ENDBRANCH  24  25
BRANCH  24  31
ATOM     31  C   UNL     1       7.544   4.887  16.674  0.00  0.00    +0.000 C 
ATOM     32  O   UNL     1       8.473   4.469  17.357  0.00  0.00    +0.000 OA
BRANCH  31  34
ATOM     33  C   UNL     1       7.579   7.098  17.457  0.00  0.00    +0.000 C 
ATOM     34  O   UNL     1       7.313   6.200  16.383  0.00  0.00    +0.000 OA
ENDBRANCH  31  34
ENDBRANCH  24  31
ENDBRANCH  20  24
ENDBRANCH   1  21
TORSDOF 5
ENDMDL
MODEL 4
REMARK VINA RESULT:      -7.8      2.469      7.519
REMARK  Name = 
REMARK  6 active torsions:
REMARK  status: ('A' for Active; 'I' for Inactive)
REMARK    1  A    between atoms: C_1  and  O_2
REMARK    2  A    between atoms: O_2  and  C_3
REMARK    3  A    between atoms: C_3  and  C_5
REMARK    4  A    between atoms: C_5  and  N_6
REMARK    5  A    between atoms: C_5  and  C_28
REMARK    6  A    between atoms: C_7  and  C_9
REMARK                            x       y       z     vdW  Elec       q    Type
REMARK                         _______ _______ _______ _____ _____    ______ ____
ROOT
ATOM      1  C   UNL     1       3.103   6.270  18.946  0.00  0.00    +0.000 A 
ATOM      2  C   UNL     1       2.407   7.459  19.292  0.00  0.00    +0.000 A 
ATOM      3  C   UNL     1       1.403   7.348  20.268  0.00  0.00    +0.000 A 
ATOM      4  N   UNL     1       0.974   6.158  20.744  0.00  0.00    +0.000 NA
ATOM      5  C   UNL     1       1.581   5.036  20.352  0.00  0.00    +0.000 A 
ATOM      6  C   UNL     1       1.044   3.839  20.804  0.00  0.00    +0.000 A 
ATOM      7  C   UNL     1       1.633   2.608  20.512  0.00  0.00    +0.000 A 
ATOM      8  C   UNL     1       2.832   2.573  19.825  0.00  0.00    +0.000 A 
ATOM      9  C   UNL     1       3.383   3.770  19.366  0.00  0.00    +0.000 A 
ATOM     10  C   UNL     1       2.721   5.018  19.531  0.00  0.00    +0.000 A 
ATOM     11  C   UNL     1       0.705   8.516  20.857  0.00  0.00    +0.000 A 
ATOM     12  C   UNL     1       0.650   8.683  22.254  0.00  0.00    +0.000 A 
ATOM     13  C   UNL     1       0.027   9.795  22.829  0.00  0.00    +0.000 A 
ATOM     14  C   UNL     1      -0.562  10.758  22.017  0.00  0.00    +0.000 A 
ATOM     15  C   UNL     1      -0.534  10.608  20.630  0.00  0.00    +0.000 A 
ATOM     16  C   UNL     1       0.095   9.496  20.047  0.00  0.00    +0.000 A 
ATOM     17  C   UNL     1       0.108   9.324  18.551  0.00  0.00    +0.000 C 
ATOM     18  C   UNL     1       1.507   9.467  17.946  0.00  0.00    +0.000 C 
ATOM     19  C   UNL     1       2.682   8.835  18.718  0.00  0.00    +0.000 C 
ENDROOT
BRANCH   1  21
ATOM     20  N   UNL     1       5.532   6.398  18.507  0.00  0.00    +0.000 N 
ATOM     21  C   UNL     1       4.258   6.308  17.976  0.00  0.00    +0.000 C 
ATOM     22  O   UNL     1       4.060   6.262  16.768  0.00  0.00    +0.000 OA
ATOM     23  H   UNL     1       5.679   6.318  19.507  0.00  0.00    +0.000 HD
BRANCH  20  24
ATOM     24  C   UNL     1       6.736   6.415  17.672  0.00  0.00    +0.000 C 
BRANCH  24  25
ATOM     25  C   UNL     1       7.577   7.675  17.854  0.00  0.00    +0.000 A 
ATOM     26  C   UNL     1       8.535   7.727  18.881  0.00  0.00    +0.000 A 
ATOM     27  C   UNL     1       9.197   8.918  19.184  0.00  0.00    +0.000 A 
ATOM     28  C   UNL     1       8.925  10.075  18.458  0.00  0.00    +0.000 A 
ATOM     29  C   UNL     1       8.011  10.033  17.408  0.00  0.00    +0.000 A 
ATOM     30  C   UNL     1       7.349   8.839  17.099  0.00  0.00    +0.000 A 
ENDBRANCH  24  25
BRANCH  24  31
ATOM     31  C   UNL     1       7.580   5.166  17.977  0.00  0.00    +0.000 C 
ATOM     32  O   UNL     1       7.911   4.810  19.104  0.00  0.00    +0.000 OA
BRANCH  31  34
ATOM     33  C   UNL     1       7.020   4.647  15.758  0.00  0.00    +0.000 C 
ATOM     34  O   UNL     1       7.970   4.561  16.818  0.00  0.00    +0.000 OA
ENDBRANCH  31  34
ENDBRANCH  24  31
ENDBRANCH  20  24
ENDBRANCH   1  21
TORSDOF 5
ENDMDL
MODEL 5
REMARK VINA RESULT:      -7.6      7.787     11.217
REMARK  Name = 
REMARK  6 active torsions:
REMARK  status: ('A' for Active; 'I' for Inactive)
REMARK    1  A    between atoms: C_1  and  O_2
REMARK    2  A    between atoms: O_2  and  C_3
REMARK    3  A    between atoms: C_3  and  C_5
REMARK    4  A    between atoms: C_5  and  N_6
REMARK    5  A    between atoms: C_5  and  C_28
REMARK    6  A    between atoms: C_7  and  C_9
REMARK                            x       y       z     vdW  Elec       q    Type
REMARK                         _______ _______ _______ _____ _____    ______ ____
ROOT
ATOM      1  C   UNL     1      -2.492  12.457  20.011  0.00  0.00    +0.000 A 
ATOM      2  C   UNL     1      -3.391  12.942  20.998  0.00  0.00    +0.000 A 
ATOM      3  C   UNL     1      -4.762  12.756  20.758  0.00  0.00    +0.000 A 
ATOM      4  N   UNL     1      -5.243  12.304  19.578  0.00  0.00    +0.000 NA
ATOM      5  C   UNL     1      -4.392  11.925  18.624  0.00  0.00    +0.000 A 
ATOM      6  C   UNL     1      -4.939  11.553  17.403  0.00  0.00    +0.000 A 
ATOM      7  C   UNL     1      -4.152  11.078  16.354  0.00  0.00    +0.000 A 
ATOM      8  C   UNL     1      -2.797  10.889  16.552  0.00  0.00    +0.000 A 
ATOM      9  C   UNL     1      -2.234  11.259  17.774  0.00  0.00    +0.000 A 
ATOM     10  C   UNL     1      -2.999  11.878  18.801  0.00  0.00    +0.000 A 
ATOM     11  C   UNL     1      -5.814  13.050  21.761  0.00  0.00    +0.000 A 
ATOM     12  C   UNL     1      -6.762  12.070  22.108  0.00  0.00    +0.000 A 
ATOM     13  C   UNL     1      -7.741  12.316  23.076  0.00  0.00    +0.000 A 
ATOM     14  C   UNL     1      -7.795  13.553  23.710  0.00  0.00    +0.000 A 
ATOM     15  C   UNL     1      -6.876  14.546  23.373  0.00  0.00    +0.000 A 
ATOM     16  C   UNL     1      -5.887  14.303  22.405  0.00  0.00    +0.000 A 
ATOM     17  C   UNL     1      -4.908  15.382  22.027  0.00  0.00    +0.000 C 
ATOM     18  C   UNL     1      -3.473  15.065  22.461  0.00  0.00    +0.000 C 
ATOM     19  C   UNL     1      -2.988  13.611  22.298  0.00  0.00    +0.000 C 
ENDROOT
BRANCH   1  21
ATOM     20  N   UNL     1      -0.373  13.727  19.932  0.00  0.00    +0.000 N 
ATOM     21  C   UNL     1      -1.001  12.529  20.224  0.00  0.00    +0.000 C 
ATOM     22  O   UNL     1      -0.382  11.556  20.637  0.00  0.00    +0.000 OA
ATOM     23  H   UNL     1      -0.918  14.550  19.703  0.00  0.00    +0.000 HD
BRANCH  20  24
ATOM     24  C   UNL     1       1.066  13.931  20.122  0.00  0.00    +0.000 C 
BRANCH  24  25
ATOM     25  C   UNL     1       1.686  14.854  19.077  0.00  0.00    +0.000 A 
ATOM     26  C   UNL     1       2.840  14.444  18.388  0.00  0.00    +0.000 A 
ATOM     27  C   UNL     1       3.530  15.328  17.555  0.00  0.00    +0.000 A 
ATOM     28  C   UNL     1       3.071  16.632  17.385  0.00  0.00    +0.000 A 
ATOM     29  C   UNL     1       1.904  17.043  18.025  0.00  0.00    +0.000 A 
ATOM     30  C   UNL     1       1.209  16.158  18.857  0.00  0.00    +0.000 A 
ENDBRANCH  24  25
BRANCH  24  31
ATOM     31  C   UNL     1       1.314  14.488  21.534  0.00  0.00    +0.000 C 
ATOM     32  O   UNL     1       2.379  14.398  22.138  0.00  0.00    +0.000 OA
BRANCH  31  34
ATOM     33  C   UNL     1       0.368  16.123  22.925  0.00  0.00    +0.000 C 
ATOM     34  O   UNL     1       0.166  15.021  22.044  0.00  0.00    +0.000 OA
ENDBRANCH  31  34
ENDBRANCH  24  31
ENDBRANCH  20  24
ENDBRANCH   1  21
TORSDOF 5
ENDMDL
MODEL 6
REMARK VINA RESULT:      -7.6      2.252      7.466
REMARK  Name = 
REMARK  6 active torsions:
REMARK  status: ('A' for Active; 'I' for Inactive)
REMARK    1  A    between atoms: C_1  and  O_2
REMARK    2  A    between atoms: O_2  and  C_3
REMARK    3  A    between atoms: C_3  and  C_5
REMARK    4  A    between atoms: C_5  and  N_6
REMARK    5  A    between atoms: C_5  and  C_28
REMARK    6  A    between atoms: C_7  and  C_9
REMARK                            x       y       z     vdW  Elec       q    Type
REMARK                         _______ _______ _______ _____ _____    ______ ____
ROOT
ATOM      1  C   UNL     1       3.271   6.191  19.002  0.00  0.00    +0.000 A 
ATOM      2  C   UNL     1       2.585   7.405  19.272  0.00  0.00    +0.000 A 
ATOM      3  C   UNL     1       1.535   7.351  20.204  0.00  0.00    +0.000 A 
ATOM      4  N   UNL     1       1.060   6.187  20.702  0.00  0.00    +0.000 NA
ATOM      5  C   UNL     1       1.660   5.040  20.380  0.00  0.00    +0.000 A 
ATOM      6  C   UNL     1       1.077   3.871  20.849  0.00  0.00    +0.000 A 
ATOM      7  C   UNL     1       1.652   2.619  20.630  0.00  0.00    +0.000 A 
ATOM      8  C   UNL     1       2.880   2.535  20.001  0.00  0.00    +0.000 A 
ATOM      9  C   UNL     1       3.477   3.703  19.525  0.00  0.00    +0.000 A 
ATOM     10  C   UNL     1       2.836   4.969  19.613  0.00  0.00    +0.000 A 
ATOM     11  C   UNL     1       0.837   8.553  20.718  0.00  0.00    +0.000 A 
ATOM     12  C   UNL     1       0.722   8.773  22.103  0.00  0.00    +0.000 A 
ATOM     13  C   UNL     1       0.097   9.917  22.608  0.00  0.00    +0.000 A 
ATOM     14  C   UNL     1      -0.434  10.861  21.735  0.00  0.00    +0.000 A 
ATOM     15  C   UNL     1      -0.345  10.659  20.358  0.00  0.00    +0.000 A 
ATOM     16  C   UNL     1       0.285   9.514  19.845  0.00  0.00    +0.000 A 
ATOM     17  C   UNL     1       0.363   9.287  18.358  0.00  0.00    +0.000 C 
ATOM     18  C   UNL     1       1.791   9.379  17.814  0.00  0.00    +0.000 C 
ATOM     19  C   UNL     1       2.916   8.753  18.663  0.00  0.00    +0.000 C 
ENDROOT
BRANCH   1  21
ATOM     20  N   UNL     1       5.671   5.741  18.621  0.00  0.00    +0.000 N 
ATOM     21  C   UNL     1       4.469   6.169  18.087  0.00  0.00    +0.000 C 
ATOM     22  O   UNL     1       4.368   6.523  16.918  0.00  0.00    +0.000 OA
ATOM     23  H   UNL     1       5.707   5.346  19.554  0.00  0.00    +0.000 HD
BRANCH  20  24
ATOM     24  C   UNL     1       6.900   5.650  17.828  0.00  0.00    +0.000 C 
BRANCH  24  25
ATOM     25  C   UNL     1       6.704   4.933  16.495  0.00  0.00    +0.000 A 
ATOM     26  C   UNL     1       7.363   5.408  15.349  0.00  0.00    +0.000 A 
ATOM     27  C   UNL     1       7.073   4.884  14.087  0.00  0.00    +0.000 A 
ATOM     28  C   UNL     1       6.131   3.868  13.950  0.00  0.00    +0.000 A 
ATOM     29  C   UNL     1       5.499   3.354  15.080  0.00  0.00    +0.000 A 
ATOM     30  C   UNL     1       5.791   3.874  16.346  0.00  0.00    +0.000 A 
ENDBRANCH  24  25
BRANCH  24  31
ATOM     31  C   UNL     1       7.455   7.065  17.591  0.00  0.00    +0.000 C 
ATOM     32  O   UNL     1       7.193   7.758  16.613  0.00  0.00    +0.000 OA
BRANCH  31  34
ATOM     33  C   UNL     1       8.654   8.789  18.636  0.00  0.00    +0.000 C 
ATOM     34  O   UNL     1       8.335   7.401  18.578  0.00  0.00    +0.000 OA
ENDBRANCH  31  34
ENDBRANCH  24  31
ENDBRANCH  20  24
ENDBRANCH   1  21
TORSDOF 5
ENDMDL
MODEL 7
REMARK VINA RESULT:      -7.6      7.510     10.856
REMARK  Name = 
REMARK  6 active torsions:
REMARK  status: ('A' for Active; 'I' for Inactive)
REMARK    1  A    between atoms: C_1  and  O_2
REMARK    2  A    between atoms: O_2  and  C_3
REMARK    3  A    between atoms: C_3  and  C_5
REMARK    4  A    between atoms: C_5  and  N_6
REMARK    5  A    between atoms: C_5  and  C_28
REMARK    6  A    between atoms: C_7  and  C_9
REMARK                            x       y       z     vdW  Elec       q    Type
REMARK                         _______ _______ _______ _____ _____    ______ ____
ROOT
ATOM      1  C   UNL     1      -2.258  12.213  19.504  0.00  0.00    +0.000 A 
ATOM      2  C   UNL     1      -3.174  12.769  20.437  0.00  0.00    +0.000 A 
ATOM      3  C   UNL     1      -4.541  12.625  20.151  0.00  0.00    +0.000 A 
ATOM      4  N   UNL     1      -4.995  12.145  18.971  0.00  0.00    +0.000 NA
ATOM      5  C   UNL     1      -4.124  11.699  18.065  0.00  0.00    +0.000 A 
ATOM      6  C   UNL     1      -4.639  11.301  16.839  0.00  0.00    +0.000 A 
ATOM      7  C   UNL     1      -3.832  10.757  15.839  0.00  0.00    +0.000 A 
ATOM      8  C   UNL     1      -2.493  10.525  16.096  0.00  0.00    +0.000 A 
ATOM      9  C   UNL     1      -1.963  10.921  17.325  0.00  0.00    +0.000 A 
ATOM     10  C   UNL     1      -2.741  11.607  18.298  0.00  0.00    +0.000 A 
ATOM     11  C   UNL     1      -5.617  12.996  21.100  0.00  0.00    +0.000 A 
ATOM     12  C   UNL     1      -6.615  12.066  21.447  0.00  0.00    +0.000 A 
ATOM     13  C   UNL     1      -7.620  12.385  22.366  0.00  0.00    +0.000 A 
ATOM     14  C   UNL     1      -7.650  13.647  22.951  0.00  0.00    +0.000 A 
ATOM     15  C   UNL     1      -6.681  14.591  22.613  0.00  0.00    +0.000 A 
ATOM     16  C   UNL     1      -5.667  14.275  21.694  0.00  0.00    +0.000 A 
ATOM     17  C   UNL     1      -4.633  15.302  21.315  0.00  0.00    +0.000 C 
ATOM     18  C   UNL     1      -3.229  14.948  21.816  0.00  0.00    +0.000 C 
ATOM     19  C   UNL     1      -2.795  13.472  21.725  0.00  0.00    +0.000 C 
ENDROOT
BRANCH   1  21
ATOM     20  N   UNL     1      -0.110  13.434  19.565  0.00  0.00    +0.000 N 
ATOM     21  C   UNL     1      -0.774  12.238  19.772  0.00  0.00    +0.000 C 
ATOM     22  O   UNL     1      -0.192  11.230  20.154  0.00  0.00    +0.000 OA
ATOM     23  H   UNL     1      -0.628  14.281  19.361  0.00  0.00    +0.000 HD
BRANCH  20  24
ATOM     24  C   UNL     1       1.325  13.593  19.816  0.00  0.00    +0.000 C 
BRANCH  24  25
ATOM     25  C   UNL     1       1.953  14.732  19.017  0.00  0.00    +0.000 A 
ATOM     26  C   UNL     1       1.346  15.999  19.022  0.00  0.00    +0.000 A 
ATOM     27  C   UNL     1       1.793  17.012  18.170  0.00  0.00    +0.000 A 
ATOM     28  C   UNL     1       2.863  16.780  17.308  0.00  0.00    +0.000 A 
ATOM     29  C   UNL     1       3.505  15.545  17.320  0.00  0.00    +0.000 A 
ATOM     30  C   UNL     1       3.061  14.529  18.176  0.00  0.00    +0.000 A 
ENDBRANCH  24  25
BRANCH  24  31
ATOM     31  C   UNL     1       1.554  13.814  21.320  0.00  0.00    +0.000 C 
ATOM     32  O   UNL     1       0.660  14.028  22.134  0.00  0.00    +0.000 OA
BRANCH  31  34
ATOM     33  C   UNL     1       3.371  15.032  22.168  0.00  0.00    +0.000 C 
ATOM     34  O   UNL     1       2.888  13.815  21.603  0.00  0.00    +0.000 OA
ENDBRANCH  31  34
ENDBRANCH  24  31
ENDBRANCH  20  24
ENDBRANCH   1  21
TORSDOF 5
ENDMDL
MODEL 8
REMARK VINA RESULT:      -7.4      2.164      7.500
REMARK  Name = 
REMARK  6 active torsions:
REMARK  status: ('A' for Active; 'I' for Inactive)
REMARK    1  A    between atoms: C_1  and  O_2
REMARK    2  A    between atoms: O_2  and  C_3
REMARK    3  A    between atoms: C_3  and  C_5
REMARK    4  A    between atoms: C_5  and  N_6
REMARK    5  A    between atoms: C_5  and  C_28
REMARK    6  A    between atoms: C_7  and  C_9
REMARK                            x       y       z     vdW  Elec       q    Type
REMARK                         _______ _______ _______ _____ _____    ______ ____
ROOT
ATOM      1  C   UNL     1       3.202   6.266  18.957  0.00  0.00    +0.000 A 
ATOM      2  C   UNL     1       2.527   7.483  19.243  0.00  0.00    +0.000 A 
ATOM      3  C   UNL     1       1.479   7.426  20.176  0.00  0.00    +0.000 A 
ATOM      4  N   UNL     1       0.995   6.261  20.662  0.00  0.00    +0.000 NA
ATOM      5  C   UNL     1       1.584   5.113  20.324  0.00  0.00    +0.000 A 
ATOM      6  C   UNL     1       0.992   3.943  20.781  0.00  0.00    +0.000 A 
ATOM      7  C   UNL     1       1.555   2.688  20.545  0.00  0.00    +0.000 A 
ATOM      8  C   UNL     1       2.782   2.602  19.913  0.00  0.00    +0.000 A 
ATOM      9  C   UNL     1       3.387   3.770  19.449  0.00  0.00    +0.000 A 
ATOM     10  C   UNL     1       2.757   5.040  19.554  0.00  0.00    +0.000 A 
ATOM     11  C   UNL     1       0.792   8.628  20.706  0.00  0.00    +0.000 A 
ATOM     12  C   UNL     1       0.682   8.832  22.094  0.00  0.00    +0.000 A 
ATOM     13  C   UNL     1       0.068   9.976  22.615  0.00  0.00    +0.000 A 
ATOM     14  C   UNL     1      -0.456  10.935  21.754  0.00  0.00    +0.000 A 
ATOM     15  C   UNL     1      -0.372  10.749  20.374  0.00  0.00    +0.000 A 
ATOM     16  C   UNL     1       0.247   9.604  19.846  0.00  0.00    +0.000 A 
ATOM     17  C   UNL     1       0.319   9.394  18.357  0.00  0.00    +0.000 C 
ATOM     18  C   UNL     1       1.747   9.481  17.810  0.00  0.00    +0.000 C 
ATOM     19  C   UNL     1       2.868   8.835  18.649  0.00  0.00    +0.000 C 
ENDROOT
BRANCH   1  21
ATOM     20  N   UNL     1       5.506   5.528  18.453  0.00  0.00    +0.000 N 
ATOM     21  C   UNL     1       4.398   6.245  18.039  0.00  0.00    +0.000 C 
ATOM     22  O   UNL     1       4.376   6.847  16.971  0.00  0.00    +0.000 OA
ATOM     23  H   UNL     1       5.461   4.946  19.281  0.00  0.00    +0.000 HD
BRANCH  20  24
ATOM     24  C   UNL     1       6.719   5.409  17.639  0.00  0.00    +0.000 C 
BRANCH  24  25
ATOM     25  C   UNL     1       6.440   4.979  16.202  0.00  0.00    +0.000 A 
ATOM     26  C   UNL     1       5.395   4.077  15.939  0.00  0.00    +0.000 A 
ATOM     27  C   UNL     1       5.223   3.531  14.664  0.00  0.00    +0.000 A 
ATOM     28  C   UNL     1       6.082   3.888  13.628  0.00  0.00    +0.000 A 
ATOM     29  C   UNL     1       7.096   4.814  13.859  0.00  0.00    +0.000 A 
ATOM     30  C   UNL     1       7.268   5.366  15.134  0.00  0.00    +0.000 A 
ENDBRANCH  24  25
BRANCH  24  31
ATOM     31  C   UNL     1       7.470   6.751  17.653  0.00  0.00    +0.000 C 
ATOM     32  O   UNL     1       7.449   7.569  16.738  0.00  0.00    +0.000 OA
BRANCH  31  34
ATOM     33  C   UNL     1       8.253   5.687  19.592  0.00  0.00    +0.000 C 
ATOM     34  O   UNL     1       8.221   6.863  18.787  0.00  0.00    +0.000 OA
ENDBRANCH  31  34
ENDBRANCH  24  31
ENDBRANCH  20  24
ENDBRANCH   1  21
TORSDOF 5
ENDMDL
MODEL 9
REMARK VINA RESULT:      -7.3      1.717      2.397
REMARK  Name = 
REMARK  6 active torsions:
REMARK  status: ('A' for Active; 'I' for Inactive)
REMARK    1  A    between atoms: C_1  and  O_2
REMARK    2  A    between atoms: O_2  and  C_3
REMARK    3  A    between atoms: C_3  and  C_5
REMARK    4  A    between atoms: C_5  and  N_6
REMARK    5  A    between atoms: C_5  and  C_28
REMARK    6  A    between atoms: C_7  and  C_9
REMARK                            x       y       z     vdW  Elec       q    Type
REMARK                         _______ _______ _______ _____ _____    ______ ____
ROOT
ATOM      1  C   UNL     1       2.668   6.300  19.032  0.00  0.00    +0.000 A 
ATOM      2  C   UNL     1       3.681   6.370  18.038  0.00  0.00    +0.000 A 
ATOM      3  C   UNL     1       4.174   5.151  17.544  0.00  0.00    +0.000 A 
ATOM      4  N   UNL     1       3.853   3.957  18.090  0.00  0.00    +0.000 NA
ATOM      5  C   UNL     1       2.960   3.906  19.080  0.00  0.00    +0.000 A 
ATOM      6  C   UNL     1       2.734   2.666  19.661  0.00  0.00    +0.000 A 
ATOM      7  C   UNL     1       1.777   2.480  20.659  0.00  0.00    +0.000 A 
ATOM      8  C   UNL     1       0.965   3.537  21.028  0.00  0.00    +0.000 A 
ATOM      9  C   UNL     1       1.181   4.789  20.450  0.00  0.00    +0.000 A 
ATOM     10  C   UNL     1       2.247   5.026  19.539  0.00  0.00    +0.000 A 
ATOM     11  C   UNL     1       5.104   5.053  16.393  0.00  0.00    +0.000 A 
ATOM     12  C   UNL     1       4.797   4.224  15.298  0.00  0.00    +0.000 A 
ATOM     13  C   UNL     1       5.644   4.143  14.188  0.00  0.00    +0.000 A 
ATOM     14  C   UNL     1       6.820   4.885  14.156  0.00  0.00    +0.000 A 
ATOM     15  C   UNL     1       7.153   5.703  15.235  0.00  0.00    +0.000 A 
ATOM     16  C   UNL     1       6.305   5.792  16.351  0.00  0.00    +0.000 A 
ATOM     17  C   UNL     1       6.675   6.659  17.525  0.00  0.00    +0.000 C 
ATOM     18  C   UNL     1       5.750   7.869  17.688  0.00  0.00    +0.000 C 
ATOM     19  C   UNL     1       4.244   7.648  17.448  0.00  0.00    +0.000 C 
ENDROOT
BRANCH   1  21
ATOM     20  N   UNL     1       1.295   8.320  18.654  0.00  0.00    +0.000 N 
ATOM     21  C   UNL     1       2.013   7.553  19.554  0.00  0.00    +0.000 C 
ATOM     22  O   UNL     1       2.124   7.870  20.733  0.00  0.00    +0.000 OA
ATOM     23  H   UNL     1       1.121   7.980  17.715  0.00  0.00    +0.000 HD
BRANCH  20  24
ATOM     24  C   UNL     1       0.591   9.544  19.044  0.00  0.00    +0.000 C 
BRANCH  24  25
ATOM     25  C   UNL     1       1.464  10.792  18.963  0.00  0.00    +0.000 A 
ATOM     26  C   UNL     1       1.366  11.774  19.965  0.00  0.00    +0.000 A 
ATOM     27  C   UNL     1       2.020  13.000  19.832  0.00  0.00    +0.000 A 
ATOM     28  C   UNL     1       2.794  13.263  18.704  0.00  0.00    +0.000 A 
ATOM     29  C   UNL     1       2.939  12.287  17.722  0.00  0.00    +0.000 A 
ATOM     30  C   UNL     1       2.288  11.055  17.854  0.00  0.00    +0.000 A 
ENDBRANCH  24  25
BRANCH  24  31
ATOM     31  C   UNL     1      -0.657   9.713  18.161  0.00  0.00    +0.000 C 
ATOM     32  O   UNL     1      -0.738   9.337  16.995  0.00  0.00    +0.000 OA
BRANCH  31  34
ATOM     33  C   UNL     1      -2.136  11.533  18.127  0.00  0.00    +0.000 C 
ATOM     34  O   UNL     1      -1.623  10.404  18.830  0.00  0.00    +0.000 OA
ENDBRANCH  31  34
ENDBRANCH  24  31
ENDBRANCH  20  24
ENDBRANCH   1  21
TORSDOF 5
ENDMDL
