MODEL 1
REMARK VINA RESULT:      -7.9      0.000      0.000
REMARK  Name = 
REMARK  6 active torsions:
REMARK  status: ('A' for Active; 'I' for Inactive)
REMARK    1  A    between atoms: C_1  and  C_2
REMARK    2  A    between atoms: C_5  and  O_6
REMARK    3  A    between atoms: C_7  and  N_8
REMARK    4  A    between atoms: C_9  and  C_11
REMARK    5  A    between atoms: C_11  and  C_12
REMARK    6  A    between atoms: C_12  and  C_13
REMARK                            x       y       z     vdW  Elec       q    Type
REMARK                         _______ _______ _______ _____ _____    ______ ____
ROOT
ATOM      1  N   UNL     1       5.529   4.644  15.817  0.00  0.00    +0.000 N 
ATOM      2  C   UNL     1       5.094   5.872  16.277  0.00  0.00    +0.000 C 
ATOM      3  O   UNL     1       5.035   6.899  15.605  0.00  0.00    +0.000 OA
ATOM      4  H   UNL     1       5.145   3.821  16.270  0.00  0.00    +0.000 HD
ENDROOT
BRANCH   1  10
ATOM      5  C   UNL     1       4.738   2.745  11.284  0.00  0.00    +0.000 C 
ATOM      6  C   UNL     1       5.604   3.483  12.264  0.00  0.00    +0.000 A 
ATOM      7  C   UNL     1       6.842   4.013  11.873  0.00  0.00    +0.000 A 
ATOM      8  C   UNL     1       7.608   4.765  12.766  0.00  0.00    +0.000 A 
ATOM      9  C   UNL     1       7.130   4.989  14.055  0.00  0.00    +0.000 A 
ATOM     10  C   UNL     1       5.926   4.421  14.481  0.00  0.00    +0.000 A 
ATOM     11  C   UNL     1       5.162   3.674  13.582  0.00  0.00    +0.000 A 
BRANCH   9  12
ATOM     12  O   UNL     1       7.856   5.727  14.955  0.00  0.00    +0.000 OA
ATOM     13  H   UNL     1       7.233   6.125  15.586  0.00  0.00    +0.000 HD
ENDBRANCH   9  12
ENDBRANCH   1  10
BRANCH   2  14
ATOM     14  C   UNL     1       4.685   5.857  17.739  0.00  0.00    +0.000 C 
BRANCH  14  15
ATOM     15  C   UNL     1       3.210   6.229  17.894  0.00  0.00    +0.000 C 
BRANCH  15  16
ATOM     16  C   UNL     1       2.398   5.131  18.540  0.00  0.00    +0.000 A 
ATOM     17  C   UNL     1       1.949   5.271  19.862  0.00  0.00    +0.000 A 
ATOM     18  C   UNL     1       1.185   4.270  20.459  0.00  0.00    +0.000 A 
ATOM     19  C   UNL     1       0.863   3.116  19.750  0.00  0.00    +0.000 A 
ATOM     20  C   UNL     1       1.313   2.960  18.438  0.00  0.00    +0.000 A 
ATOM     21  C   UNL     1       2.082   3.963  17.835  0.00  0.00    +0.000 A 
ENDBRANCH  15  16
ENDBRANCH  14  15
ENDBRANCH   2  14
TORSDOF 5
ENDMDL
MODEL 2
REMARK VINA RESULT:      -7.9      5.427      7.767
REMARK  Name = 
REMARK  6 active torsions:
REMARK  status: ('A' for Active; 'I' for Inactive)
REMARK    1  A    between atoms: C_1  and  C_2
REMARK    2  A    between atoms: C_5  and  O_6
REMARK    3  A    between atoms: C_7  and  N_8
REMARK    4  A    between atoms: C_9  and  C_11
REMARK    5  A    between atoms: C_11  and  C_12
REMARK    6  A    between atoms: C_12  and  C_13
REMARK                            x       y       z     vdW  Elec       q    Type
REMARK                         _______ _______ _______ _____ _____    ______ ____
ROOT
ATOM      1  N   UNL     1       6.711   7.616  16.927  0.00  0.00    +0.000 N 
ATOM      2  C   UNL     1       7.723   7.787  17.852  0.00  0.00    +0.000 C 
ATOM      3  O   UNL     1       8.084   6.944  18.670  0.00  0.00    +0.000 OA
ATOM      4  H   UNL     1       6.783   8.146  16.065  0.00  0.00    +0.000 HD
ENDROOT
BRANCH   1  10
ATOM      5  C   UNL     1       2.777   4.737  17.936  0.00  0.00    +0.000 C 
ATOM      6  C   UNL     1       4.112   4.953  17.282  0.00  0.00    +0.000 A 
ATOM      7  C   UNL     1       4.683   3.961  16.473  0.00  0.00    +0.000 A 
ATOM      8  C   UNL     1       5.887   4.195  15.803  0.00  0.00    +0.000 A 
ATOM      9  C   UNL     1       6.517   5.430  15.943  0.00  0.00    +0.000 A 
ATOM     10  C   UNL     1       5.992   6.410  16.790  0.00  0.00    +0.000 A 
ATOM     11  C   UNL     1       4.786   6.171  17.453  0.00  0.00    +0.000 A 
BRANCH   9  12
ATOM     12  O   UNL     1       7.697   5.693  15.296  0.00  0.00    +0.000 OA
ATOM     13  H   UNL     1       8.161   4.849  15.167  0.00  0.00    +0.000 HD
ENDBRANCH   9  12
ENDBRANCH   1  10
BRANCH   2  14
ATOM     14  C   UNL     1       8.376   9.156  17.784  0.00  0.00    +0.000 C 
BRANCH  14  15
ATOM     15  C   UNL     1       8.923   9.565  19.152  0.00  0.00    +0.000 C 
BRANCH  15  16
ATOM     16  C   UNL     1       9.832  10.770  19.078  0.00  0.00    +0.000 A 
ATOM     17  C   UNL     1      10.231  11.423  20.254  0.00  0.00    +0.000 A 
ATOM     18  C   UNL     1      11.084  12.525  20.195  0.00  0.00    +0.000 A 
ATOM     19  C   UNL     1      11.545  12.991  18.968  0.00  0.00    +0.000 A 
ATOM     20  C   UNL     1      11.145  12.356  17.790  0.00  0.00    +0.000 A 
ATOM     21  C   UNL     1      10.288  11.249  17.845  0.00  0.00    +0.000 A 
ENDBRANCH  15  16
ENDBRANCH  14  15
ENDBRANCH   2  14
TORSDOF 5
ENDMDL
MODEL 3
REMARK VINA RESULT:      -7.8      5.430      7.860
REMARK  Name = 
REMARK  6 active torsions:
REMARK  status: ('A' for Active; 'I' for Inactive)
REMARK    1  A    between atoms: C_1  and  C_2
REMARK    2  A    between atoms: C_5  and  O_6
REMARK    3  A    between atoms: C_7  and  N_8
REMARK    4  A    between atoms: C_9  and  C_11
REMARK    5  A    between atoms: C_11  and  C_12
REMARK    6  A    between atoms: C_12  and  C_13
REMARK                            x       y       z     vdW  Elec       q    Type
REMARK                         _______ _______ _______ _____ _____    ______ ____
ROOT
ATOM      1  N   UNL     1       6.624   7.683  17.008  0.00  0.00    +0.000 N 
ATOM      2  C   UNL     1       7.711   7.817  17.851  0.00  0.00    +0.000 C 
ATOM      3  O   UNL     1       8.144   6.938  18.591  0.00  0.00    +0.000 OA
ATOM      4  H   UNL     1       6.619   8.256  16.170  0.00  0.00    +0.000 HD
ENDROOT
BRANCH   1  10
ATOM      5  C   UNL     1       2.613   4.873  17.902  0.00  0.00    +0.000 C 
ATOM      6  C   UNL     1       3.982   5.056  17.312  0.00  0.00    +0.000 A 
ATOM      7  C   UNL     1       4.586   4.032  16.568  0.00  0.00    +0.000 A 
ATOM      8  C   UNL     1       5.826   4.234  15.957  0.00  0.00    +0.000 A 
ATOM      9  C   UNL     1       6.459   5.467  16.089  0.00  0.00    +0.000 A 
ATOM     10  C   UNL     1       5.900   6.479  16.874  0.00  0.00    +0.000 A 
ATOM     11  C   UNL     1       4.659   6.274  17.479  0.00  0.00    +0.000 A 
BRANCH   9  12
ATOM     12  O   UNL     1       7.675   5.698  15.497  0.00  0.00    +0.000 OA
ATOM     13  H   UNL     1       8.354   5.677  16.192  0.00  0.00    +0.000 HD
ENDBRANCH   9  12
ENDBRANCH   1  10
BRANCH   2  14
ATOM     14  C   UNL     1       8.350   9.193  17.796  0.00  0.00    +0.000 C 
BRANCH  14  15
ATOM     15  C   UNL     1       8.930   9.577  19.157  0.00  0.00    +0.000 C 
BRANCH  15  16
ATOM     16  C   UNL     1       9.825  10.792  19.085  0.00  0.00    +0.000 A 
ATOM     17  C   UNL     1      10.215  11.308  17.839  0.00  0.00    +0.000 A 
ATOM     18  C   UNL     1      11.026  12.438  17.764  0.00  0.00    +0.000 A 
ATOM     19  C   UNL     1      11.464  13.066  18.927  0.00  0.00    +0.000 A 
ATOM     20  C   UNL     1      11.093  12.556  20.172  0.00  0.00    +0.000 A 
ATOM     21  C   UNL     1      10.278  11.419  20.252  0.00  0.00    +0.000 A 
ENDBRANCH  15  16
ENDBRANCH  14  15
ENDBRANCH   2  14
TORSDOF 5
ENDMDL
MODEL 4
REMARK VINA RESULT:      -7.8      2.468      7.191
REMARK  Name = 
REMARK  6 active torsions:
REMARK  status: ('A' for Active; 'I' for Inactive)
REMARK    1  A    between atoms: C_1  and  C_2
REMARK    2  A    between atoms: C_5  and  O_6
REMARK    3  A    between atoms: C_7  and  N_8
REMARK    4  A    between atoms: C_9  and  C_11
REMARK    5  A    between atoms: C_11  and  C_12
REMARK    6  A    between atoms: C_12  and  C_13
REMARK                            x       y       z     vdW  Elec       q    Type
REMARK                         _______ _______ _______ _____ _____    ______ ____
ROOT
ATOM      1  N   UNL     1       5.206   4.015  18.163  0.00  0.00    +0.000 N 
ATOM      2  C   UNL     1       6.440   4.607  18.355  0.00  0.00    +0.000 C 
ATOM      3  O   UNL     1       6.807   5.154  19.392  0.00  0.00    +0.000 OA
ATOM      4  H   UNL     1       5.162   3.252  17.495  0.00  0.00    +0.000 HD
ENDROOT
BRANCH   1  10
ATOM      5  C   UNL     1       1.449   5.988  20.764  0.00  0.00    +0.000 C 
ATOM      6  C   UNL     1       2.414   4.869  20.496  0.00  0.00    +0.000 A 
ATOM      7  C   UNL     1       2.352   3.677  21.232  0.00  0.00    +0.000 A 
ATOM      8  C   UNL     1       3.201   2.610  20.928  0.00  0.00    +0.000 A 
ATOM      9  C   UNL     1       4.110   2.737  19.881  0.00  0.00    +0.000 A 
ATOM     10  C   UNL     1       4.226   3.938  19.174  0.00  0.00    +0.000 A 
ATOM     11  C   UNL     1       3.372   5.000  19.480  0.00  0.00    +0.000 A 
BRANCH   9  12
ATOM     12  O   UNL     1       4.954   1.706  19.555  0.00  0.00    +0.000 OA
ATOM     13  H   UNL     1       4.775   0.970  20.163  0.00  0.00    +0.000 HD
ENDBRANCH   9  12
ENDBRANCH   1  10
BRANCH   2  14
ATOM     14  C   UNL     1       7.341   4.533  17.135  0.00  0.00    +0.000 C 
BRANCH  14  15
ATOM     15  C   UNL     1       6.903   5.544  16.076  0.00  0.00    +0.000 C 
BRANCH  15  16
ATOM     16  C   UNL     1       6.788   4.931  14.700  0.00  0.00    +0.000 A 
ATOM     17  C   UNL     1       5.764   4.014  14.420  0.00  0.00    +0.000 A 
ATOM     18  C   UNL     1       5.641   3.457  13.148  0.00  0.00    +0.000 A 
ATOM     19  C   UNL     1       6.538   3.803  12.141  0.00  0.00    +0.000 A 
ATOM     20  C   UNL     1       7.569   4.705  12.410  0.00  0.00    +0.000 A 
ATOM     21  C   UNL     1       7.696   5.266  13.687  0.00  0.00    +0.000 A 
ENDBRANCH  15  16
ENDBRANCH  14  15
ENDBRANCH   2  14
TORSDOF 5
ENDMDL
MODEL 5
REMARK VINA RESULT:      -7.6      0.608      1.293
REMARK  Name = 
REMARK  6 active torsions:
REMARK  status: ('A' for Active; 'I' for Inactive)
REMARK    1  A    between atoms: C_1  and  C_2
REMARK    2  A    between atoms: C_5  and  O_6
REMARK    3  A    between atoms: C_7  and  N_8
REMARK    4  A    between atoms: C_9  and  C_11
REMARK    5  A    between atoms: C_11  and  C_12
REMARK    6  A    between atoms: C_12  and  C_13
REMARK                            x       y       z     vdW  Elec       q    Type
REMARK                         _______ _______ _______ _____ _____    ______ ____
ROOT
ATOM      1  N   UNL     1       5.513   4.714  15.791  0.00  0.00    +0.000 N 
ATOM      2  C   UNL     1       5.102   5.965  16.210  0.00  0.00    +0.000 C 
ATOM      3  O   UNL     1       5.083   6.973  15.509  0.00  0.00    +0.000 OA
ATOM      4  H   UNL     1       5.099   3.914  16.258  0.00  0.00    +0.000 HD
ENDROOT
BRANCH   1  10
ATOM      5  C   UNL     1       4.762   2.701  11.301  0.00  0.00    +0.000 C 
ATOM      6  C   UNL     1       5.626   3.449  12.275  0.00  0.00    +0.000 A 
ATOM      7  C   UNL     1       6.881   3.941  11.891  0.00  0.00    +0.000 A 
ATOM      8  C   UNL     1       7.647   4.703  12.777  0.00  0.00    +0.000 A 
ATOM      9  C   UNL     1       7.151   4.975  14.050  0.00  0.00    +0.000 A 
ATOM     10  C   UNL     1       5.928   4.444  14.470  0.00  0.00    +0.000 A 
ATOM     11  C   UNL     1       5.164   3.687  13.579  0.00  0.00    +0.000 A 
BRANCH   9  12
ATOM     12  O   UNL     1       7.877   5.723  14.941  0.00  0.00    +0.000 OA
ATOM     13  H   UNL     1       7.458   5.637  15.813  0.00  0.00    +0.000 HD
ENDBRANCH   9  12
ENDBRANCH   1  10
BRANCH   2  14
ATOM     14  C   UNL     1       4.666   6.001  17.663  0.00  0.00    +0.000 C 
BRANCH  14  15
ATOM     15  C   UNL     1       4.607   4.589  18.247  0.00  0.00    +0.000 C 
BRANCH  15  16
ATOM     16  C   UNL     1       3.284   4.290  18.912  0.00  0.00    +0.000 A 
ATOM     17  C   UNL     1       2.405   3.356  18.343  0.00  0.00    +0.000 A 
ATOM     18  C   UNL     1       1.190   3.061  18.960  0.00  0.00    +0.000 A 
ATOM     19  C   UNL     1       0.834   3.694  20.147  0.00  0.00    +0.000 A 
ATOM     20  C   UNL     1       1.695   4.634  20.717  0.00  0.00    +0.000 A 
ATOM     21  C   UNL     1       2.916   4.933  20.100  0.00  0.00    +0.000 A 
ENDBRANCH  15  16
ENDBRANCH  14  15
ENDBRANCH   2  14
TORSDOF 5
ENDMDL
MODEL 6
REMARK VINA RESULT:      -7.5      5.546      7.701
REMARK  Name = 
REMARK  6 active torsions:
REMARK  status: ('A' for Active; 'I' for Inactive)
REMARK    1  A    between atoms: C_1  and  C_2
REMARK    2  A    between atoms: C_5  and  O_6
REMARK    3  A    between atoms: C_7  and  N_8
REMARK    4  A    between atoms: C_9  and  C_11
REMARK    5  A    between atoms: C_11  and  C_12
REMARK    6  A    between atoms: C_12  and  C_13
REMARK                            x       y       z     vdW  Elec       q    Type
REMARK                         _______ _______ _______ _____ _____    ______ ____
ROOT
ATOM      1  N   UNL     1       7.698   6.513  18.065  0.00  0.00    +0.000 N 
ATOM      2  C   UNL     1       7.675   7.864  17.775  0.00  0.00    +0.000 C 
ATOM      3  O   UNL     1       6.927   8.399  16.960  0.00  0.00    +0.000 OA
ATOM      4  H   UNL     1       7.999   6.249  18.998  0.00  0.00    +0.000 HD
ENDROOT
BRANCH   1  10
ATOM      5  C   UNL     1       6.121   3.871  14.152  0.00  0.00    +0.000 C 
ATOM      6  C   UNL     1       5.985   4.303  15.584  0.00  0.00    +0.000 A 
ATOM      7  C   UNL     1       4.983   3.766  16.404  0.00  0.00    +0.000 A 
ATOM      8  C   UNL     1       4.909   4.112  17.756  0.00  0.00    +0.000 A 
ATOM      9  C   UNL     1       5.845   4.996  18.287  0.00  0.00    +0.000 A 
ATOM     10  C   UNL     1       6.816   5.585  17.472  0.00  0.00    +0.000 A 
ATOM     11  C   UNL     1       6.888   5.232  16.123  0.00  0.00    +0.000 A 
BRANCH   9  12
ATOM     12  O   UNL     1       5.802   5.352  19.610  0.00  0.00    +0.000 OA
ATOM     13  H   UNL     1       6.717   5.468  19.918  0.00  0.00    +0.000 HD
ENDBRANCH   9  12
ENDBRANCH   1  10
BRANCH   2  14
ATOM     14  C   UNL     1       8.691   8.668  18.566  0.00  0.00    +0.000 C 
BRANCH  14  15
ATOM     15  C   UNL     1       8.586  10.155  18.230  0.00  0.00    +0.000 C 
BRANCH  15  16
ATOM     16  C   UNL     1       9.756  10.954  18.756  0.00  0.00    +0.000 A 
ATOM     17  C   UNL     1       9.848  11.250  20.125  0.00  0.00    +0.000 A 
ATOM     18  C   UNL     1      10.933  11.970  20.621  0.00  0.00    +0.000 A 
ATOM     19  C   UNL     1      11.936  12.409  19.761  0.00  0.00    +0.000 A 
ATOM     20  C   UNL     1      11.850  12.130  18.396  0.00  0.00    +0.000 A 
ATOM     21  C   UNL     1      10.761  11.407  17.894  0.00  0.00    +0.000 A 
ENDBRANCH  15  16
ENDBRANCH  14  15
ENDBRANCH   2  14
TORSDOF 5
ENDMDL
MODEL 7
REMARK VINA RESULT:      -7.5      5.562      7.785
REMARK  Name = 
REMARK  6 active torsions:
REMARK  status: ('A' for Active; 'I' for Inactive)
REMARK    1  A    between atoms: C_1  and  C_2
REMARK    2  A    between atoms: C_5  and  O_6
REMARK    3  A    between atoms: C_7  and  N_8
REMARK    4  A    between atoms: C_9  and  C_11
REMARK    5  A    between atoms: C_11  and  C_12
REMARK    6  A    between atoms: C_12  and  C_13
REMARK                            x       y       z     vdW  Elec       q    Type
REMARK                         _______ _______ _______ _____ _____    ______ ____
ROOT
ATOM      1  N   UNL     1       7.667   6.503  18.176  0.00  0.00    +0.000 N 
ATOM      2  C   UNL     1       7.736   7.826  17.782  0.00  0.00    +0.000 C 
ATOM      3  O   UNL     1       7.108   8.320  16.849  0.00  0.00    +0.000 OA
ATOM      4  H   UNL     1       7.850   6.305  19.154  0.00  0.00    +0.000 HD
ENDROOT
BRANCH   1  10
ATOM      5  C   UNL     1       6.210   3.876  14.206  0.00  0.00    +0.000 C 
ATOM      6  C   UNL     1       6.044   4.285  15.642  0.00  0.00    +0.000 A 
ATOM      7  C   UNL     1       5.043   3.713  16.440  0.00  0.00    +0.000 A 
ATOM      8  C   UNL     1       4.942   4.039  17.795  0.00  0.00    +0.000 A 
ATOM      9  C   UNL     1       5.849   4.938  18.351  0.00  0.00    +0.000 A 
ATOM     10  C   UNL     1       6.817   5.562  17.558  0.00  0.00    +0.000 A 
ATOM     11  C   UNL     1       6.916   5.229  16.205  0.00  0.00    +0.000 A 
BRANCH   9  12
ATOM     12  O   UNL     1       5.779   5.275  19.678  0.00  0.00    +0.000 OA
ATOM     13  H   UNL     1       5.203   6.054  19.759  0.00  0.00    +0.000 HD
ENDBRANCH   9  12
ENDBRANCH   1  10
BRANCH   2  14
ATOM     14  C   UNL     1       8.692   8.655  18.621  0.00  0.00    +0.000 C 
BRANCH  14  15
ATOM     15  C   UNL     1       8.602  10.134  18.245  0.00  0.00    +0.000 C 
BRANCH  15  16
ATOM     16  C   UNL     1       9.770  10.938  18.765  0.00  0.00    +0.000 A 
ATOM     17  C   UNL     1      10.756  11.400  17.879  0.00  0.00    +0.000 A 
ATOM     18  C   UNL     1      11.828  12.158  18.348  0.00  0.00    +0.000 A 
ATOM     19  C   UNL     1      11.934  12.461  19.702  0.00  0.00    +0.000 A 
ATOM     20  C   UNL     1      10.966  11.997  20.595  0.00  0.00    +0.000 A 
ATOM     21  C   UNL     1       9.888  11.236  20.128  0.00  0.00    +0.000 A 
ENDBRANCH  15  16
ENDBRANCH  14  15
ENDBRANCH   2  14
TORSDOF 5
ENDMDL
MODEL 8
REMARK VINA RESULT:      -7.5      0.960      1.314
REMARK  Name = 
REMARK  6 active torsions:
REMARK  status: ('A' for Active; 'I' for Inactive)
REMARK    1  A    between atoms: C_1  and  C_2
REMARK    2  A    between atoms: C_5  and  O_6
REMARK    3  A    between atoms: C_7  and  N_8
REMARK    4  A    between atoms: C_9  and  C_11
REMARK    5  A    between atoms: C_11  and  C_12
REMARK    6  A    between atoms: C_12  and  C_13
REMARK                            x       y       z     vdW  Elec       q    Type
REMARK                         _______ _______ _______ _____ _____    ______ ____
ROOT
ATOM      1  N   UNL     1       5.806   4.677  15.706  0.00  0.00    +0.000 N 
ATOM      2  C   UNL     1       5.312   5.890  16.149  0.00  0.00    +0.000 C 
ATOM      3  O   UNL     1       5.114   6.873  15.440  0.00  0.00    +0.000 OA
ATOM      4  H   UNL     1       5.529   3.851  16.226  0.00  0.00    +0.000 HD
ENDROOT
BRANCH   1  10
ATOM      5  C   UNL     1       4.674   2.690  11.284  0.00  0.00    +0.000 C 
ATOM      6  C   UNL     1       5.616   3.436  12.185  0.00  0.00    +0.000 A 
ATOM      7  C   UNL     1       6.830   3.939  11.695  0.00  0.00    +0.000 A 
ATOM      8  C   UNL     1       7.668   4.699  12.516  0.00  0.00    +0.000 A 
ATOM      9  C   UNL     1       7.283   4.959  13.829  0.00  0.00    +0.000 A 
ATOM     10  C   UNL     1       6.105   4.419  14.351  0.00  0.00    +0.000 A 
ATOM     11  C   UNL     1       5.270   3.663  13.525  0.00  0.00    +0.000 A 
BRANCH   9  12
ATOM     12  O   UNL     1       8.081   5.706  14.659  0.00  0.00    +0.000 OA
ATOM     13  H   UNL     1       7.502   6.228  15.239  0.00  0.00    +0.000 HD
ENDBRANCH   9  12
ENDBRANCH   1  10
BRANCH   2  14
ATOM     14  C   UNL     1       5.031   5.917  17.640  0.00  0.00    +0.000 C 
BRANCH  14  15
ATOM     15  C   UNL     1       5.076   4.506  18.227  0.00  0.00    +0.000 C 
BRANCH  15  16
ATOM     16  C   UNL     1       3.705   3.882  18.347  0.00  0.00    +0.000 A 
ATOM     17  C   UNL     1       3.559   2.606  18.913  0.00  0.00    +0.000 A 
ATOM     18  C   UNL     1       2.296   2.031  19.043  0.00  0.00    +0.000 A 
ATOM     19  C   UNL     1       1.165   2.716  18.608  0.00  0.00    +0.000 A 
ATOM     20  C   UNL     1       1.298   3.981  18.033  0.00  0.00    +0.000 A 
ATOM     21  C   UNL     1       2.566   4.562  17.900  0.00  0.00    +0.000 A 
ENDBRANCH  15  16
ENDBRANCH  14  15
ENDBRANCH   2  14
TORSDOF 5
ENDMDL
MODEL 9
REMARK VINA RESULT:      -7.4      2.249      7.088
REMARK  Name = 
REMARK  6 active torsions:
REMARK  status: ('A' for Active; 'I' for Inactive)
REMARK    1  A    between atoms: C_1  and  C_2
REMARK    2  A    between atoms: C_5  and  O_6
REMARK    3  A    between atoms: C_7  and  N_8
REMARK    4  A    between atoms: C_9  and  C_11
REMARK    5  A    between atoms: C_11  and  C_12
REMARK    6  A    between atoms: C_12  and  C_13
REMARK                            x       y       z     vdW  Elec       q    Type
REMARK                         _______ _______ _______ _____ _____    ______ ____
ROOT
ATOM      1  N   UNL     1       5.021   3.848  17.754  0.00  0.00    +0.000 N 
ATOM      2  C   UNL     1       6.207   4.449  18.131  0.00  0.00    +0.000 C 
ATOM      3  O   UNL     1       6.430   4.939  19.235  0.00  0.00    +0.000 OA
ATOM      4  H   UNL     1       5.079   3.127  17.042  0.00  0.00    +0.000 HD
ENDROOT
BRANCH   1  10
ATOM      5  C   UNL     1       1.547   5.727  20.784  0.00  0.00    +0.000 C 
ATOM      6  C   UNL     1       2.237   4.556  20.146  0.00  0.00    +0.000 A 
ATOM      7  C   UNL     1       1.791   3.247  20.377  0.00  0.00    +0.000 A 
ATOM      8  C   UNL     1       2.387   2.166  19.721  0.00  0.00    +0.000 A 
ATOM      9  C   UNL     1       3.430   2.400  18.829  0.00  0.00    +0.000 A 
ATOM     10  C   UNL     1       3.926   3.692  18.630  0.00  0.00    +0.000 A 
ATOM     11  C   UNL     1       3.324   4.768  19.284  0.00  0.00    +0.000 A 
BRANCH   9  12
ATOM     12  O   UNL     1       4.033   1.361  18.166  0.00  0.00    +0.000 OA
ATOM     13  H   UNL     1       3.337   0.744  17.884  0.00  0.00    +0.000 HD
ENDBRANCH   9  12
ENDBRANCH   1  10
BRANCH   2  14
ATOM     14  C   UNL     1       7.251   4.467  17.029  0.00  0.00    +0.000 C 
BRANCH  14  15
ATOM     15  C   UNL     1       6.905   5.513  15.970  0.00  0.00    +0.000 C 
BRANCH  15  16
ATOM     16  C   UNL     1       6.807   4.925  14.582  0.00  0.00    +0.000 A 
ATOM     17  C   UNL     1       7.720   5.309  13.588  0.00  0.00    +0.000 A 
ATOM     18  C   UNL     1       7.647   4.757  12.310  0.00  0.00    +0.000 A 
ATOM     19  C   UNL     1       6.663   3.821  12.005  0.00  0.00    +0.000 A 
ATOM     20  C   UNL     1       5.742   3.440  12.982  0.00  0.00    +0.000 A 
ATOM     21  C   UNL     1       5.811   3.992  14.267  0.00  0.00    +0.000 A 
ENDBRANCH  15  16
ENDBRANCH  14  15
ENDBRANCH   2  14
TORSDOF 5
ENDMDL
