MODEL 1
REMARK VINA RESULT:      -7.7      0.000      0.000
REMARK  Name = 
REMARK  7 active torsions:
REMARK  status: ('A' for Active; 'I' for Inactive)
REMARK    1  A    between atoms: C_1  and  N_2
REMARK    2  A    between atoms: C_5  and  C_6
REMARK    3  A    between atoms: C_6  and  C_8
REMARK    4  A    between atoms: C_8  and  N_9
REMARK    5  A    between atoms: C_16  and  N_17
REMARK    6  A    between atoms: N_18  and  C_19
REMARK    7  A    between atoms: C_19  and  C_20
REMARK                            x       y       z     vdW  Elec       q    Type
REMARK                         _______ _______ _______ _____ _____    ______ ____
ROOT
ATOM      1  C   UNL     1      -0.070   9.787  23.093  0.00  0.00    +0.000 C 
ATOM      2  N   UNL     1       0.125   9.747  21.655  0.00  0.00    +0.000 N 
ATOM      3  C   UNL     1       0.863   8.720  21.112  0.00  0.00    +0.000 A 
ATOM      4  O   UNL     1       1.258   7.780  21.796  0.00  0.00    +0.000 OA
ATOM      5  C   UNL     1       1.170   8.808  19.652  0.00  0.00    +0.000 A 
ATOM      6  C   UNL     1       0.525   9.738  18.903  0.00  0.00    +0.000 A 
ATOM      7  N   UNL     1      -0.309  10.668  19.533  0.00  0.00    +0.000 N 
ATOM      8  C   UNL     1      -0.546  10.687  20.906  0.00  0.00    +0.000 A 
ATOM      9  O   UNL     1      -1.318  11.489  21.434  0.00  0.00    +0.000 OA
ENDROOT
BRANCH   6  10
ATOM     10  N   UNL     1       0.659   9.796  17.518  0.00  0.00    +0.000 N 
ATOM     11  H   UNL     1       1.585  10.084  17.208  0.00  0.00    +0.000 HD
ATOM     12  H   UNL     1       0.456   8.906  17.067  0.00  0.00    +0.000 HD
ENDBRANCH   6  10
BRANCH   5  13
ATOM     13  C   UNL     1       2.187   7.835  19.097  0.00  0.00    +0.000 C 
ATOM     14  O   UNL     1       2.670   8.040  17.981  0.00  0.00    +0.000 OA
BRANCH  13  15
ATOM     15  C   UNL     1       2.626   6.635  19.964  0.00  0.00    +0.000 C 
BRANCH  15  16
ATOM     16  N   UNL     1       2.222   5.303  19.470  0.00  0.00    +0.000 NA
ATOM     17  C   UNL     1       3.309   4.533  18.883  0.00  0.00    +0.000 C 
ATOM     18  C   UNL     1       2.822   3.780  17.638  0.00  0.00    +0.000 C 
ATOM     19  C   UNL     1       2.060   2.490  17.911  0.00  0.00    +0.000 C 
ATOM     20  C   UNL     1       0.817   2.651  18.782  0.00  0.00    +0.000 C 
ATOM     21  C   UNL     1       1.142   3.091  20.198  0.00  0.00    +0.000 C 
ATOM     22  C   UNL     1       1.300   4.602  20.366  0.00  0.00    +0.000 C 
ENDBRANCH  15  16
ENDBRANCH  13  15
ENDBRANCH   5  13
BRANCH   7  23
ATOM     23  C   UNL     1      -0.902  11.790  18.787  0.00  0.00    +0.000 C 
BRANCH  23  24
ATOM     24  C   UNL     1      -2.274  11.541  18.189  0.00  0.00    +0.000 A 
ATOM     25  C   UNL     1      -3.461  11.888  18.851  0.00  0.00    +0.000 A 
ATOM     26  C   UNL     1      -4.695  11.787  18.206  0.00  0.00    +0.000 A 
ATOM     27  C   UNL     1      -4.763  11.344  16.887  0.00  0.00    +0.000 A 
ATOM     28  C   UNL     1      -3.597  10.983  16.218  0.00  0.00    +0.000 A 
ATOM     29  C   UNL     1      -2.362  11.081  16.863  0.00  0.00    +0.000 A 
ENDBRANCH  23  24
ENDBRANCH   7  23
TORSDOF 6
ENDMDL
MODEL 2
REMARK VINA RESULT:      -7.4      2.524      3.915
REMARK  Name = 
REMARK  7 active torsions:
REMARK  status: ('A' for Active; 'I' for Inactive)
REMARK    1  A    between atoms: C_1  and  N_2
REMARK    2  A    between atoms: C_5  and  C_6
REMARK    3  A    between atoms: C_6  and  C_8
REMARK    4  A    between atoms: C_8  and  N_9
REMARK    5  A    between atoms: C_16  and  N_17
REMARK    6  A    between atoms: N_18  and  C_19
REMARK    7  A    between atoms: C_19  and  C_20
REMARK                            x       y       z     vdW  Elec       q    Type
REMARK                         _______ _______ _______ _____ _____    ______ ____
ROOT
ATOM      1  C   UNL     1       0.087   9.625  23.111  0.00  0.00    +0.000 C 
ATOM      2  N   UNL     1       0.490   9.818  21.729  0.00  0.00    +0.000 N 
ATOM      3  C   UNL     1       0.836   8.719  20.978  0.00  0.00    +0.000 A 
ATOM      4  O   UNL     1       0.701   7.577  21.408  0.00  0.00    +0.000 OA
ATOM      5  C   UNL     1       1.395   8.980  19.616  0.00  0.00    +0.000 A 
ATOM      6  C   UNL     1       1.312  10.235  19.105  0.00  0.00    +0.000 A 
ATOM      7  N   UNL     1       0.825  11.272  19.909  0.00  0.00    +0.000 N 
ATOM      8  C   UNL     1       0.387  11.093  21.219  0.00  0.00    +0.000 A 
ATOM      9  O   UNL     1      -0.078  12.013  21.894  0.00  0.00    +0.000 OA
ENDROOT
BRANCH   6  10
ATOM     10  N   UNL     1       1.690  10.529  17.797  0.00  0.00    +0.000 N 
ATOM     11  H   UNL     1       2.228  11.389  17.711  0.00  0.00    +0.000 HD
ATOM     12  H   UNL     1       2.242   9.787  17.373  0.00  0.00    +0.000 HD
ENDBRANCH   6  10
BRANCH   5  13
ATOM     13  C   UNL     1       2.017   7.811  18.885  0.00  0.00    +0.000 C 
ATOM     14  O   UNL     1       2.026   7.808  17.652  0.00  0.00    +0.000 OA
BRANCH  13  15
ATOM     15  C   UNL     1       2.663   6.673  19.704  0.00  0.00    +0.000 C 
BRANCH  15  16
ATOM     16  N   UNL     1       2.273   5.302  19.320  0.00  0.00    +0.000 NA
ATOM     17  C   UNL     1       3.337   4.538  18.683  0.00  0.00    +0.000 C 
ATOM     18  C   UNL     1       2.776   3.699  17.527  0.00  0.00    +0.000 C 
ATOM     19  C   UNL     1       2.092   2.400  17.936  0.00  0.00    +0.000 C 
ATOM     20  C   UNL     1       0.923   2.567  18.902  0.00  0.00    +0.000 C 
ATOM     21  C   UNL     1       1.349   3.098  20.258  0.00  0.00    +0.000 C 
ATOM     22  C   UNL     1       1.459   4.621  20.329  0.00  0.00    +0.000 C 
ENDBRANCH  15  16
ENDBRANCH  13  15
ENDBRANCH   5  13
BRANCH   7  23
ATOM     23  C   UNL     1       0.865  12.672  19.456  0.00  0.00    +0.000 C 
BRANCH  23  24
ATOM     24  C   UNL     1       2.220  13.353  19.517  0.00  0.00    +0.000 A 
ATOM     25  C   UNL     1       2.918  13.747  18.366  0.00  0.00    +0.000 A 
ATOM     26  C   UNL     1       4.085  14.508  18.464  0.00  0.00    +0.000 A 
ATOM     27  C   UNL     1       4.569  14.893  19.713  0.00  0.00    +0.000 A 
ATOM     28  C   UNL     1       3.896  14.500  20.866  0.00  0.00    +0.000 A 
ATOM     29  C   UNL     1       2.731  13.736  20.769  0.00  0.00    +0.000 A 
ENDBRANCH  23  24
ENDBRANCH   7  23
TORSDOF 6
ENDMDL
MODEL 3
REMARK VINA RESULT:      -7.4      2.595      3.900
REMARK  Name = 
REMARK  7 active torsions:
REMARK  status: ('A' for Active; 'I' for Inactive)
REMARK    1  A    between atoms: C_1  and  N_2
REMARK    2  A    between atoms: C_5  and  C_6
REMARK    3  A    between atoms: C_6  and  C_8
REMARK    4  A    between atoms: C_8  and  N_9
REMARK    5  A    between atoms: C_16  and  N_17
REMARK    6  A    between atoms: N_18  and  C_19
REMARK    7  A    between atoms: C_19  and  C_20
REMARK                            x       y       z     vdW  Elec       q    Type
REMARK                         _______ _______ _______ _____ _____    ______ ____
ROOT
ATOM      1  C   UNL     1      -0.325   9.936  23.093  0.00  0.00    +0.000 C 
ATOM      2  N   UNL     1       0.143  10.183  21.741  0.00  0.00    +0.000 N 
ATOM      3  C   UNL     1       0.524   9.114  20.963  0.00  0.00    +0.000 A 
ATOM      4  O   UNL     1       0.367   7.956  21.340  0.00  0.00    +0.000 OA
ATOM      5  C   UNL     1       1.146   9.429  19.642  0.00  0.00    +0.000 A 
ATOM      6  C   UNL     1       1.089  10.703  19.179  0.00  0.00    +0.000 A 
ATOM      7  N   UNL     1       0.566  11.708  19.999  0.00  0.00    +0.000 N 
ATOM      8  C   UNL     1       0.067  11.478  21.280  0.00  0.00    +0.000 A 
ATOM      9  O   UNL     1      -0.428  12.371  21.968  0.00  0.00    +0.000 OA
ENDROOT
BRANCH   6  10
ATOM     10  N   UNL     1       1.529  11.049  17.903  0.00  0.00    +0.000 N 
ATOM     11  H   UNL     1       2.408  11.562  17.899  0.00  0.00    +0.000 HD
ATOM     12  H   UNL     1       1.654  10.239  17.299  0.00  0.00    +0.000 HD
ENDBRANCH   6  10
BRANCH   5  13
ATOM     13  C   UNL     1       1.801   8.288  18.893  0.00  0.00    +0.000 C 
ATOM     14  O   UNL     1       1.726   8.253  17.663  0.00  0.00    +0.000 OA
BRANCH  13  15
ATOM     15  C   UNL     1       2.584   7.222  19.689  0.00  0.00    +0.000 C 
BRANCH  15  16
ATOM     16  N   UNL     1       2.115   5.830  19.534  0.00  0.00    +0.000 NA
ATOM     17  C   UNL     1       2.786   5.092  18.473  0.00  0.00    +0.000 C 
ATOM     18  C   UNL     1       1.784   4.211  17.716  0.00  0.00    +0.000 C 
ATOM     19  C   UNL     1       1.425   2.897  18.399  0.00  0.00    +0.000 C 
ATOM     20  C   UNL     1       0.839   3.041  19.800  0.00  0.00    +0.000 C 
ATOM     21  C   UNL     1       1.829   3.614  20.798  0.00  0.00    +0.000 C 
ATOM     22  C   UNL     1       1.898   5.140  20.808  0.00  0.00    +0.000 C 
ENDBRANCH  15  16
ENDBRANCH  13  15
ENDBRANCH   5  13
BRANCH   7  23
ATOM     23  C   UNL     1       0.630  13.125  19.606  0.00  0.00    +0.000 C 
BRANCH  23  24
ATOM     24  C   UNL     1       1.971  13.809  19.794  0.00  0.00    +0.000 A 
ATOM     25  C   UNL     1       2.621  13.867  21.036  0.00  0.00    +0.000 A 
ATOM     26  C   UNL     1       3.921  14.366  21.140  0.00  0.00    +0.000 A 
ATOM     27  C   UNL     1       4.595  14.808  20.003  0.00  0.00    +0.000 A 
ATOM     28  C   UNL     1       3.962  14.769  18.764  0.00  0.00    +0.000 A 
ATOM     29  C   UNL     1       2.661  14.273  18.660  0.00  0.00    +0.000 A 
ENDBRANCH  23  24
ENDBRANCH   7  23
TORSDOF 6
ENDMDL
MODEL 4
REMARK VINA RESULT:      -7.4      5.258      8.245
REMARK  Name = 
REMARK  7 active torsions:
REMARK  status: ('A' for Active; 'I' for Inactive)
REMARK    1  A    between atoms: C_1  and  N_2
REMARK    2  A    between atoms: C_5  and  C_6
REMARK    3  A    between atoms: C_6  and  C_8
REMARK    4  A    between atoms: C_8  and  N_9
REMARK    5  A    between atoms: C_16  and  N_17
REMARK    6  A    between atoms: N_18  and  C_19
REMARK    7  A    between atoms: C_19  and  C_20
REMARK                            x       y       z     vdW  Elec       q    Type
REMARK                         _______ _______ _______ _____ _____    ______ ____
ROOT
ATOM      1  C   UNL     1       3.222   7.882  17.138  0.00  0.00    +0.000 C 
ATOM      2  N   UNL     1       4.240   6.848  17.120  0.00  0.00    +0.000 N 
ATOM      3  C   UNL     1       4.355   6.008  18.204  0.00  0.00    +0.000 A 
ATOM      4  O   UNL     1       3.546   6.036  19.127  0.00  0.00    +0.000 OA
ATOM      5  C   UNL     1       5.515   5.066  18.209  0.00  0.00    +0.000 A 
ATOM      6  C   UNL     1       6.242   4.917  17.073  0.00  0.00    +0.000 A 
ATOM      7  N   UNL     1       5.968   5.736  15.972  0.00  0.00    +0.000 N 
ATOM      8  C   UNL     1       4.961   6.698  15.956  0.00  0.00    +0.000 A 
ATOM      9  O   UNL     1       4.710   7.379  14.960  0.00  0.00    +0.000 OA
ENDROOT
BRANCH   6  10
ATOM     10  N   UNL     1       7.253   3.966  16.959  0.00  0.00    +0.000 N 
ATOM     11  H   UNL     1       7.503   3.749  15.997  0.00  0.00    +0.000 HD
ATOM     12  H   UNL     1       8.110   4.246  17.434  0.00  0.00    +0.000 HD
ENDBRANCH   6  10
BRANCH   5  13
ATOM     13  C   UNL     1       5.802   4.325  19.497  0.00  0.00    +0.000 C 
ATOM     14  O   UNL     1       6.544   4.840  20.336  0.00  0.00    +0.000 OA
BRANCH  13  15
ATOM     15  C   UNL     1       5.120   2.962  19.744  0.00  0.00    +0.000 C 
BRANCH  15  16
ATOM     16  N   UNL     1       3.643   2.966  19.711  0.00  0.00    +0.000 NA
ATOM     17  C   UNL     1       3.069   2.076  18.712  0.00  0.00    +0.000 C 
ATOM     18  C   UNL     1       1.857   2.735  18.041  0.00  0.00    +0.000 C 
ATOM     19  C   UNL     1       0.558   2.676  18.836  0.00  0.00    +0.000 C 
ATOM     20  C   UNL     1       0.626   3.305  20.225  0.00  0.00    +0.000 C 
ATOM     21  C   UNL     1       1.563   2.565  21.162  0.00  0.00    +0.000 C 
ATOM     22  C   UNL     1       3.029   2.980  21.041  0.00  0.00    +0.000 C 
ENDBRANCH  15  16
ENDBRANCH  13  15
ENDBRANCH   5  13
BRANCH   7  23
ATOM     23  C   UNL     1       6.829   5.723  14.778  0.00  0.00    +0.000 C 
BRANCH  23  24
ATOM     24  C   UNL     1       6.501   4.672  13.732  0.00  0.00    +0.000 A 
ATOM     25  C   UNL     1       5.268   4.004  13.695  0.00  0.00    +0.000 A 
ATOM     26  C   UNL     1       4.945   3.161  12.630  0.00  0.00    +0.000 A 
ATOM     27  C   UNL     1       5.845   2.977  11.582  0.00  0.00    +0.000 A 
ATOM     28  C   UNL     1       7.078   3.621  11.609  0.00  0.00    +0.000 A 
ATOM     29  C   UNL     1       7.404   4.463  12.675  0.00  0.00    +0.000 A 
ENDBRANCH  23  24
ENDBRANCH   7  23
TORSDOF 6
ENDMDL
MODEL 5
REMARK VINA RESULT:      -7.3      1.292      2.108
REMARK  Name = 
REMARK  7 active torsions:
REMARK  status: ('A' for Active; 'I' for Inactive)
REMARK    1  A    between atoms: C_1  and  N_2
REMARK    2  A    between atoms: C_5  and  C_6
REMARK    3  A    between atoms: C_6  and  C_8
REMARK    4  A    between atoms: C_8  and  N_9
REMARK    5  A    between atoms: C_16  and  N_17
REMARK    6  A    between atoms: N_18  and  C_19
REMARK    7  A    between atoms: C_19  and  C_20
REMARK                            x       y       z     vdW  Elec       q    Type
REMARK                         _______ _______ _______ _____ _____    ______ ____
ROOT
ATOM      1  C   UNL     1       0.291   9.389  23.230  0.00  0.00    +0.000 C 
ATOM      2  N   UNL     1       0.354   9.545  21.787  0.00  0.00    +0.000 N 
ATOM      3  C   UNL     1       1.043   8.613  21.046  0.00  0.00    +0.000 A 
ATOM      4  O   UNL     1       1.503   7.597  21.559  0.00  0.00    +0.000 OA
ATOM      5  C   UNL     1       1.215   8.902  19.590  0.00  0.00    +0.000 A 
ATOM      6  C   UNL     1       0.501   9.913  19.035  0.00  0.00    +0.000 A 
ATOM      7  N   UNL     1      -0.276  10.736  19.857  0.00  0.00    +0.000 N 
ATOM      8  C   UNL     1      -0.387  10.567  21.236  0.00  0.00    +0.000 A 
ATOM      9  O   UNL     1      -1.111  11.277  21.934  0.00  0.00    +0.000 OA
ENDROOT
BRANCH   6  10
ATOM     10  N   UNL     1       0.507  10.159  17.664  0.00  0.00    +0.000 N 
ATOM     11  H   UNL     1       0.153   9.383  17.108  0.00  0.00    +0.000 HD
ATOM     12  H   UNL     1      -0.038  10.981  17.411  0.00  0.00    +0.000 HD
ENDBRANCH   6  10
BRANCH   5  13
ATOM     13  C   UNL     1       2.181   8.029  18.819  0.00  0.00    +0.000 C 
ATOM     14  O   UNL     1       2.911   8.544  17.968  0.00  0.00    +0.000 OA
BRANCH  13  15
ATOM     15  C   UNL     1       2.260   6.523  19.151  0.00  0.00    +0.000 C 
BRANCH  15  16
ATOM     16  N   UNL     1       3.290   5.757  18.422  0.00  0.00    +0.000 NA
ATOM     17  C   UNL     1       4.531   5.577  19.163  0.00  0.00    +0.000 C 
ATOM     18  C   UNL     1       5.739   5.723  18.228  0.00  0.00    +0.000 C 
ATOM     19  C   UNL     1       6.066   4.495  17.388  0.00  0.00    +0.000 C 
ATOM     20  C   UNL     1       4.932   4.012  16.489  0.00  0.00    +0.000 C 
ATOM     21  C   UNL     1       3.734   3.505  17.272  0.00  0.00    +0.000 C 
ATOM     22  C   UNL     1       2.757   4.599  17.701  0.00  0.00    +0.000 C 
ENDBRANCH  15  16
ENDBRANCH  13  15
ENDBRANCH   5  13
BRANCH   7  23
ATOM     23  C   UNL     1      -0.940  11.938  19.327  0.00  0.00    +0.000 C 
BRANCH  23  24
ATOM     24  C   UNL     1      -2.382  11.764  18.887  0.00  0.00    +0.000 A 
ATOM     25  C   UNL     1      -2.763  10.845  17.897  0.00  0.00    +0.000 A 
ATOM     26  C   UNL     1      -4.111  10.601  17.630  0.00  0.00    +0.000 A 
ATOM     27  C   UNL     1      -5.101  11.267  18.351  0.00  0.00    +0.000 A 
ATOM     28  C   UNL     1      -4.742  12.191  19.327  0.00  0.00    +0.000 A 
ATOM     29  C   UNL     1      -3.393  12.438  19.594  0.00  0.00    +0.000 A 
ENDBRANCH  23  24
ENDBRANCH   7  23
TORSDOF 6
ENDMDL
MODEL 6
REMARK VINA RESULT:      -7.2      2.800      8.334
REMARK  Name = 
REMARK  7 active torsions:
REMARK  status: ('A' for Active; 'I' for Inactive)
REMARK    1  A    between atoms: C_1  and  N_2
REMARK    2  A    between atoms: C_5  and  C_6
REMARK    3  A    between atoms: C_6  and  C_8
REMARK    4  A    between atoms: C_8  and  N_9
REMARK    5  A    between atoms: C_16  and  N_17
REMARK    6  A    between atoms: N_18  and  C_19
REMARK    7  A    between atoms: C_19  and  C_20
REMARK                            x       y       z     vdW  Elec       q    Type
REMARK                         _______ _______ _______ _____ _____    ______ ____
ROOT
ATOM      1  C   UNL     1       2.366   3.221  20.701  0.00  0.00    +0.000 C 
ATOM      2  N   UNL     1       3.010   4.297  19.969  0.00  0.00    +0.000 N 
ATOM      3  C   UNL     1       2.363   5.507  19.858  0.00  0.00    +0.000 A 
ATOM      4  O   UNL     1       1.317   5.734  20.458  0.00  0.00    +0.000 OA
ATOM      5  C   UNL     1       2.990   6.528  18.964  0.00  0.00    +0.000 A 
ATOM      6  C   UNL     1       4.251   6.313  18.509  0.00  0.00    +0.000 A 
ATOM      7  N   UNL     1       4.879   5.093  18.781  0.00  0.00    +0.000 N 
ATOM      8  C   UNL     1       4.294   4.071  19.525  0.00  0.00    +0.000 A 
ATOM      9  O   UNL     1       4.883   3.022  19.788  0.00  0.00    +0.000 OA
ENDROOT
BRANCH   6  10
ATOM     10  N   UNL     1       4.949   7.274  17.781  0.00  0.00    +0.000 N 
ATOM     11  H   UNL     1       5.357   8.006  18.359  0.00  0.00    +0.000 HD
ATOM     12  H   UNL     1       5.705   6.874  17.228  0.00  0.00    +0.000 HD
ENDBRANCH   6  10
BRANCH   5  13
ATOM     13  C   UNL     1       2.169   7.753  18.629  0.00  0.00    +0.000 C 
ATOM     14  O   UNL     1       1.920   8.007  17.448  0.00  0.00    +0.000 OA
BRANCH  13  15
ATOM     15  C   UNL     1       1.628   8.630  19.779  0.00  0.00    +0.000 C 
BRANCH  15  16
ATOM     16  N   UNL     1       0.869   9.830  19.370  0.00  0.00    +0.000 NA
ATOM     17  C   UNL     1      -0.573   9.633  19.325  0.00  0.00    +0.000 C 
ATOM     18  C   UNL     1      -1.174  10.351  18.110  0.00  0.00    +0.000 C 
ATOM     19  C   UNL     1      -1.387  11.851  18.278  0.00  0.00    +0.000 C 
ATOM     20  C   UNL     1      -0.129  12.644  18.618  0.00  0.00    +0.000 C 
ATOM     21  C   UNL     1       0.443  12.287  19.978  0.00  0.00    +0.000 C 
ATOM     22  C   UNL     1       1.367  11.070  19.972  0.00  0.00    +0.000 C 
ENDBRANCH  15  16
ENDBRANCH  13  15
ENDBRANCH   5  13
BRANCH   7  23
ATOM     23  C   UNL     1       6.178   4.752  18.177  0.00  0.00    +0.000 C 
BRANCH  23  24
ATOM     24  C   UNL     1       6.166   4.481  16.683  0.00  0.00    +0.000 A 
ATOM     25  C   UNL     1       5.048   3.952  16.021  0.00  0.00    +0.000 A 
ATOM     26  C   UNL     1       5.020   3.863  14.628  0.00  0.00    +0.000 A 
ATOM     27  C   UNL     1       6.105   4.306  13.874  0.00  0.00    +0.000 A 
ATOM     28  C   UNL     1       7.227   4.822  14.514  0.00  0.00    +0.000 A 
ATOM     29  C   UNL     1       7.259   4.909  15.908  0.00  0.00    +0.000 A 
ENDBRANCH  23  24
ENDBRANCH   7  23
TORSDOF 6
ENDMDL
MODEL 7
REMARK VINA RESULT:      -7.2      2.924      3.801
REMARK  Name = 
REMARK  7 active torsions:
REMARK  status: ('A' for Active; 'I' for Inactive)
REMARK    1  A    between atoms: C_1  and  N_2
REMARK    2  A    between atoms: C_5  and  C_6
REMARK    3  A    between atoms: C_6  and  C_8
REMARK    4  A    between atoms: C_8  and  N_9
REMARK    5  A    between atoms: C_16  and  N_17
REMARK    6  A    between atoms: N_18  and  C_19
REMARK    7  A    between atoms: C_19  and  C_20
REMARK                            x       y       z     vdW  Elec       q    Type
REMARK                         _______ _______ _______ _____ _____    ______ ____
ROOT
ATOM      1  C   UNL     1      -0.365  11.075  22.511  0.00  0.00    +0.000 C 
ATOM      2  N   UNL     1       0.330  11.272  21.252  0.00  0.00    +0.000 N 
ATOM      3  C   UNL     1       0.267  10.286  20.295  0.00  0.00    +0.000 A 
ATOM      4  O   UNL     1      -0.455   9.302  20.433  0.00  0.00    +0.000 OA
ATOM      5  C   UNL     1       1.125  10.463  19.085  0.00  0.00    +0.000 A 
ATOM      6  C   UNL     1       1.724  11.663  18.877  0.00  0.00    +0.000 A 
ATOM      7  N   UNL     1       1.628  12.656  19.858  0.00  0.00    +0.000 N 
ATOM      8  C   UNL     1       0.921  12.499  21.049  0.00  0.00    +0.000 A 
ATOM      9  O   UNL     1       0.814  13.403  21.879  0.00  0.00    +0.000 OA
ENDROOT
BRANCH   6  10
ATOM     10  N   UNL     1       2.431  11.947  17.711  0.00  0.00    +0.000 N 
ATOM     11  H   UNL     1       3.017  12.776  17.780  0.00  0.00    +0.000 HD
ATOM     12  H   UNL     1       3.032  11.179  17.420  0.00  0.00    +0.000 HD
ENDBRANCH   6  10
BRANCH   5  13
ATOM     13  C   UNL     1       1.265   9.279  18.154  0.00  0.00    +0.000 C 
ATOM     14  O   UNL     1       0.447   9.129  17.242  0.00  0.00    +0.000 OA
BRANCH  13  15
ATOM     15  C   UNL     1       2.455   8.314  18.342  0.00  0.00    +0.000 C 
BRANCH  15  16
ATOM     16  N   UNL     1       2.110   6.942  18.767  0.00  0.00    +0.000 NA
ATOM     17  C   UNL     1       2.791   5.899  18.013  0.00  0.00    +0.000 C 
ATOM     18  C   UNL     1       1.837   4.730  17.735  0.00  0.00    +0.000 C 
ATOM     19  C   UNL     1       1.638   3.760  18.892  0.00  0.00    +0.000 C 
ATOM     20  C   UNL     1       1.115   4.393  20.178  0.00  0.00    +0.000 C 
ATOM     21  C   UNL     1       2.099   5.370  20.797  0.00  0.00    +0.000 C 
ATOM     22  C   UNL     1       2.025   6.784  20.221  0.00  0.00    +0.000 C 
ENDBRANCH  15  16
ENDBRANCH  13  15
ENDBRANCH   5  13
BRANCH   7  23
ATOM     23  C   UNL     1       2.389  13.911  19.751  0.00  0.00    +0.000 C 
BRANCH  23  24
ATOM     24  C   UNL     1       1.615  15.120  19.259  0.00  0.00    +0.000 A 
ATOM     25  C   UNL     1       2.241  16.328  18.915  0.00  0.00    +0.000 A 
ATOM     26  C   UNL     1       1.517  17.363  18.320  0.00  0.00    +0.000 A 
ATOM     27  C   UNL     1       0.159  17.206  18.052  0.00  0.00    +0.000 A 
ATOM     28  C   UNL     1      -0.481  16.019  18.397  0.00  0.00    +0.000 A 
ATOM     29  C   UNL     1       0.241  14.984  18.995  0.00  0.00    +0.000 A 
ENDBRANCH  23  24
ENDBRANCH   7  23
TORSDOF 6
ENDMDL
MODEL 8
REMARK VINA RESULT:      -7.1      2.664      3.958
REMARK  Name = 
REMARK  7 active torsions:
REMARK  status: ('A' for Active; 'I' for Inactive)
REMARK    1  A    between atoms: C_1  and  N_2
REMARK    2  A    between atoms: C_5  and  C_6
REMARK    3  A    between atoms: C_6  and  C_8
REMARK    4  A    between atoms: C_8  and  N_9
REMARK    5  A    between atoms: C_16  and  N_17
REMARK    6  A    between atoms: N_18  and  C_19
REMARK    7  A    between atoms: C_19  and  C_20
REMARK                            x       y       z     vdW  Elec       q    Type
REMARK                         _______ _______ _______ _____ _____    ______ ____
ROOT
ATOM      1  C   UNL     1       0.492  12.884  18.811  0.00  0.00    +0.000 C 
ATOM      2  N   UNL     1       0.156  12.152  20.018  0.00  0.00    +0.000 N 
ATOM      3  C   UNL     1       0.516  10.827  20.116  0.00  0.00    +0.000 A 
ATOM      4  O   UNL     1       1.214  10.286  19.263  0.00  0.00    +0.000 OA
ATOM      5  C   UNL     1       0.010  10.075  21.304  0.00  0.00    +0.000 A 
ATOM      6  C   UNL     1      -0.561  10.768  22.322  0.00  0.00    +0.000 A 
ATOM      7  N   UNL     1      -0.774  12.144  22.181  0.00  0.00    +0.000 N 
ATOM      8  C   UNL     1      -0.410  12.869  21.049  0.00  0.00    +0.000 A 
ATOM      9  O   UNL     1      -0.569  14.088  20.963  0.00  0.00    +0.000 OA
ENDROOT
BRANCH   6  10
ATOM     10  N   UNL     1      -0.937  10.156  23.516  0.00  0.00    +0.000 N 
ATOM     11  H   UNL     1      -0.447   9.283  23.699  0.00  0.00    +0.000 HD
ATOM     12  H   UNL     1      -0.794  10.756  24.326  0.00  0.00    +0.000 HD
ENDBRANCH   6  10
BRANCH   5  13
ATOM     13  C   UNL     1       0.176   8.572  21.296  0.00  0.00    +0.000 C 
ATOM     14  O   UNL     1      -0.825   7.854  21.356  0.00  0.00    +0.000 OA
BRANCH  13  15
ATOM     15  C   UNL     1       1.595   7.976  21.169  0.00  0.00    +0.000 C 
BRANCH  15  16
ATOM     16  N   UNL     1       1.724   6.807  20.275  0.00  0.00    +0.000 NA
ATOM     17  C   UNL     1       2.797   6.923  19.298  0.00  0.00    +0.000 C 
ATOM     18  C   UNL     1       2.352   6.358  17.943  0.00  0.00    +0.000 C 
ATOM     19  C   UNL     1       2.406   4.840  17.819  0.00  0.00    +0.000 C 
ATOM     20  C   UNL     1       1.576   4.082  18.851  0.00  0.00    +0.000 C 
ATOM     21  C   UNL     1       2.086   4.266  20.269  0.00  0.00    +0.000 C 
ATOM     22  C   UNL     1       1.567   5.524  20.964  0.00  0.00    +0.000 C 
ENDBRANCH  15  16
ENDBRANCH  13  15
ENDBRANCH   5  13
BRANCH   7  23
ATOM     23  C   UNL     1      -1.530  12.907  23.187  0.00  0.00    +0.000 C 
BRANCH  23  24
ATOM     24  C   UNL     1      -3.039  12.754  23.143  0.00  0.00    +0.000 A 
ATOM     25  C   UNL     1      -3.830  12.734  24.302  0.00  0.00    +0.000 A 
ATOM     26  C   UNL     1      -5.223  12.748  24.216  0.00  0.00    +0.000 A 
ATOM     27  C   UNL     1      -5.850  12.790  22.972  0.00  0.00    +0.000 A 
ATOM     28  C   UNL     1      -5.082  12.799  21.812  0.00  0.00    +0.000 A 
ATOM     29  C   UNL     1      -3.687  12.781  21.896  0.00  0.00    +0.000 A 
ENDBRANCH  23  24
ENDBRANCH   7  23
TORSDOF 6
ENDMDL
MODEL 9
REMARK VINA RESULT:      -7.1      2.543      4.072
REMARK  Name = 
REMARK  7 active torsions:
REMARK  status: ('A' for Active; 'I' for Inactive)
REMARK    1  A    between atoms: C_1  and  N_2
REMARK    2  A    between atoms: C_5  and  C_6
REMARK    3  A    between atoms: C_6  and  C_8
REMARK    4  A    between atoms: C_8  and  N_9
REMARK    5  A    between atoms: C_16  and  N_17
REMARK    6  A    between atoms: N_18  and  C_19
REMARK    7  A    between atoms: C_19  and  C_20
REMARK                            x       y       z     vdW  Elec       q    Type
REMARK                         _______ _______ _______ _____ _____    ______ ____
ROOT
ATOM      1  C   UNL     1       0.378   9.422  23.069  0.00  0.00    +0.000 C 
ATOM      2  N   UNL     1       0.703   9.627  21.669  0.00  0.00    +0.000 N 
ATOM      3  C   UNL     1       1.038   8.539  20.896  0.00  0.00    +0.000 A 
ATOM      4  O   UNL     1       0.956   7.393  21.330  0.00  0.00    +0.000 OA
ATOM      5  C   UNL     1       1.517   8.818  19.509  0.00  0.00    +0.000 A 
ATOM      6  C   UNL     1       1.374  10.071  19.007  0.00  0.00    +0.000 A 
ATOM      7  N   UNL     1       0.903  11.093  19.838  0.00  0.00    +0.000 N 
ATOM      8  C   UNL     1       0.540  10.900  21.169  0.00  0.00    +0.000 A 
ATOM      9  O   UNL     1       0.087  11.806  21.870  0.00  0.00    +0.000 OA
ENDROOT
BRANCH   6  10
ATOM     10  N   UNL     1       1.675  10.377  17.681  0.00  0.00    +0.000 N 
ATOM     11  H   UNL     1       0.860  10.400  17.072  0.00  0.00    +0.000 HD
ATOM     12  H   UNL     1       2.147  11.274  17.584  0.00  0.00    +0.000 HD
ENDBRANCH   6  10
BRANCH   5  13
ATOM     13  C   UNL     1       2.130   7.667  18.742  0.00  0.00    +0.000 C 
ATOM     14  O   UNL     1       1.953   7.592  17.523  0.00  0.00    +0.000 OA
BRANCH  13  15
ATOM     15  C   UNL     1       3.000   6.641  19.500  0.00  0.00    +0.000 C 
BRANCH  15  16
ATOM     16  N   UNL     1       2.777   5.224  19.148  0.00  0.00    +0.000 NA
ATOM     17  C   UNL     1       1.400   4.781  19.313  0.00  0.00    +0.000 C 
ATOM     18  C   UNL     1       1.358   3.363  19.897  0.00  0.00    +0.000 C 
ATOM     19  C   UNL     1       1.597   2.239  18.896  0.00  0.00    +0.000 C 
ATOM     20  C   UNL     1       2.924   2.316  18.148  0.00  0.00    +0.000 C 
ATOM     21  C   UNL     1       3.019   3.526  17.238  0.00  0.00    +0.000 C 
ATOM     22  C   UNL     1       3.485   4.803  17.937  0.00  0.00    +0.000 C 
ENDBRANCH  15  16
ENDBRANCH  13  15
ENDBRANCH   5  13
BRANCH   7  23
ATOM     23  C   UNL     1       0.882  12.494  19.388  0.00  0.00    +0.000 C 
BRANCH  23  24
ATOM     24  C   UNL     1       2.207  13.233  19.448  0.00  0.00    +0.000 A 
ATOM     25  C   UNL     1       2.905  13.626  18.296  0.00  0.00    +0.000 A 
ATOM     26  C   UNL     1       4.038  14.437  18.390  0.00  0.00    +0.000 A 
ATOM     27  C   UNL     1       4.487  14.874  19.634  0.00  0.00    +0.000 A 
ATOM     28  C   UNL     1       3.814  14.485  20.788  0.00  0.00    +0.000 A 
ATOM     29  C   UNL     1       2.683  13.670  20.697  0.00  0.00    +0.000 A 
ENDBRANCH  23  24
ENDBRANCH   7  23
TORSDOF 6
ENDMDL
