MODEL 1
REMARK VINA RESULT:      -8.9      0.000      0.000
REMARK  Name = 
REMARK  7 active torsions:
REMARK  status: ('A' for Active; 'I' for Inactive)
REMARK    1  A    between atoms: C_1  and  C_2
REMARK    2  A    between atoms: C_2  and  C_3
REMARK    3  A    between atoms: C_2  and  C_10
REMARK    4  A    between atoms: C_2  and  C_19
REMARK    5  A    between atoms: C_3  and  C_4
REMARK    6  A    between atoms: C_19  and  O_20
REMARK    7  A    between atoms: C_19  and  C_21
REMARK                            x       y       z     vdW  Elec       q    Type
REMARK                         _______ _______ _______ _____ _____    ______ ____
ROOT
ATOM      1  C   UNL     1       5.241   5.843  18.660  0.00  0.00    +0.000 C 
ATOM      2  C   UNL     1       4.455   4.885  17.718  0.00  0.00    +0.000 C 
ENDROOT
BRANCH   2   3
ATOM      3  C   UNL     1       5.182   4.741  16.373  0.00  0.00    +0.000 C 
ATOM      4  C   UNL     1       4.908   3.839  15.412  0.00  0.00    +0.000 C 
ATOM      5  C   UNL     1       5.758   4.088  14.275  0.00  0.00    +0.000 A 
ATOM      6  C   UNL     1       5.730   3.500  13.024  0.00  0.00    +0.000 A 
ATOM      7  C   UNL     1       6.717   3.863  12.111  0.00  0.00    +0.000 A 
ATOM      8  C   UNL     1       7.714   4.785  12.472  0.00  0.00    +0.000 A 
ATOM      9  C   UNL     1       7.695   5.415  13.724  0.00  0.00    +0.000 A 
ATOM     10  C   UNL     1       6.683   5.082  14.605  0.00  0.00    +0.000 A 
ATOM     11  C   UNL     1       6.328   5.657  15.946  0.00  0.00    +0.000 C 
ENDBRANCH   2   3
BRANCH   2  12
ATOM     12  C   UNL     1       2.992   5.459  17.554  0.00  0.00    +0.000 C 
BRANCH  12  13
ATOM     13  C   UNL     1       2.484   6.643  18.376  0.00  0.00    +0.000 A 
ATOM     14  C   UNL     1       2.216   6.613  19.749  0.00  0.00    +0.000 A 
ATOM     15  C   UNL     1       1.755   7.743  20.428  0.00  0.00    +0.000 A 
ATOM     16  C   UNL     1       1.561   8.936  19.745  0.00  0.00    +0.000 A 
ATOM     17  C   UNL     1       1.848   9.005  18.386  0.00  0.00    +0.000 A 
ATOM     18  C   UNL     1       2.310   7.870  17.712  0.00  0.00    +0.000 A 
ENDBRANCH  12  13
ENDBRANCH   2  12
BRANCH   2  19
ATOM     19  C   UNL     1       4.384   3.492  18.482  0.00  0.00    +0.000 C 
BRANCH  19  20
ATOM     20  C   UNL     1       3.170   3.244  19.370  0.00  0.00    +0.000 A 
ATOM     21  C   UNL     1       3.297   3.364  20.765  0.00  0.00    +0.000 A 
ATOM     22  C   UNL     1       2.221   3.106  21.615  0.00  0.00    +0.000 A 
ATOM     23  C   UNL     1       0.987   2.748  21.082  0.00  0.00    +0.000 A 
ATOM     24  C   UNL     1       0.830   2.657  19.702  0.00  0.00    +0.000 A 
ATOM     25  C   UNL     1       1.913   2.898  18.851  0.00  0.00    +0.000 A 
ENDBRANCH  19  20
BRANCH  19  26
ATOM     26  O   UNL     1       5.603   3.282  19.216  0.00  0.00    +0.000 OA
ATOM     27  H   UNL     1       6.340   3.228  18.586  0.00  0.00    +0.000 HD
ENDBRANCH  19  26
ENDBRANCH   2  19
TORSDOF 6
ENDMDL
MODEL 2
REMARK VINA RESULT:      -8.8      0.081      1.335
REMARK  Name = 
REMARK  7 active torsions:
REMARK  status: ('A' for Active; 'I' for Inactive)
REMARK    1  A    between atoms: C_1  and  C_2
REMARK    2  A    between atoms: C_2  and  C_3
REMARK    3  A    between atoms: C_2  and  C_10
REMARK    4  A    between atoms: C_2  and  C_19
REMARK    5  A    between atoms: C_3  and  C_4
REMARK    6  A    between atoms: C_19  and  O_20
REMARK    7  A    between atoms: C_19  and  C_21
REMARK                            x       y       z     vdW  Elec       q    Type
REMARK                         _______ _______ _______ _____ _____    ______ ____
ROOT
ATOM      1  C   UNL     1       5.224   5.752  18.699  0.00  0.00    +0.000 C 
ATOM      2  C   UNL     1       4.445   4.812  17.733  0.00  0.00    +0.000 C 
ENDROOT
BRANCH   2   3
ATOM      3  C   UNL     1       5.180   4.695  16.390  0.00  0.00    +0.000 C 
ATOM      4  C   UNL     1       4.932   3.793  15.421  0.00  0.00    +0.000 C 
ATOM      5  C   UNL     1       5.780   4.071  14.289  0.00  0.00    +0.000 A 
ATOM      6  C   UNL     1       5.771   3.492  13.035  0.00  0.00    +0.000 A 
ATOM      7  C   UNL     1       6.752   3.885  12.128  0.00  0.00    +0.000 A 
ATOM      8  C   UNL     1       7.725   4.830  12.499  0.00  0.00    +0.000 A 
ATOM      9  C   UNL     1       7.685   5.451  13.755  0.00  0.00    +0.000 A 
ATOM     10  C   UNL     1       6.678   5.086  14.630  0.00  0.00    +0.000 A 
ATOM     11  C   UNL     1       6.304   5.643  15.973  0.00  0.00    +0.000 C 
ENDBRANCH   2   3
BRANCH   2  12
ATOM     12  C   UNL     1       2.982   5.387  17.571  0.00  0.00    +0.000 C 
BRANCH  12  13
ATOM     13  C   UNL     1       2.513   6.641  18.309  0.00  0.00    +0.000 A 
ATOM     14  C   UNL     1       2.341   7.901  17.724  0.00  0.00    +0.000 A 
ATOM     15  C   UNL     1       1.906   8.999  18.469  0.00  0.00    +0.000 A 
ATOM     16  C   UNL     1       1.624   8.856  19.821  0.00  0.00    +0.000 A 
ATOM     17  C   UNL     1       1.756   7.611  20.423  0.00  0.00    +0.000 A 
ATOM     18  C   UNL     1       2.191   6.514  19.672  0.00  0.00    +0.000 A 
ENDBRANCH  12  13
ENDBRANCH   2  12
BRANCH   2  19
ATOM     19  C   UNL     1       4.370   3.404  18.469  0.00  0.00    +0.000 C 
BRANCH  19  20
ATOM     20  C   UNL     1       3.196   3.170  19.411  0.00  0.00    +0.000 A 
ATOM     21  C   UNL     1       1.932   2.856  18.878  0.00  0.00    +0.000 A 
ATOM     22  C   UNL     1       0.823   2.674  19.705  0.00  0.00    +0.000 A 
ATOM     23  C   UNL     1       0.963   2.774  21.085  0.00  0.00    +0.000 A 
ATOM     24  C   UNL     1       2.212   3.049  21.636  0.00  0.00    +0.000 A 
ATOM     25  C   UNL     1       3.319   3.250  20.807  0.00  0.00    +0.000 A 
ENDBRANCH  19  20
BRANCH  19  26
ATOM     26  O   UNL     1       5.618   3.142  19.135  0.00  0.00    +0.000 OA
ATOM     27  H   UNL     1       5.467   3.155  20.094  0.00  0.00    +0.000 HD
ENDBRANCH  19  26
ENDBRANCH   2  19
TORSDOF 6
ENDMDL
MODEL 3
REMARK VINA RESULT:      -8.7      0.107      1.499
REMARK  Name = 
REMARK  7 active torsions:
REMARK  status: ('A' for Active; 'I' for Inactive)
REMARK    1  A    between atoms: C_1  and  C_2
REMARK    2  A    between atoms: C_2  and  C_3
REMARK    3  A    between atoms: C_2  and  C_10
REMARK    4  A    between atoms: C_2  and  C_19
REMARK    5  A    between atoms: C_3  and  C_4
REMARK    6  A    between atoms: C_19  and  O_20
REMARK    7  A    between atoms: C_19  and  C_21
REMARK                            x       y       z     vdW  Elec       q    Type
REMARK                         _______ _______ _______ _____ _____    ______ ____
ROOT
ATOM      1  C   UNL     1       5.229   5.881  18.630  0.00  0.00    +0.000 C 
ATOM      2  C   UNL     1       4.440   4.916  17.697  0.00  0.00    +0.000 C 
ENDROOT
BRANCH   2   3
ATOM      3  C   UNL     1       5.138   4.796  16.335  0.00  0.00    +0.000 C 
ATOM      4  C   UNL     1       6.130   5.584  15.877  0.00  0.00    +0.000 C 
ATOM      5  C   UNL     1       6.568   5.091  14.594  0.00  0.00    +0.000 A 
ATOM      6  C   UNL     1       7.641   5.503  13.827  0.00  0.00    +0.000 A 
ATOM      7  C   UNL     1       7.812   4.915  12.576  0.00  0.00    +0.000 A 
ATOM      8  C   UNL     1       6.902   3.947  12.116  0.00  0.00    +0.000 A 
ATOM      9  C   UNL     1       5.853   3.499  12.930  0.00  0.00    +0.000 A 
ATOM     10  C   UNL     1       5.721   4.057  14.188  0.00  0.00    +0.000 A 
ATOM     11  C   UNL     1       4.792   3.711  15.317  0.00  0.00    +0.000 C 
ENDBRANCH   2   3
BRANCH   2  12
ATOM     12  C   UNL     1       2.963   5.463  17.572  0.00  0.00    +0.000 C 
BRANCH  12  13
ATOM     13  C   UNL     1       2.465   6.658  18.385  0.00  0.00    +0.000 A 
ATOM     14  C   UNL     1       2.187   6.637  19.757  0.00  0.00    +0.000 A 
ATOM     15  C   UNL     1       1.736   7.776  20.427  0.00  0.00    +0.000 A 
ATOM     16  C   UNL     1       1.562   8.968  19.737  0.00  0.00    +0.000 A 
ATOM     17  C   UNL     1       1.858   9.027  18.381  0.00  0.00    +0.000 A 
ATOM     18  C   UNL     1       2.311   7.884  17.715  0.00  0.00    +0.000 A 
ENDBRANCH  12  13
ENDBRANCH   2  12
BRANCH   2  19
ATOM     19  C   UNL     1       4.413   3.515  18.451  0.00  0.00    +0.000 C 
BRANCH  19  20
ATOM     20  C   UNL     1       3.234   3.244  19.378  0.00  0.00    +0.000 A 
ATOM     21  C   UNL     1       2.005   2.832  18.834  0.00  0.00    +0.000 A 
ATOM     22  C   UNL     1       0.892   2.612  19.644  0.00  0.00    +0.000 A 
ATOM     23  C   UNL     1       0.994   2.774  21.022  0.00  0.00    +0.000 A 
ATOM     24  C   UNL     1       2.210   3.147  21.586  0.00  0.00    +0.000 A 
ATOM     25  C   UNL     1       3.322   3.386  20.772  0.00  0.00    +0.000 A 
ENDBRANCH  19  20
BRANCH  19  26
ATOM     26  O   UNL     1       5.659   3.315  19.139  0.00  0.00    +0.000 OA
ATOM     27  H   UNL     1       6.278   4.014  18.873  0.00  0.00    +0.000 HD
ENDBRANCH  19  26
ENDBRANCH   2  19
TORSDOF 6
ENDMDL
MODEL 4
REMARK VINA RESULT:      -8.6      0.126      1.498
REMARK  Name = 
REMARK  7 active torsions:
REMARK  status: ('A' for Active; 'I' for Inactive)
REMARK    1  A    between atoms: C_1  and  C_2
REMARK    2  A    between atoms: C_2  and  C_3
REMARK    3  A    between atoms: C_2  and  C_10
REMARK    4  A    between atoms: C_2  and  C_19
REMARK    5  A    between atoms: C_3  and  C_4
REMARK    6  A    between atoms: C_19  and  O_20
REMARK    7  A    between atoms: C_19  and  C_21
REMARK                            x       y       z     vdW  Elec       q    Type
REMARK                         _______ _______ _______ _____ _____    ______ ____
ROOT
ATOM      1  C   UNL     1       5.240   5.831  18.637  0.00  0.00    +0.000 C 
ATOM      2  C   UNL     1       4.441   4.884  17.695  0.00  0.00    +0.000 C 
ENDROOT
BRANCH   2   3
ATOM      3  C   UNL     1       5.139   4.770  16.332  0.00  0.00    +0.000 C 
ATOM      4  C   UNL     1       6.122   5.566  15.871  0.00  0.00    +0.000 C 
ATOM      5  C   UNL     1       6.563   5.077  14.589  0.00  0.00    +0.000 A 
ATOM      6  C   UNL     1       7.631   5.498  13.820  0.00  0.00    +0.000 A 
ATOM      7  C   UNL     1       7.806   4.910  12.569  0.00  0.00    +0.000 A 
ATOM      8  C   UNL     1       6.904   3.934  12.111  0.00  0.00    +0.000 A 
ATOM      9  C   UNL     1       5.861   3.476  12.927  0.00  0.00    +0.000 A 
ATOM     10  C   UNL     1       5.725   4.034  14.185  0.00  0.00    +0.000 A 
ATOM     11  C   UNL     1       4.801   3.681  15.315  0.00  0.00    +0.000 C 
ENDBRANCH   2   3
BRANCH   2  12
ATOM     12  C   UNL     1       2.970   5.448  17.575  0.00  0.00    +0.000 C 
BRANCH  12  13
ATOM     13  C   UNL     1       2.511   6.695  18.331  0.00  0.00    +0.000 A 
ATOM     14  C   UNL     1       2.348   7.965  17.763  0.00  0.00    +0.000 A 
ATOM     15  C   UNL     1       1.922   9.055  18.524  0.00  0.00    +0.000 A 
ATOM     16  C   UNL     1       1.639   8.895  19.873  0.00  0.00    +0.000 A 
ATOM     17  C   UNL     1       1.762   7.640  20.459  0.00  0.00    +0.000 A 
ATOM     18  C   UNL     1       2.188   6.551  19.691  0.00  0.00    +0.000 A 
ENDBRANCH  12  13
ENDBRANCH   2  12
BRANCH   2  19
ATOM     19  C   UNL     1       4.398   3.477  18.435  0.00  0.00    +0.000 C 
BRANCH  19  20
ATOM     20  C   UNL     1       3.208   3.204  19.348  0.00  0.00    +0.000 A 
ATOM     21  C   UNL     1       3.358   3.339  20.739  0.00  0.00    +0.000 A 
ATOM     22  C   UNL     1       2.306   3.059  21.611  0.00  0.00    +0.000 A 
ATOM     23  C   UNL     1       1.072   2.665  21.105  0.00  0.00    +0.000 A 
ATOM     24  C   UNL     1       0.891   2.558  19.729  0.00  0.00    +0.000 A 
ATOM     25  C   UNL     1       1.951   2.821  18.856  0.00  0.00    +0.000 A 
ENDBRANCH  19  20
BRANCH  19  26
ATOM     26  O   UNL     1       5.636   3.263  19.134  0.00  0.00    +0.000 OA
ATOM     27  H   UNL     1       5.509   2.551  19.782  0.00  0.00    +0.000 HD
ENDBRANCH  19  26
ENDBRANCH   2  19
TORSDOF 6
ENDMDL
MODEL 5
REMARK VINA RESULT:      -8.4      0.440      1.039
REMARK  Name = 
REMARK  7 active torsions:
REMARK  status: ('A' for Active; 'I' for Inactive)
REMARK    1  A    between atoms: C_1  and  C_2
REMARK    2  A    between atoms: C_2  and  C_3
REMARK    3  A    between atoms: C_2  and  C_10
REMARK    4  A    between atoms: C_2  and  C_19
REMARK    5  A    between atoms: C_3  and  C_4
REMARK    6  A    between atoms: C_19  and  O_20
REMARK    7  A    between atoms: C_19  and  C_21
REMARK                            x       y       z     vdW  Elec       q    Type
REMARK                         _______ _______ _______ _____ _____    ______ ____
ROOT
ATOM      1  C   UNL     1       5.459   6.316  18.397  0.00  0.00    +0.000 C 
ATOM      2  C   UNL     1       4.711   5.156  17.679  0.00  0.00    +0.000 C 
ENDROOT
BRANCH   2   3
ATOM      3  C   UNL     1       5.337   4.884  16.304  0.00  0.00    +0.000 C 
ATOM      4  C   UNL     1       4.930   3.962  15.411  0.00  0.00    +0.000 C 
ATOM      5  C   UNL     1       5.724   4.082  14.214  0.00  0.00    +0.000 A 
ATOM      6  C   UNL     1       5.570   3.438  13.001  0.00  0.00    +0.000 A 
ATOM      7  C   UNL     1       6.524   3.671  12.013  0.00  0.00    +0.000 A 
ATOM      8  C   UNL     1       7.613   4.522  12.264  0.00  0.00    +0.000 A 
ATOM      9  C   UNL     1       7.724   5.213  13.478  0.00  0.00    +0.000 A 
ATOM     10  C   UNL     1       6.746   5.009  14.434  0.00  0.00    +0.000 A 
ATOM     11  C   UNL     1       6.525   5.678  15.761  0.00  0.00    +0.000 C 
ENDBRANCH   2   3
BRANCH   2  12
ATOM     12  C   UNL     1       3.184   5.552  17.579  0.00  0.00    +0.000 C 
BRANCH  12  13
ATOM     13  C   UNL     1       2.629   6.826  18.215  0.00  0.00    +0.000 A 
ATOM     14  C   UNL     1       2.423   8.036  17.542  0.00  0.00    +0.000 A 
ATOM     15  C   UNL     1       1.909   9.157  18.198  0.00  0.00    +0.000 A 
ATOM     16  C   UNL     1       1.579   9.087  19.544  0.00  0.00    +0.000 A 
ATOM     17  C   UNL     1       1.744   7.890  20.232  0.00  0.00    +0.000 A 
ATOM     18  C   UNL     1       2.259   6.770  19.570  0.00  0.00    +0.000 A 
ENDBRANCH  12  13
ENDBRANCH   2  12
BRANCH   2  19
ATOM     19  C   UNL     1       4.858   3.892  18.634  0.00  0.00    +0.000 C 
BRANCH  19  20
ATOM     20  C   UNL     1       3.601   3.406  19.347  0.00  0.00    +0.000 A 
ATOM     21  C   UNL     1       3.374   3.780  20.683  0.00  0.00    +0.000 A 
ATOM     22  C   UNL     1       2.258   3.323  21.383  0.00  0.00    +0.000 A 
ATOM     23  C   UNL     1       1.330   2.503  20.750  0.00  0.00    +0.000 A 
ATOM     24  C   UNL     1       1.516   2.148  19.417  0.00  0.00    +0.000 A 
ATOM     25  C   UNL     1       2.646   2.591  18.721  0.00  0.00    +0.000 A 
ENDBRANCH  19  20
BRANCH  19  26
ATOM     26  O   UNL     1       5.921   4.121  19.575  0.00  0.00    +0.000 OA
ATOM     27  H   UNL     1       6.217   5.042  19.492  0.00  0.00    +0.000 HD
ENDBRANCH  19  26
ENDBRANCH   2  19
TORSDOF 6
ENDMDL
MODEL 6
REMARK VINA RESULT:      -8.1      1.414      6.576
REMARK  Name = 
REMARK  7 active torsions:
REMARK  status: ('A' for Active; 'I' for Inactive)
REMARK    1  A    between atoms: C_1  and  C_2
REMARK    2  A    between atoms: C_2  and  C_3
REMARK    3  A    between atoms: C_2  and  C_10
REMARK    4  A    between atoms: C_2  and  C_19
REMARK    5  A    between atoms: C_3  and  C_4
REMARK    6  A    between atoms: C_19  and  O_20
REMARK    7  A    between atoms: C_19  and  C_21
REMARK                            x       y       z     vdW  Elec       q    Type
REMARK                         _______ _______ _______ _____ _____    ______ ____
ROOT
ATOM      1  C   UNL     1       6.526   5.195  18.454  0.00  0.00    +0.000 C 
ATOM      2  C   UNL     1       5.398   5.371  17.395  0.00  0.00    +0.000 C 
ENDROOT
BRANCH   2   3
ATOM      3  C   UNL     1       4.315   6.324  17.920  0.00  0.00    +0.000 C 
ATOM      4  C   UNL     1       3.822   7.401  17.278  0.00  0.00    +0.000 C 
ATOM      5  C   UNL     1       2.764   7.977  18.069  0.00  0.00    +0.000 A 
ATOM      6  C   UNL     1       1.895   9.002  17.742  0.00  0.00    +0.000 A 
ATOM      7  C   UNL     1       1.000   9.433  18.717  0.00  0.00    +0.000 A 
ATOM      8  C   UNL     1       1.004   8.846  19.995  0.00  0.00    +0.000 A 
ATOM      9  C   UNL     1       1.850   7.770  20.292  0.00  0.00    +0.000 A 
ATOM     10  C   UNL     1       2.703   7.320  19.300  0.00  0.00    +0.000 A 
ATOM     11  C   UNL     1       3.626   6.136  19.271  0.00  0.00    +0.000 C 
ENDBRANCH   2   3
BRANCH   2  12
ATOM     12  C   UNL     1       4.827   3.938  17.053  0.00  0.00    +0.000 C 
BRANCH  12  13
ATOM     13  C   UNL     1       3.652   3.325  17.815  0.00  0.00    +0.000 A 
ATOM     14  C   UNL     1       2.310   3.410  17.426  0.00  0.00    +0.000 A 
ATOM     15  C   UNL     1       1.294   2.819  18.179  0.00  0.00    +0.000 A 
ATOM     16  C   UNL     1       1.601   2.119  19.338  0.00  0.00    +0.000 A 
ATOM     17  C   UNL     1       2.927   1.993  19.734  0.00  0.00    +0.000 A 
ATOM     18  C   UNL     1       3.942   2.586  18.975  0.00  0.00    +0.000 A 
ENDBRANCH  12  13
ENDBRANCH   2  12
BRANCH   2  19
ATOM     19  C   UNL     1       6.109   5.968  16.104  0.00  0.00    +0.000 C 
BRANCH  19  20
ATOM     20  C   UNL     1       6.119   5.104  14.849  0.00  0.00    +0.000 A 
ATOM     21  C   UNL     1       7.307   4.971  14.109  0.00  0.00    +0.000 A 
ATOM     22  C   UNL     1       7.348   4.222  12.933  0.00  0.00    +0.000 A 
ATOM     23  C   UNL     1       6.205   3.566  12.488  0.00  0.00    +0.000 A 
ATOM     24  C   UNL     1       5.026   3.655  13.224  0.00  0.00    +0.000 A 
ATOM     25  C   UNL     1       4.981   4.421  14.393  0.00  0.00    +0.000 A 
ENDBRANCH  19  20
BRANCH  19  26
ATOM     26  O   UNL     1       7.442   6.392  16.441  0.00  0.00    +0.000 OA
ATOM     27  H   UNL     1       8.070   5.722  16.127  0.00  0.00    +0.000 HD
ENDBRANCH  19  26
ENDBRANCH   2  19
TORSDOF 6
ENDMDL
MODEL 7
REMARK VINA RESULT:      -8.0      1.974      5.332
REMARK  Name = 
REMARK  7 active torsions:
REMARK  status: ('A' for Active; 'I' for Inactive)
REMARK    1  A    between atoms: C_1  and  C_2
REMARK    2  A    between atoms: C_2  and  C_3
REMARK    3  A    between atoms: C_2  and  C_10
REMARK    4  A    between atoms: C_2  and  C_19
REMARK    5  A    between atoms: C_3  and  C_4
REMARK    6  A    between atoms: C_19  and  O_20
REMARK    7  A    between atoms: C_19  and  C_21
REMARK                            x       y       z     vdW  Elec       q    Type
REMARK                         _______ _______ _______ _____ _____    ______ ____
ROOT
ATOM      1  C   UNL     1       4.432   4.515  15.960  0.00  0.00    +0.000 C 
ATOM      2  C   UNL     1       4.279   4.437  17.507  0.00  0.00    +0.000 C 
ENDROOT
BRANCH   2   3
ATOM      3  C   UNL     1       3.518   5.662  18.033  0.00  0.00    +0.000 C 
ATOM      4  C   UNL     1       3.120   6.725  17.307  0.00  0.00    +0.000 C 
ATOM      5  C   UNL     1       2.364   7.616  18.151  0.00  0.00    +0.000 A 
ATOM      6  C   UNL     1       1.657   8.751  17.802  0.00  0.00    +0.000 A 
ATOM      7  C   UNL     1       1.066   9.491  18.823  0.00  0.00    +0.000 A 
ATOM      8  C   UNL     1       1.210   9.093  20.164  0.00  0.00    +0.000 A 
ATOM      9  C   UNL     1       1.881   7.908  20.496  0.00  0.00    +0.000 A 
ATOM     10  C   UNL     1       2.423   7.157  19.469  0.00  0.00    +0.000 A 
ATOM     11  C   UNL     1       3.084   5.808  19.491  0.00  0.00    +0.000 C 
ENDBRANCH   2   3
BRANCH   2  12
ATOM     12  C   UNL     1       5.725   4.311  18.132  0.00  0.00    +0.000 C 
BRANCH  12  13
ATOM     13  C   UNL     1       6.659   5.513  18.274  0.00  0.00    +0.000 A 
ATOM     14  C   UNL     1       7.546   5.720  19.336  0.00  0.00    +0.000 A 
ATOM     15  C   UNL     1       8.370   6.847  19.390  0.00  0.00    +0.000 A 
ATOM     16  C   UNL     1       8.329   7.789  18.371  0.00  0.00    +0.000 A 
ATOM     17  C   UNL     1       7.480   7.595  17.288  0.00  0.00    +0.000 A 
ATOM     18  C   UNL     1       6.658   6.464  17.239  0.00  0.00    +0.000 A 
ENDBRANCH  12  13
ENDBRANCH   2  12
BRANCH   2  19
ATOM     19  C   UNL     1       3.472   3.096  17.793  0.00  0.00    +0.000 C 
BRANCH  19  20
ATOM     20  C   UNL     1       2.686   3.018  19.096  0.00  0.00    +0.000 A 
ATOM     21  C   UNL     1       3.362   2.739  20.297  0.00  0.00    +0.000 A 
ATOM     22  C   UNL     1       2.674   2.619  21.504  0.00  0.00    +0.000 A 
ATOM     23  C   UNL     1       1.296   2.805  21.539  0.00  0.00    +0.000 A 
ATOM     24  C   UNL     1       0.611   3.117  20.368  0.00  0.00    +0.000 A 
ATOM     25  C   UNL     1       1.298   3.218  19.154  0.00  0.00    +0.000 A 
ENDBRANCH  19  20
BRANCH  19  26
ATOM     26  O   UNL     1       4.352   1.967  17.660  0.00  0.00    +0.000 OA
ATOM     27  H   UNL     1       4.117   1.309  18.334  0.00  0.00    +0.000 HD
ENDBRANCH  19  26
ENDBRANCH   2  19
TORSDOF 6
ENDMDL
MODEL 8
REMARK VINA RESULT:      -8.0      1.396      6.531
REMARK  Name = 
REMARK  7 active torsions:
REMARK  status: ('A' for Active; 'I' for Inactive)
REMARK    1  A    between atoms: C_1  and  C_2
REMARK    2  A    between atoms: C_2  and  C_3
REMARK    3  A    between atoms: C_2  and  C_10
REMARK    4  A    between atoms: C_2  and  C_19
REMARK    5  A    between atoms: C_3  and  C_4
REMARK    6  A    between atoms: C_19  and  O_20
REMARK    7  A    between atoms: C_19  and  C_21
REMARK                            x       y       z     vdW  Elec       q    Type
REMARK                         _______ _______ _______ _____ _____    ______ ____
ROOT
ATOM      1  C   UNL     1       6.444   5.214  18.487  0.00  0.00    +0.000 C 
ATOM      2  C   UNL     1       5.347   5.373  17.393  0.00  0.00    +0.000 C 
ENDROOT
BRANCH   2   3
ATOM      3  C   UNL     1       4.242   6.322  17.877  0.00  0.00    +0.000 C 
ATOM      4  C   UNL     1       3.558   6.225  19.033  0.00  0.00    +0.000 C 
ATOM      5  C   UNL     1       2.670   7.355  19.152  0.00  0.00    +0.000 A 
ATOM      6  C   UNL     1       1.886   7.734  20.224  0.00  0.00    +0.000 A 
ATOM      7  C   UNL     1       1.048   8.835  20.063  0.00  0.00    +0.000 A 
ATOM      8  C   UNL     1       1.000   9.517  18.835  0.00  0.00    +0.000 A 
ATOM      9  C   UNL     1       1.844   9.156  17.776  0.00  0.00    +0.000 A 
ATOM     10  C   UNL     1       2.705   8.090  17.964  0.00  0.00    +0.000 A 
ATOM     11  C   UNL     1       3.793   7.547  17.081  0.00  0.00    +0.000 C 
ENDBRANCH   2   3
BRANCH   2  12
ATOM     12  C   UNL     1       4.797   3.933  17.046  0.00  0.00    +0.000 C 
BRANCH  12  13
ATOM     13  C   UNL     1       3.740   3.236  17.902  0.00  0.00    +0.000 A 
ATOM     14  C   UNL     1       3.984   2.617  19.135  0.00  0.00    +0.000 A 
ATOM     15  C   UNL     1       2.959   2.003  19.857  0.00  0.00    +0.000 A 
ATOM     16  C   UNL     1       1.662   2.002  19.365  0.00  0.00    +0.000 A 
ATOM     17  C   UNL     1       1.383   2.634  18.158  0.00  0.00    +0.000 A 
ATOM     18  C   UNL     1       2.413   3.249  17.439  0.00  0.00    +0.000 A 
ENDBRANCH  12  13
ENDBRANCH   2  12
BRANCH   2  19
ATOM     19  C   UNL     1       6.093   5.965  16.119  0.00  0.00    +0.000 C 
BRANCH  19  20
ATOM     20  C   UNL     1       6.114   5.106  14.860  0.00  0.00    +0.000 A 
ATOM     21  C   UNL     1       7.303   4.995  14.117  0.00  0.00    +0.000 A 
ATOM     22  C   UNL     1       7.353   4.252  12.938  0.00  0.00    +0.000 A 
ATOM     23  C   UNL     1       6.220   3.580  12.493  0.00  0.00    +0.000 A 
ATOM     24  C   UNL     1       5.041   3.647  13.231  0.00  0.00    +0.000 A 
ATOM     25  C   UNL     1       4.986   4.408  14.403  0.00  0.00    +0.000 A 
ENDBRANCH  19  20
BRANCH  19  26
ATOM     26  O   UNL     1       7.424   6.367  16.484  0.00  0.00    +0.000 OA
ATOM     27  H   UNL     1       8.043   5.665  16.226  0.00  0.00    +0.000 HD
ENDBRANCH  19  26
ENDBRANCH   2  19
TORSDOF 6
ENDMDL
MODEL 9
REMARK VINA RESULT:      -7.9      1.425      6.552
REMARK  Name = 
REMARK  7 active torsions:
REMARK  status: ('A' for Active; 'I' for Inactive)
REMARK    1  A    between atoms: C_1  and  C_2
REMARK    2  A    between atoms: C_2  and  C_3
REMARK    3  A    between atoms: C_2  and  C_10
REMARK    4  A    between atoms: C_2  and  C_19
REMARK    5  A    between atoms: C_3  and  C_4
REMARK    6  A    between atoms: C_19  and  O_20
REMARK    7  A    between atoms: C_19  and  C_21
REMARK                            x       y       z     vdW  Elec       q    Type
REMARK                         _______ _______ _______ _____ _____    ______ ____
ROOT
ATOM      1  C   UNL     1       6.472   5.121  18.455  0.00  0.00    +0.000 C 
ATOM      2  C   UNL     1       5.371   5.350  17.378  0.00  0.00    +0.000 C 
ENDROOT
BRANCH   2   3
ATOM      3  C   UNL     1       4.302   6.319  17.902  0.00  0.00    +0.000 C 
ATOM      4  C   UNL     1       3.835   7.410  17.265  0.00  0.00    +0.000 C 
ATOM      5  C   UNL     1       2.782   8.001  18.053  0.00  0.00    +0.000 A 
ATOM      6  C   UNL     1       1.935   9.044  17.728  0.00  0.00    +0.000 A 
ATOM      7  C   UNL     1       1.041   9.485  18.700  0.00  0.00    +0.000 A 
ATOM      8  C   UNL     1       1.026   8.890  19.973  0.00  0.00    +0.000 A 
ATOM      9  C   UNL     1       1.849   7.795  20.268  0.00  0.00    +0.000 A 
ATOM     10  C   UNL     1       2.700   7.336  19.279  0.00  0.00    +0.000 A 
ATOM     11  C   UNL     1       3.601   6.135  19.248  0.00  0.00    +0.000 C 
ENDBRANCH   2   3
BRANCH   2  12
ATOM     12  C   UNL     1       4.770   3.940  16.993  0.00  0.00    +0.000 C 
BRANCH  12  13
ATOM     13  C   UNL     1       3.683   3.262  17.827  0.00  0.00    +0.000 A 
ATOM     14  C   UNL     1       3.912   2.500  18.979  0.00  0.00    +0.000 A 
ATOM     15  C   UNL     1       2.860   1.915  19.687  0.00  0.00    +0.000 A 
ATOM     16  C   UNL     1       1.551   2.087  19.260  0.00  0.00    +0.000 A 
ATOM     17  C   UNL     1       1.290   2.862  18.137  0.00  0.00    +0.000 A 
ATOM     18  C   UNL     1       2.347   3.448  17.432  0.00  0.00    +0.000 A 
ENDBRANCH  12  13
ENDBRANCH   2  12
BRANCH   2  19
ATOM     19  C   UNL     1       6.123   5.956  16.115  0.00  0.00    +0.000 C 
BRANCH  19  20
ATOM     20  C   UNL     1       6.141   5.116  14.843  0.00  0.00    +0.000 A 
ATOM     21  C   UNL     1       4.956   4.503  14.401  0.00  0.00    +0.000 A 
ATOM     22  C   UNL     1       4.939   3.694  13.265  0.00  0.00    +0.000 A 
ATOM     23  C   UNL     1       6.105   3.504  12.531  0.00  0.00    +0.000 A 
ATOM     24  C   UNL     1       7.283   4.130  12.931  0.00  0.00    +0.000 A 
ATOM     25  C   UNL     1       7.304   4.926  14.081  0.00  0.00    +0.000 A 
ENDBRANCH  19  20
BRANCH  19  26
ATOM     26  O   UNL     1       7.457   6.343  16.489  0.00  0.00    +0.000 OA
ATOM     27  H   UNL     1       7.981   6.471  15.682  0.00  0.00    +0.000 HD
ENDBRANCH  19  26
ENDBRANCH   2  19
TORSDOF 6
ENDMDL
