MODEL 1
REMARK VINA RESULT:      -8.3      0.000      0.000
REMARK  Name = 
REMARK  7 active torsions:
REMARK  status: ('A' for Active; 'I' for Inactive)
REMARK    1  A    between atoms: C_1  and  C_2
REMARK    2  A    between atoms: C_4  and  C_5
REMARK    3  A    between atoms: N_7  and  C_8
REMARK    4  A    between atoms: C_11  and  C_12
REMARK    5  A    between atoms: C_12  and  O_14
REMARK    6  A    between atoms: N_18  and  C_19
REMARK    7  A    between atoms: C_19  and  C_20
REMARK                            x       y       z     vdW  Elec       q    Type
REMARK                         _______ _______ _______ _____ _____    ______ ____
ROOT
ATOM      1  C   UNL     1      -0.369   9.696  23.452  0.00  0.00    +0.000 C 
ATOM      2  C   UNL     1       0.002   9.671  22.017  0.00  0.00    +0.000 A 
ATOM      3  C   UNL     1       0.914   8.798  21.359  0.00  0.00    +0.000 A 
ATOM      4  C   UNL     1       0.967   9.130  20.011  0.00  0.00    +0.000 A 
ATOM      5  N   UNL     1       0.073  10.181  19.839  0.00  0.00    +0.000 N 
ATOM      6  C   UNL     1      -0.495  10.510  21.046  0.00  0.00    +0.000 A 
ENDROOT
BRANCH   4   7
ATOM      7  C   UNL     1       1.720   8.541  18.913  0.00  0.00    +0.000 C 
ATOM      8  O   UNL     1       1.807   9.109  17.831  0.00  0.00    +0.000 OA
ATOM      9  N   UNL     1       2.322   7.321  19.185  0.00  0.00    +0.000 N 
ATOM     10  H   UNL     1       2.105   6.889  20.074  0.00  0.00    +0.000 HD
BRANCH   9  11
ATOM     11  C   UNL     1       3.114   6.581  18.274  0.00  0.00    +0.000 A 
ATOM     12  C   UNL     1       2.815   5.268  17.895  0.00  0.00    +0.000 A 
ATOM     13  C   UNL     1       3.674   4.534  17.072  0.00  0.00    +0.000 A 
ATOM     14  C   UNL     1       4.855   5.106  16.598  0.00  0.00    +0.000 A 
ATOM     15  C   UNL     1       5.123   6.433  16.930  0.00  0.00    +0.000 A 
ATOM     16  F   UNL     1       6.248   7.024  16.490  0.00  0.00    +0.000 F 
ATOM     17  C   UNL     1       4.261   7.179  17.743  0.00  0.00    +0.000 A 
BRANCH  14  18
ATOM     18  C   UNL     1       5.756   4.261  15.773  0.00  0.00    +0.000 C 
ATOM     19  O   UNL     1       5.483   3.956  14.625  0.00  0.00    +0.000 OA
BRANCH  18  20
ATOM     20  O   UNL     1       6.890   3.846  16.374  0.00  0.00    +0.000 OA
ATOM     21  H   UNL     1       6.772   3.243  17.133  0.00  0.00    +0.000 HD
ENDBRANCH  18  20
ENDBRANCH  14  18
ENDBRANCH   9  11
ENDBRANCH   4   7
BRANCH   5  22
ATOM     22  C   UNL     1      -0.157  10.953  18.617  0.00  0.00    +0.000 C 
BRANCH  22  23
ATOM     23  C   UNL     1      -1.534  10.768  18.068  0.00  0.00    +0.000 A 
ATOM     24  C   UNL     1      -1.859  10.011  16.962  0.00  0.00    +0.000 A 
ATOM     25  S   UNL     1      -3.529  10.099  16.655  0.00  0.00    +0.000 S 
ATOM     26  C   UNL     1      -3.744  11.148  18.023  0.00  0.00    +0.000 A 
ATOM     27  N   UNL     1      -4.969  11.595  18.419  0.00  0.00    +0.000 N 
ATOM     28  C   UNL     1      -6.084  11.765  17.494  0.00  0.00    +0.000 C 
ATOM     29  C   UNL     1      -6.412  13.251  17.362  0.00  0.00    +0.000 C 
ATOM     30  C   UNL     1      -6.681  13.875  18.730  0.00  0.00    +0.000 C 
ATOM     31  C   UNL     1      -5.514  13.623  19.686  0.00  0.00    +0.000 C 
ATOM     32  C   UNL     1      -5.155  12.139  19.760  0.00  0.00    +0.000 C 
ATOM     33  N   UNL     1      -2.615  11.426  18.647  0.00  0.00    +0.000 NA
ENDBRANCH  22  23
ENDBRANCH   5  22
TORSDOF 6
ENDMDL
MODEL 2
REMARK VINA RESULT:      -8.2      0.877      1.219
REMARK  Name = 
REMARK  7 active torsions:
REMARK  status: ('A' for Active; 'I' for Inactive)
REMARK    1  A    between atoms: C_1  and  C_2
REMARK    2  A    between atoms: C_4  and  C_5
REMARK    3  A    between atoms: N_7  and  C_8
REMARK    4  A    between atoms: C_11  and  C_12
REMARK    5  A    between atoms: C_12  and  O_14
REMARK    6  A    between atoms: N_18  and  C_19
REMARK    7  A    between atoms: C_19  and  C_20
REMARK                            x       y       z     vdW  Elec       q    Type
REMARK                         _______ _______ _______ _____ _____    ______ ____
ROOT
ATOM      1  C   UNL     1      -0.398   9.646  23.305  0.00  0.00    +0.000 C 
ATOM      2  C   UNL     1      -0.003   9.626  21.876  0.00  0.00    +0.000 A 
ATOM      3  C   UNL     1       0.946   8.780  21.238  0.00  0.00    +0.000 A 
ATOM      4  C   UNL     1       1.009   9.106  19.889  0.00  0.00    +0.000 A 
ATOM      5  N   UNL     1       0.085  10.126  19.697  0.00  0.00    +0.000 N 
ATOM      6  C   UNL     1      -0.512  10.444  20.893  0.00  0.00    +0.000 A 
ENDROOT
BRANCH   4   7
ATOM      7  C   UNL     1       1.799   8.536  18.806  0.00  0.00    +0.000 C 
ATOM      8  O   UNL     1       1.847   9.077  17.709  0.00  0.00    +0.000 OA
ATOM      9  N   UNL     1       2.478   7.365  19.111  0.00  0.00    +0.000 N 
ATOM     10  H   UNL     1       2.290   6.945  20.013  0.00  0.00    +0.000 HD
BRANCH   9  11
ATOM     11  C   UNL     1       3.315   6.652  18.219  0.00  0.00    +0.000 A 
ATOM     12  C   UNL     1       4.290   7.272  17.429  0.00  0.00    +0.000 A 
ATOM     13  C   UNL     1       5.030   6.551  16.487  0.00  0.00    +0.000 A 
ATOM     14  C   UNL     1       4.816   5.182  16.321  0.00  0.00    +0.000 A 
ATOM     15  C   UNL     1       3.885   4.557  17.148  0.00  0.00    +0.000 A 
ATOM     16  F   UNL     1       3.650   3.238  17.023  0.00  0.00    +0.000 F 
ATOM     17  C   UNL     1       3.149   5.269  18.103  0.00  0.00    +0.000 A 
BRANCH  14  18
ATOM     18  C   UNL     1       5.590   4.480  15.267  0.00  0.00    +0.000 C 
ATOM     19  O   UNL     1       5.162   4.344  14.134  0.00  0.00    +0.000 OA
BRANCH  18  20
ATOM     20  O   UNL     1       6.792   3.995  15.640  0.00  0.00    +0.000 OA
ATOM     21  H   UNL     1       7.253   4.495  16.342  0.00  0.00    +0.000 HD
ENDBRANCH  18  20
ENDBRANCH  14  18
ENDBRANCH   9  11
ENDBRANCH   4   7
BRANCH   5  22
ATOM     22  C   UNL     1      -0.150  10.884  18.468  0.00  0.00    +0.000 C 
BRANCH  22  23
ATOM     23  C   UNL     1      -1.550  10.747  17.964  0.00  0.00    +0.000 A 
ATOM     24  C   UNL     1      -1.936  10.013  16.862  0.00  0.00    +0.000 A 
ATOM     25  S   UNL     1      -3.611  10.154  16.614  0.00  0.00    +0.000 S 
ATOM     26  C   UNL     1      -3.748  11.194  17.999  0.00  0.00    +0.000 A 
ATOM     27  N   UNL     1      -4.945  11.673  18.440  0.00  0.00    +0.000 N 
ATOM     28  C   UNL     1      -6.085  11.887  17.556  0.00  0.00    +0.000 C 
ATOM     29  C   UNL     1      -6.372  13.383  17.450  0.00  0.00    +0.000 C 
ATOM     30  C   UNL     1      -6.575  14.000  18.833  0.00  0.00    +0.000 C 
ATOM     31  C   UNL     1      -5.384  13.702  19.745  0.00  0.00    +0.000 C 
ATOM     32  C   UNL     1      -5.069  12.207  19.792  0.00  0.00    +0.000 C 
ATOM     33  N   UNL     1      -2.591  11.431  18.586  0.00  0.00    +0.000 NA
ENDBRANCH  22  23
ENDBRANCH   5  22
TORSDOF 6
ENDMDL
MODEL 3
REMARK VINA RESULT:      -8.0      2.971      4.650
REMARK  Name = 
REMARK  7 active torsions:
REMARK  status: ('A' for Active; 'I' for Inactive)
REMARK    1  A    between atoms: C_1  and  C_2
REMARK    2  A    between atoms: C_4  and  C_5
REMARK    3  A    between atoms: N_7  and  C_8
REMARK    4  A    between atoms: C_11  and  C_12
REMARK    5  A    between atoms: C_12  and  O_14
REMARK    6  A    between atoms: N_18  and  C_19
REMARK    7  A    between atoms: C_19  and  C_20
REMARK                            x       y       z     vdW  Elec       q    Type
REMARK                         _______ _______ _______ _____ _____    ______ ____
ROOT
ATOM      1  C   UNL     1      -0.074   9.302  23.423  0.00  0.00    +0.000 C 
ATOM      2  C   UNL     1       0.285   9.287  21.985  0.00  0.00    +0.000 A 
ATOM      3  C   UNL     1       1.267   8.490  21.332  0.00  0.00    +0.000 A 
ATOM      4  C   UNL     1       1.276   8.801  19.978  0.00  0.00    +0.000 A 
ATOM      5  N   UNL     1       0.287   9.760  19.798  0.00  0.00    +0.000 N 
ATOM      6  C   UNL     1      -0.298  10.057  21.005  0.00  0.00    +0.000 A 
ENDROOT
BRANCH   4   7
ATOM      7  C   UNL     1       2.071   8.264  18.882  0.00  0.00    +0.000 C 
ATOM      8  O   UNL     1       2.278   8.923  17.871  0.00  0.00    +0.000 OA
ATOM      9  N   UNL     1       2.568   6.983  19.073  0.00  0.00    +0.000 N 
ATOM     10  H   UNL     1       2.256   6.486  19.898  0.00  0.00    +0.000 HD
BRANCH   9  11
ATOM     11  C   UNL     1       3.377   6.276  18.150  0.00  0.00    +0.000 A 
ATOM     12  C   UNL     1       3.085   4.978  17.719  0.00  0.00    +0.000 A 
ATOM     13  C   UNL     1       3.959   4.274  16.885  0.00  0.00    +0.000 A 
ATOM     14  C   UNL     1       5.149   4.862  16.454  0.00  0.00    +0.000 A 
ATOM     15  C   UNL     1       5.411   6.176  16.840  0.00  0.00    +0.000 A 
ATOM     16  F   UNL     1       6.544   6.782  16.444  0.00  0.00    +0.000 F 
ATOM     17  C   UNL     1       4.534   6.892  17.664  0.00  0.00    +0.000 A 
BRANCH  14  18
ATOM     18  C   UNL     1       6.065   4.047  15.617  0.00  0.00    +0.000 C 
ATOM     19  O   UNL     1       6.885   4.558  14.873  0.00  0.00    +0.000 OA
BRANCH  18  20
ATOM     20  O   UNL     1       5.930   2.710  15.723  0.00  0.00    +0.000 OA
ATOM     21  H   UNL     1       6.715   2.228  16.050  0.00  0.00    +0.000 HD
ENDBRANCH  18  20
ENDBRANCH  14  18
ENDBRANCH   9  11
ENDBRANCH   4   7
BRANCH   5  22
ATOM     22  C   UNL     1      -0.026  10.484  18.565  0.00  0.00    +0.000 C 
BRANCH  22  23
ATOM     23  C   UNL     1       0.050  11.966  18.732  0.00  0.00    +0.000 A 
ATOM     24  C   UNL     1      -1.031  12.823  18.777  0.00  0.00    +0.000 A 
ATOM     25  S   UNL     1      -0.506  14.431  18.939  0.00  0.00    +0.000 S 
ATOM     26  C   UNL     1       1.151  13.909  18.944  0.00  0.00    +0.000 A 
ATOM     27  N   UNL     1       2.191  14.773  19.115  0.00  0.00    +0.000 N 
ATOM     28  C   UNL     1       2.124  16.177  18.727  0.00  0.00    +0.000 C 
ATOM     29  C   UNL     1       3.081  16.428  17.563  0.00  0.00    +0.000 C 
ATOM     30  C   UNL     1       4.499  15.982  17.916  0.00  0.00    +0.000 C 
ATOM     31  C   UNL     1       4.516  14.522  18.374  0.00  0.00    +0.000 C 
ATOM     32  C   UNL     1       3.508  14.272  19.495  0.00  0.00    +0.000 C 
ATOM     33  N   UNL     1       1.285  12.604  18.807  0.00  0.00    +0.000 NA
ENDBRANCH  22  23
ENDBRANCH   5  22
TORSDOF 6
ENDMDL
MODEL 4
REMARK VINA RESULT:      -7.8      3.180      4.880
REMARK  Name = 
REMARK  7 active torsions:
REMARK  status: ('A' for Active; 'I' for Inactive)
REMARK    1  A    between atoms: C_1  and  C_2
REMARK    2  A    between atoms: C_4  and  C_5
REMARK    3  A    between atoms: N_7  and  C_8
REMARK    4  A    between atoms: C_11  and  C_12
REMARK    5  A    between atoms: C_12  and  O_14
REMARK    6  A    between atoms: N_18  and  C_19
REMARK    7  A    between atoms: C_19  and  C_20
REMARK                            x       y       z     vdW  Elec       q    Type
REMARK                         _______ _______ _______ _____ _____    ______ ____
ROOT
ATOM      1  C   UNL     1      -0.296   9.327  23.134  0.00  0.00    +0.000 C 
ATOM      2  C   UNL     1       0.122   9.350  21.712  0.00  0.00    +0.000 A 
ATOM      3  C   UNL     1       1.083   8.522  21.064  0.00  0.00    +0.000 A 
ATOM      4  C   UNL     1       1.168   8.889  19.727  0.00  0.00    +0.000 A 
ATOM      5  N   UNL     1       0.246   9.914  19.550  0.00  0.00    +0.000 N 
ATOM      6  C   UNL     1      -0.370  10.196  20.745  0.00  0.00    +0.000 A 
ENDROOT
BRANCH   4   7
ATOM      7  C   UNL     1       1.976   8.351  18.641  0.00  0.00    +0.000 C 
ATOM      8  O   UNL     1       1.929   8.839  17.519  0.00  0.00    +0.000 OA
ATOM      9  N   UNL     1       2.785   7.274  18.972  0.00  0.00    +0.000 N 
ATOM     10  H   UNL     1       2.674   6.882  19.899  0.00  0.00    +0.000 HD
BRANCH   9  11
ATOM     11  C   UNL     1       3.663   6.609  18.081  0.00  0.00    +0.000 A 
ATOM     12  C   UNL     1       4.675   7.268  17.375  0.00  0.00    +0.000 A 
ATOM     13  C   UNL     1       5.457   6.598  16.430  0.00  0.00    +0.000 A 
ATOM     14  C   UNL     1       5.248   5.242  16.175  0.00  0.00    +0.000 A 
ATOM     15  C   UNL     1       4.277   4.575  16.919  0.00  0.00    +0.000 A 
ATOM     16  F   UNL     1       4.046   3.267  16.708  0.00  0.00    +0.000 F 
ATOM     17  C   UNL     1       3.499   5.236  17.878  0.00  0.00    +0.000 A 
BRANCH  14  18
ATOM     18  C   UNL     1       6.070   4.597  15.120  0.00  0.00    +0.000 C 
ATOM     19  O   UNL     1       6.044   3.394  14.927  0.00  0.00    +0.000 OA
BRANCH  18  20
ATOM     20  O   UNL     1       6.852   5.421  14.394  0.00  0.00    +0.000 OA
ATOM     21  H   UNL     1       7.575   4.992  13.896  0.00  0.00    +0.000 HD
ENDBRANCH  18  20
ENDBRANCH  14  18
ENDBRANCH   9  11
ENDBRANCH   4   7
BRANCH   5  22
ATOM     22  C   UNL     1       0.031  10.708  18.339  0.00  0.00    +0.000 C 
BRANCH  22  23
ATOM     23  C   UNL     1       0.112  12.178  18.591  0.00  0.00    +0.000 A 
ATOM     24  C   UNL     1      -0.963  13.040  18.649  0.00  0.00    +0.000 A 
ATOM     25  S   UNL     1      -0.432  14.632  18.918  0.00  0.00    +0.000 S 
ATOM     26  C   UNL     1       1.220  14.095  18.946  0.00  0.00    +0.000 A 
ATOM     27  N   UNL     1       2.260  14.939  19.198  0.00  0.00    +0.000 N 
ATOM     28  C   UNL     1       2.216  16.362  18.887  0.00  0.00    +0.000 C 
ATOM     29  C   UNL     1       3.212  16.670  17.770  0.00  0.00    +0.000 C 
ATOM     30  C   UNL     1       4.614  16.192  18.143  0.00  0.00    +0.000 C 
ATOM     31  C   UNL     1       4.605  14.709  18.519  0.00  0.00    +0.000 C 
ATOM     32  C   UNL     1       3.560  14.405  19.592  0.00  0.00    +0.000 C 
ATOM     33  N   UNL     1       1.349  12.798  18.741  0.00  0.00    +0.000 NA
ENDBRANCH  22  23
ENDBRANCH   5  22
TORSDOF 6
ENDMDL
MODEL 5
REMARK VINA RESULT:      -7.8      4.941      8.718
REMARK  Name = 
REMARK  7 active torsions:
REMARK  status: ('A' for Active; 'I' for Inactive)
REMARK    1  A    between atoms: C_1  and  C_2
REMARK    2  A    between atoms: C_4  and  C_5
REMARK    3  A    between atoms: N_7  and  C_8
REMARK    4  A    between atoms: C_11  and  C_12
REMARK    5  A    between atoms: C_12  and  O_14
REMARK    6  A    between atoms: N_18  and  C_19
REMARK    7  A    between atoms: C_19  and  C_20
REMARK                            x       y       z     vdW  Elec       q    Type
REMARK                         _______ _______ _______ _____ _____    ______ ____
ROOT
ATOM      1  C   UNL     1       1.844   7.451  20.542  0.00  0.00    +0.000 C 
ATOM      2  C   UNL     1       1.171   8.772  20.505  0.00  0.00    +0.000 A 
ATOM      3  C   UNL     1       0.687   9.543  21.599  0.00  0.00    +0.000 A 
ATOM      4  C   UNL     1       0.120  10.714  21.112  0.00  0.00    +0.000 A 
ATOM      5  N   UNL     1       0.282  10.674  19.732  0.00  0.00    +0.000 N 
ATOM      6  C   UNL     1       0.902   9.502  19.371  0.00  0.00    +0.000 A 
ENDROOT
BRANCH   4   7
ATOM      7  C   UNL     1      -0.494  11.837  21.808  0.00  0.00    +0.000 C 
ATOM      8  O   UNL     1       0.186  12.760  22.238  0.00  0.00    +0.000 OA
ATOM      9  N   UNL     1      -1.874  11.781  21.935  0.00  0.00    +0.000 N 
ATOM     10  H   UNL     1      -2.330  10.928  21.636  0.00  0.00    +0.000 HD
BRANCH   9  11
ATOM     11  C   UNL     1      -2.676  12.769  22.556  0.00  0.00    +0.000 A 
ATOM     12  C   UNL     1      -3.486  12.507  23.666  0.00  0.00    +0.000 A 
ATOM     13  C   UNL     1      -4.340  13.481  24.191  0.00  0.00    +0.000 A 
ATOM     14  C   UNL     1      -4.396  14.752  23.617  0.00  0.00    +0.000 A 
ATOM     15  C   UNL     1      -3.548  15.028  22.547  0.00  0.00    +0.000 A 
ATOM     16  F   UNL     1      -3.567  16.242  21.967  0.00  0.00    +0.000 F 
ATOM     17  C   UNL     1      -2.680  14.062  22.024  0.00  0.00    +0.000 A 
BRANCH  14  18
ATOM     18  C   UNL     1      -5.363  15.728  24.181  0.00  0.00    +0.000 C 
ATOM     19  O   UNL     1      -6.525  15.768  23.817  0.00  0.00    +0.000 OA
BRANCH  18  20
ATOM     20  O   UNL     1      -4.875  16.572  25.113  0.00  0.00    +0.000 OA
ATOM     21  H   UNL     1      -5.172  17.500  25.043  0.00  0.00    +0.000 HD
ENDBRANCH  18  20
ENDBRANCH  14  18
ENDBRANCH   9  11
ENDBRANCH   4   7
BRANCH   5  22
ATOM     22  C   UNL     1      -0.241  11.629  18.755  0.00  0.00    +0.000 C 
BRANCH  22  23
ATOM     23  C   UNL     1      -1.605  11.268  18.267  0.00  0.00    +0.000 A 
ATOM     24  C   UNL     1      -1.881  10.400  17.231  0.00  0.00    +0.000 A 
ATOM     25  S   UNL     1      -3.558  10.299  16.974  0.00  0.00    +0.000 S 
ATOM     26  C   UNL     1      -3.843  11.424  18.267  0.00  0.00    +0.000 A 
ATOM     27  N   UNL     1      -5.096  11.777  18.668  0.00  0.00    +0.000 N 
ATOM     28  C   UNL     1      -6.246  11.764  17.771  0.00  0.00    +0.000 C 
ATOM     29  C   UNL     1      -6.726  13.196  17.540  0.00  0.00    +0.000 C 
ATOM     30  C   UNL     1      -7.021  13.894  18.867  0.00  0.00    +0.000 C 
ATOM     31  C   UNL     1      -5.810  13.832  19.799  0.00  0.00    +0.000 C 
ATOM     32  C   UNL     1      -5.302  12.401  19.971  0.00  0.00    +0.000 C 
ATOM     33  N   UNL     1      -2.733  11.859  18.831  0.00  0.00    +0.000 NA
ENDBRANCH  22  23
ENDBRANCH   5  22
TORSDOF 6
ENDMDL
MODEL 6
REMARK VINA RESULT:      -7.8      4.096      7.312
REMARK  Name = 
REMARK  7 active torsions:
REMARK  status: ('A' for Active; 'I' for Inactive)
REMARK    1  A    between atoms: C_1  and  C_2
REMARK    2  A    between atoms: C_4  and  C_5
REMARK    3  A    between atoms: N_7  and  C_8
REMARK    4  A    between atoms: C_11  and  C_12
REMARK    5  A    between atoms: C_12  and  O_14
REMARK    6  A    between atoms: N_18  and  C_19
REMARK    7  A    between atoms: C_19  and  C_20
REMARK                            x       y       z     vdW  Elec       q    Type
REMARK                         _______ _______ _______ _____ _____    ______ ____
ROOT
ATOM      1  C   UNL     1      -7.916  14.812  16.532  0.00  0.00    +0.000 C 
ATOM      2  C   UNL     1      -7.189  13.771  17.297  0.00  0.00    +0.000 A 
ATOM      3  C   UNL     1      -5.972  13.117  16.955  0.00  0.00    +0.000 A 
ATOM      4  C   UNL     1      -5.651  12.206  17.953  0.00  0.00    +0.000 A 
ATOM      5  N   UNL     1      -6.649  12.321  18.914  0.00  0.00    +0.000 N 
ATOM      6  C   UNL     1      -7.575  13.252  18.511  0.00  0.00    +0.000 A 
ENDROOT
BRANCH   4   7
ATOM      7  C   UNL     1      -4.513  11.308  18.095  0.00  0.00    +0.000 C 
ATOM      8  O   UNL     1      -4.658  10.093  18.040  0.00  0.00    +0.000 OA
ATOM      9  N   UNL     1      -3.284  11.922  18.285  0.00  0.00    +0.000 N 
ATOM     10  H   UNL     1      -3.286  12.926  18.417  0.00  0.00    +0.000 HD
BRANCH   9  11
ATOM     11  C   UNL     1      -2.047  11.247  18.427  0.00  0.00    +0.000 A 
ATOM     12  C   UNL     1      -1.596  10.284  17.517  0.00  0.00    +0.000 A 
ATOM     13  C   UNL     1      -0.418   9.566  17.742  0.00  0.00    +0.000 A 
ATOM     14  C   UNL     1       0.345   9.803  18.886  0.00  0.00    +0.000 A 
ATOM     15  C   UNL     1      -0.077  10.802  19.762  0.00  0.00    +0.000 A 
ATOM     16  F   UNL     1       0.631  11.066  20.875  0.00  0.00    +0.000 F 
ATOM     17  C   UNL     1      -1.249  11.535  19.537  0.00  0.00    +0.000 A 
BRANCH  14  18
ATOM     18  C   UNL     1       1.555   8.971  19.101  0.00  0.00    +0.000 C 
ATOM     19  O   UNL     1       2.472   8.947  18.299  0.00  0.00    +0.000 OA
BRANCH  18  20
ATOM     20  O   UNL     1       1.575   8.238  20.233  0.00  0.00    +0.000 OA
ATOM     21  H   UNL     1       2.305   7.593  20.308  0.00  0.00    +0.000 HD
ENDBRANCH  18  20
ENDBRANCH  14  18
ENDBRANCH   9  11
ENDBRANCH   4   7
BRANCH   5  22
ATOM     22  C   UNL     1      -6.819  11.500  20.113  0.00  0.00    +0.000 C 
BRANCH  22  23
ATOM     23  C   UNL     1      -6.463  12.229  21.367  0.00  0.00    +0.000 A 
ATOM     24  C   UNL     1      -7.339  12.960  22.143  0.00  0.00    +0.000 A 
ATOM     25  S   UNL     1      -6.522  13.659  23.459  0.00  0.00    +0.000 S 
ATOM     26  C   UNL     1      -5.027  12.948  22.932  0.00  0.00    +0.000 A 
ATOM     27  N   UNL     1      -3.867  13.077  23.635  0.00  0.00    +0.000 N 
ATOM     28  C   UNL     1      -3.586  14.221  24.494  0.00  0.00    +0.000 C 
ATOM     29  C   UNL     1      -2.440  15.036  23.896  0.00  0.00    +0.000 C 
ATOM     30  C   UNL     1      -1.211  14.160  23.662  0.00  0.00    +0.000 C 
ATOM     31  C   UNL     1      -1.562  12.941  22.807  0.00  0.00    +0.000 C 
ATOM     32  C   UNL     1      -2.751  12.171  23.383  0.00  0.00    +0.000 C 
ATOM     33  N   UNL     1      -5.147  12.251  21.819  0.00  0.00    +0.000 NA
ENDBRANCH  22  23
ENDBRANCH   5  22
TORSDOF 6
ENDMDL
MODEL 7
REMARK VINA RESULT:      -7.7      1.762      2.222
REMARK  Name = 
REMARK  7 active torsions:
REMARK  status: ('A' for Active; 'I' for Inactive)
REMARK    1  A    between atoms: C_1  and  C_2
REMARK    2  A    between atoms: C_4  and  C_5
REMARK    3  A    between atoms: N_7  and  C_8
REMARK    4  A    between atoms: C_11  and  C_12
REMARK    5  A    between atoms: C_12  and  O_14
REMARK    6  A    between atoms: N_18  and  C_19
REMARK    7  A    between atoms: C_19  and  C_20
REMARK                            x       y       z     vdW  Elec       q    Type
REMARK                         _______ _______ _______ _____ _____    ______ ____
ROOT
ATOM      1  C   UNL     1       0.575  14.406  19.002  0.00  0.00    +0.000 C 
ATOM      2  C   UNL     1       0.446  12.930  18.936  0.00  0.00    +0.000 A 
ATOM      3  C   UNL     1       1.465  11.950  19.103  0.00  0.00    +0.000 A 
ATOM      4  C   UNL     1       0.906  10.687  18.955  0.00  0.00    +0.000 A 
ATOM      5  N   UNL     1      -0.450  10.890  18.728  0.00  0.00    +0.000 N 
ATOM      6  C   UNL     1      -0.720  12.237  18.706  0.00  0.00    +0.000 A 
ENDROOT
BRANCH   4   7
ATOM      7  C   UNL     1       1.506   9.362  19.048  0.00  0.00    +0.000 C 
ATOM      8  O   UNL     1       1.423   8.704  20.077  0.00  0.00    +0.000 OA
ATOM      9  N   UNL     1       2.155   8.917  17.906  0.00  0.00    +0.000 N 
ATOM     10  H   UNL     1       2.255   9.577  17.146  0.00  0.00    +0.000 HD
BRANCH   9  11
ATOM     11  C   UNL     1       2.790   7.658  17.768  0.00  0.00    +0.000 A 
ATOM     12  C   UNL     1       2.202   6.458  18.184  0.00  0.00    +0.000 A 
ATOM     13  C   UNL     1       2.899   5.248  18.124  0.00  0.00    +0.000 A 
ATOM     14  C   UNL     1       4.205   5.209  17.634  0.00  0.00    +0.000 A 
ATOM     15  C   UNL     1       4.768   6.396  17.168  0.00  0.00    +0.000 A 
ATOM     16  F   UNL     1       6.022   6.403  16.684  0.00  0.00    +0.000 F 
ATOM     17  C   UNL     1       4.072   7.611  17.212  0.00  0.00    +0.000 A 
BRANCH  14  18
ATOM     18  C   UNL     1       4.915   3.906  17.646  0.00  0.00    +0.000 C 
ATOM     19  O   UNL     1       5.195   3.313  16.618  0.00  0.00    +0.000 OA
BRANCH  18  20
ATOM     20  O   UNL     1       5.224   3.413  18.863  0.00  0.00    +0.000 OA
ATOM     21  H   UNL     1       4.477   3.051  19.377  0.00  0.00    +0.000 HD
ENDBRANCH  18  20
ENDBRANCH  14  18
ENDBRANCH   9  11
ENDBRANCH   4   7
BRANCH   5  22
ATOM     22  C   UNL     1      -1.453   9.875  18.407  0.00  0.00    +0.000 C 
BRANCH  22  23
ATOM     23  C   UNL     1      -2.608  10.427  17.638  0.00  0.00    +0.000 A 
ATOM     24  C   UNL     1      -2.610  10.708  16.288  0.00  0.00    +0.000 A 
ATOM     25  S   UNL     1      -4.110  11.357  15.820  0.00  0.00    +0.000 S 
ATOM     26  C   UNL     1      -4.694  11.231  17.451  0.00  0.00    +0.000 A 
ATOM     27  N   UNL     1      -5.969  11.562  17.801  0.00  0.00    +0.000 N 
ATOM     28  C   UNL     1      -6.753  12.556  17.078  0.00  0.00    +0.000 C 
ATOM     29  C   UNL     1      -6.987  13.770  17.976  0.00  0.00    +0.000 C 
ATOM     30  C   UNL     1      -7.634  13.355  19.296  0.00  0.00    +0.000 C 
ATOM     31  C   UNL     1      -6.811  12.270  19.993  0.00  0.00    +0.000 C 
ATOM     32  C   UNL     1      -6.531  11.090  19.062  0.00  0.00    +0.000 C 
ATOM     33  N   UNL     1      -3.795  10.751  18.289  0.00  0.00    +0.000 NA
ENDBRANCH  22  23
ENDBRANCH   5  22
TORSDOF 6
ENDMDL
MODEL 8
REMARK VINA RESULT:      -7.7      2.425      3.080
REMARK  Name = 
REMARK  7 active torsions:
REMARK  status: ('A' for Active; 'I' for Inactive)
REMARK    1  A    between atoms: C_1  and  C_2
REMARK    2  A    between atoms: C_4  and  C_5
REMARK    3  A    between atoms: N_7  and  C_8
REMARK    4  A    between atoms: C_11  and  C_12
REMARK    5  A    between atoms: C_12  and  O_14
REMARK    6  A    between atoms: N_18  and  C_19
REMARK    7  A    between atoms: C_19  and  C_20
REMARK                            x       y       z     vdW  Elec       q    Type
REMARK                         _______ _______ _______ _____ _____    ______ ____
ROOT
ATOM      1  C   UNL     1       0.377  14.218  19.467  0.00  0.00    +0.000 C 
ATOM      2  C   UNL     1       0.246  12.746  19.348  0.00  0.00    +0.000 A 
ATOM      3  C   UNL     1       1.030  11.739  19.979  0.00  0.00    +0.000 A 
ATOM      4  C   UNL     1       0.567  10.491  19.583  0.00  0.00    +0.000 A 
ATOM      5  N   UNL     1      -0.511  10.730  18.739  0.00  0.00    +0.000 N 
ATOM      6  C   UNL     1      -0.693  12.084  18.591  0.00  0.00    +0.000 A 
ENDROOT
BRANCH   4   7
ATOM      7  C   UNL     1       1.006   9.151  19.950  0.00  0.00    +0.000 C 
ATOM      8  O   UNL     1       0.620   8.623  20.985  0.00  0.00    +0.000 OA
ATOM      9  N   UNL     1       1.868   8.536  19.054  0.00  0.00    +0.000 N 
ATOM     10  H   UNL     1       2.206   9.096  18.281  0.00  0.00    +0.000 HD
BRANCH   9  11
ATOM     11  C   UNL     1       2.403   7.233  19.200  0.00  0.00    +0.000 A 
ATOM     12  C   UNL     1       3.284   6.662  18.274  0.00  0.00    +0.000 A 
ATOM     13  C   UNL     1       3.712   5.337  18.399  0.00  0.00    +0.000 A 
ATOM     14  C   UNL     1       3.272   4.552  19.465  0.00  0.00    +0.000 A 
ATOM     15  C   UNL     1       2.440   5.140  20.416  0.00  0.00    +0.000 A 
ATOM     16  F   UNL     1       1.996   4.419  21.461  0.00  0.00    +0.000 F 
ATOM     17  C   UNL     1       2.017   6.470  20.306  0.00  0.00    +0.000 A 
BRANCH  14  18
ATOM     18  C   UNL     1       3.715   3.135  19.515  0.00  0.00    +0.000 C 
ATOM     19  O   UNL     1       4.878   2.829  19.716  0.00  0.00    +0.000 OA
BRANCH  18  20
ATOM     20  O   UNL     1       2.755   2.209  19.318  0.00  0.00    +0.000 OA
ATOM     21  H   UNL     1       1.884   2.409  19.710  0.00  0.00    +0.000 HD
ENDBRANCH  18  20
ENDBRANCH  14  18
ENDBRANCH   9  11
ENDBRANCH   4   7
BRANCH   5  22
ATOM     22  C   UNL     1      -1.274   9.739  17.979  0.00  0.00    +0.000 C 
BRANCH  22  23
ATOM     23  C   UNL     1      -2.490  10.318  17.334  0.00  0.00    +0.000 A 
ATOM     24  C   UNL     1      -2.587  10.711  16.015  0.00  0.00    +0.000 A 
ATOM     25  S   UNL     1      -4.129  11.350  15.699  0.00  0.00    +0.000 S 
ATOM     26  C   UNL     1      -4.603  11.071  17.347  0.00  0.00    +0.000 A 
ATOM     27  N   UNL     1      -5.861  11.332  17.802  0.00  0.00    +0.000 N 
ATOM     28  C   UNL     1      -6.715  12.358  17.217  0.00  0.00    +0.000 C 
ATOM     29  C   UNL     1      -6.922  13.485  18.228  0.00  0.00    +0.000 C 
ATOM     30  C   UNL     1      -7.472  12.942  19.546  0.00  0.00    +0.000 C 
ATOM     31  C   UNL     1      -6.578  11.828  20.094  0.00  0.00    +0.000 C 
ATOM     32  C   UNL     1      -6.328  10.740  19.051  0.00  0.00    +0.000 C 
ATOM     33  N   UNL     1      -3.641  10.550  18.083  0.00  0.00    +0.000 NA
ENDBRANCH  22  23
ENDBRANCH   5  22
TORSDOF 6
ENDMDL
MODEL 9
REMARK VINA RESULT:      -7.6      4.808      8.946
REMARK  Name = 
REMARK  7 active torsions:
REMARK  status: ('A' for Active; 'I' for Inactive)
REMARK    1  A    between atoms: C_1  and  C_2
REMARK    2  A    between atoms: C_4  and  C_5
REMARK    3  A    between atoms: N_7  and  C_8
REMARK    4  A    between atoms: C_11  and  C_12
REMARK    5  A    between atoms: C_12  and  O_14
REMARK    6  A    between atoms: N_18  and  C_19
REMARK    7  A    between atoms: C_19  and  C_20
REMARK                            x       y       z     vdW  Elec       q    Type
REMARK                         _______ _______ _______ _____ _____    ______ ____
ROOT
ATOM      1  C   UNL     1      -3.185  10.072  16.576  0.00  0.00    +0.000 C 
ATOM      2  C   UNL     1      -2.094  10.578  17.444  0.00  0.00    +0.000 A 
ATOM      3  C   UNL     1      -1.622  11.914  17.574  0.00  0.00    +0.000 A 
ATOM      4  C   UNL     1      -0.581  11.938  18.494  0.00  0.00    +0.000 A 
ATOM      5  N   UNL     1      -0.436  10.632  18.945  0.00  0.00    +0.000 N 
ATOM      6  C   UNL     1      -1.337   9.816  18.304  0.00  0.00    +0.000 A 
ENDROOT
BRANCH   4   7
ATOM      7  C   UNL     1       0.223  13.045  18.994  0.00  0.00    +0.000 C 
ATOM      8  O   UNL     1      -0.243  13.856  19.785  0.00  0.00    +0.000 OA
ATOM      9  N   UNL     1       1.526  13.101  18.521  0.00  0.00    +0.000 N 
ATOM     10  H   UNL     1       1.781  12.445  17.794  0.00  0.00    +0.000 HD
BRANCH   9  11
ATOM     11  C   UNL     1       2.485  14.077  18.887  0.00  0.00    +0.000 A 
ATOM     12  C   UNL     1       3.130  14.083  20.129  0.00  0.00    +0.000 A 
ATOM     13  C   UNL     1       3.996  15.118  20.494  0.00  0.00    +0.000 A 
ATOM     14  C   UNL     1       4.245  16.172  19.614  0.00  0.00    +0.000 A 
ATOM     15  C   UNL     1       3.646  16.135  18.357  0.00  0.00    +0.000 A 
ATOM     16  F   UNL     1       3.862  17.129  17.477  0.00  0.00    +0.000 F 
ATOM     17  C   UNL     1       2.787  15.095  17.978  0.00  0.00    +0.000 A 
BRANCH  14  18
ATOM     18  C   UNL     1       5.129  17.271  20.077  0.00  0.00    +0.000 C 
ATOM     19  O   UNL     1       4.718  18.408  20.233  0.00  0.00    +0.000 OA
BRANCH  18  20
ATOM     20  O   UNL     1       6.415  16.938  20.308  0.00  0.00    +0.000 OA
ATOM     21  H   UNL     1       7.031  17.685  20.438  0.00  0.00    +0.000 HD
ENDBRANCH  18  20
ENDBRANCH  14  18
ENDBRANCH   9  11
ENDBRANCH   4   7
BRANCH   5  22
ATOM     22  C   UNL     1       0.596  10.119  19.847  0.00  0.00    +0.000 C 
BRANCH  22  23
ATOM     23  C   UNL     1       1.450   9.072  19.210  0.00  0.00    +0.000 A 
ATOM     24  C   UNL     1       2.243   9.254  18.096  0.00  0.00    +0.000 A 
ATOM     25  S   UNL     1       3.020   7.801  17.678  0.00  0.00    +0.000 S 
ATOM     26  C   UNL     1       2.260   6.989  19.013  0.00  0.00    +0.000 A 
ATOM     27  N   UNL     1       2.515   5.686  19.320  0.00  0.00    +0.000 N 
ATOM     28  C   UNL     1       2.923   4.705  18.321  0.00  0.00    +0.000 C 
ATOM     29  C   UNL     1       1.815   3.668  18.146  0.00  0.00    +0.000 C 
ATOM     30  C   UNL     1       1.448   3.029  19.484  0.00  0.00    +0.000 C 
ATOM     31  C   UNL     1       1.084   4.096  20.518  0.00  0.00    +0.000 C 
ATOM     32  C   UNL     1       2.173   5.161  20.638  0.00  0.00    +0.000 C 
ATOM     33  N   UNL     1       1.455   7.771  19.707  0.00  0.00    +0.000 NA
ENDBRANCH  22  23
ENDBRANCH   5  22
TORSDOF 6
ENDMDL
