MODEL 1
REMARK VINA RESULT:      -8.4      0.000      0.000
REMARK  Name = 
REMARK  9 active torsions:
REMARK  status: ('A' for Active; 'I' for Inactive)
REMARK    1  A    between atoms: C_1  and  C_2
REMARK    2  A    between atoms: N_4  and  C_5
REMARK    3  A    between atoms: C_6  and  C_7
REMARK    4  A    between atoms: C_8  and  S_9
REMARK    5  A    between atoms: S_9  and  N_12
REMARK    6  A    between atoms: N_12  and  C_13
REMARK    7  A    between atoms: C_13  and  C_14
REMARK    8  A    between atoms: C_14  and  N_15
REMARK    9  A    between atoms: C_17  and  C_18
REMARK                            x       y       z     vdW  Elec       q    Type
REMARK                         _______ _______ _______ _____ _____    ______ ____
ROOT
ATOM      1  C   UNL     1       1.918   7.397  19.860  0.00  0.00    +0.000 C 
ENDROOT
BRANCH   1   2
ATOM      2  N   UNL     1       2.558   6.155  19.428  0.00  0.00    +0.000 N 
ATOM      3  N   UNL     1       3.658   6.239  18.629  0.00  0.00    +0.000 NA
ATOM      4  C   UNL     1       4.020   4.959  18.383  0.00  0.00    +0.000 A 
ATOM      5  C   UNL     1       3.124   4.072  19.021  0.00  0.00    +0.000 A 
ATOM      6  C   UNL     1       2.199   4.851  19.681  0.00  0.00    +0.000 A 
ATOM      7  C   UNL     1       1.041   4.295  20.443  0.00  0.00    +0.000 C 
ATOM      8  C   UNL     1       1.219   2.770  20.665  0.00  0.00    +0.000 C 
ATOM      9  C   UNL     1       1.735   2.051  19.412  0.00  0.00    +0.000 C 
ATOM     10  C   UNL     1       3.117   2.581  19.027  0.00  0.00    +0.000 C 
BRANCH   4  11
ATOM     11  C   UNL     1       5.120   4.549  17.495  0.00  0.00    +0.000 A 
ATOM     12  C   UNL     1       6.434   4.706  17.895  0.00  0.00    +0.000 A 
ATOM     13  C   UNL     1       7.451   4.616  16.949  0.00  0.00    +0.000 A 
ATOM     14  C   UNL     1       7.127   4.318  15.630  0.00  0.00    +0.000 A 
ATOM     15  C   UNL     1       5.796   4.113  15.318  0.00  0.00    +0.000 A 
ATOM     16  N   UNL     1       4.788   4.218  16.213  0.00  0.00    +0.000 NA
ENDBRANCH   4  11
ENDBRANCH   1   2
BRANCH   1  17
ATOM     17  C   UNL     1       1.727   7.557  21.381  0.00  0.00    +0.000 C 
BRANCH  17  18
ATOM     18  N   UNL     1       1.652   8.956  21.891  0.00  0.00    +0.000 NA
ATOM     19  H   UNL     1       2.322   9.113  22.649  0.00  0.00    +0.000 HD
BRANCH  18  20
ATOM     20  S   UNL     1       0.083   9.406  22.367  0.00  0.00    +0.000 S 
ATOM     21  O   UNL     1       0.170   9.832  23.738  0.00  0.00    +0.000 OA
ATOM     22  O   UNL     1      -0.829   8.353  21.940  0.00  0.00    +0.000 OA
BRANCH  20  30
ATOM     23  C   UNL     1      -2.174  11.834  23.217  0.00  0.00    +0.000 C 
ATOM     24  C   UNL     1      -1.426  11.746  21.936  0.00  0.00    +0.000 A 
ATOM     25  N   UNL     1      -1.636  12.684  21.003  0.00  0.00    +0.000 NA
ATOM     26  N   UNL     1      -0.806  12.355  19.997  0.00  0.00    +0.000 N 
ATOM     27  C   UNL     1      -0.786  13.185  18.815  0.00  0.00    +0.000 C 
ATOM     28  C   UNL     1      -0.044  11.243  20.260  0.00  0.00    +0.000 A 
ATOM     29  C   UNL     1       0.978  10.705  19.322  0.00  0.00    +0.000 C 
ATOM     30  C   UNL     1      -0.454  10.803  21.504  0.00  0.00    +0.000 A 
ENDBRANCH  20  30
ENDBRANCH  18  20
ENDBRANCH  17  18
ENDBRANCH   1  17
TORSDOF 6
ENDMDL
MODEL 2
REMARK VINA RESULT:      -8.3      2.209      4.411
REMARK  Name = 
REMARK  9 active torsions:
REMARK  status: ('A' for Active; 'I' for Inactive)
REMARK    1  A    between atoms: C_1  and  C_2
REMARK    2  A    between atoms: N_4  and  C_5
REMARK    3  A    between atoms: C_6  and  C_7
REMARK    4  A    between atoms: C_8  and  S_9
REMARK    5  A    between atoms: S_9  and  N_12
REMARK    6  A    between atoms: N_12  and  C_13
REMARK    7  A    between atoms: C_13  and  C_14
REMARK    8  A    between atoms: C_14  and  N_15
REMARK    9  A    between atoms: C_17  and  C_18
REMARK                            x       y       z     vdW  Elec       q    Type
REMARK                         _______ _______ _______ _____ _____    ______ ____
ROOT
ATOM      1  C   UNL     1       2.955   9.017  17.691  0.00  0.00    +0.000 C 
ENDROOT
BRANCH   1   2
ATOM      2  N   UNL     1       3.057   7.571  17.886  0.00  0.00    +0.000 N 
ATOM      3  N   UNL     1       2.256   6.986  18.820  0.00  0.00    +0.000 NA
ATOM      4  C   UNL     1       2.573   5.671  18.790  0.00  0.00    +0.000 A 
ATOM      5  C   UNL     1       3.594   5.441  17.841  0.00  0.00    +0.000 A 
ATOM      6  C   UNL     1       3.891   6.663  17.276  0.00  0.00    +0.000 A 
ATOM      7  C   UNL     1       4.962   6.864  16.255  0.00  0.00    +0.000 C 
ATOM      8  C   UNL     1       5.438   5.499  15.691  0.00  0.00    +0.000 C 
ATOM      9  C   UNL     1       5.605   4.438  16.786  0.00  0.00    +0.000 C 
ATOM     10  C   UNL     1       4.265   4.163  17.469  0.00  0.00    +0.000 C 
BRANCH   4  11
ATOM     11  C   UNL     1       2.013   4.648  19.688  0.00  0.00    +0.000 A 
ATOM     12  C   UNL     1       2.412   4.586  21.010  0.00  0.00    +0.000 A 
ATOM     13  C   UNL     1       2.128   3.446  21.757  0.00  0.00    +0.000 A 
ATOM     14  C   UNL     1       1.403   2.415  21.171  0.00  0.00    +0.000 A 
ATOM     15  C   UNL     1       0.984   2.575  19.863  0.00  0.00    +0.000 A 
ATOM     16  N   UNL     1       1.267   3.662  19.110  0.00  0.00    +0.000 NA
ENDBRANCH   4  11
ENDBRANCH   1   2
BRANCH   1  17
ATOM     17  C   UNL     1       1.544   9.615  17.850  0.00  0.00    +0.000 C 
BRANCH  17  18
ATOM     18  N   UNL     1       1.024   9.714  19.244  0.00  0.00    +0.000 NA
ATOM     19  H   UNL     1       0.323   8.993  19.433  0.00  0.00    +0.000 HD
BRANCH  18  20
ATOM     20  S   UNL     1       0.419  11.258  19.619  0.00  0.00    +0.000 S 
ATOM     21  O   UNL     1      -0.587  11.560  18.637  0.00  0.00    +0.000 OA
ATOM     22  O   UNL     1       1.558  12.135  19.855  0.00  0.00    +0.000 OA
BRANCH  20  30
ATOM     23  C   UNL     1       0.860   9.346  22.422  0.00  0.00    +0.000 C 
ATOM     24  C   UNL     1      -0.181  10.388  22.231  0.00  0.00    +0.000 A 
ATOM     25  N   UNL     1      -1.047  10.623  23.226  0.00  0.00    +0.000 NA
ATOM     26  N   UNL     1      -1.823  11.623  22.772  0.00  0.00    +0.000 N 
ATOM     27  C   UNL     1      -2.878  12.123  23.623  0.00  0.00    +0.000 C 
ATOM     28  C   UNL     1      -1.471  12.062  21.519  0.00  0.00    +0.000 A 
ATOM     29  C   UNL     1      -2.150  13.185  20.819  0.00  0.00    +0.000 C 
ATOM     30  C   UNL     1      -0.425  11.249  21.127  0.00  0.00    +0.000 A 
ENDBRANCH  20  30
ENDBRANCH  18  20
ENDBRANCH  17  18
ENDBRANCH   1  17
TORSDOF 6
ENDMDL
MODEL 3
REMARK VINA RESULT:      -8.3      2.202      4.442
REMARK  Name = 
REMARK  9 active torsions:
REMARK  status: ('A' for Active; 'I' for Inactive)
REMARK    1  A    between atoms: C_1  and  C_2
REMARK    2  A    between atoms: N_4  and  C_5
REMARK    3  A    between atoms: C_6  and  C_7
REMARK    4  A    between atoms: C_8  and  S_9
REMARK    5  A    between atoms: S_9  and  N_12
REMARK    6  A    between atoms: N_12  and  C_13
REMARK    7  A    between atoms: C_13  and  C_14
REMARK    8  A    between atoms: C_14  and  N_15
REMARK    9  A    between atoms: C_17  and  C_18
REMARK                            x       y       z     vdW  Elec       q    Type
REMARK                         _______ _______ _______ _____ _____    ______ ____
ROOT
ATOM      1  C   UNL     1       3.074   8.571  17.675  0.00  0.00    +0.000 C 
ENDROOT
BRANCH   1   2
ATOM      2  N   UNL     1       3.264   7.125  17.788  0.00  0.00    +0.000 N 
ATOM      3  N   UNL     1       2.557   6.453  18.739  0.00  0.00    +0.000 NA
ATOM      4  C   UNL     1       2.939   5.161  18.622  0.00  0.00    +0.000 A 
ATOM      5  C   UNL     1       3.906   5.033  17.600  0.00  0.00    +0.000 A 
ATOM      6  C   UNL     1       4.102   6.295  17.081  0.00  0.00    +0.000 A 
ATOM      7  C   UNL     1       5.092   6.603  16.007  0.00  0.00    +0.000 C 
ATOM      8  C   UNL     1       5.600   5.296  15.345  0.00  0.00    +0.000 C 
ATOM      9  C   UNL     1       5.894   4.194  16.371  0.00  0.00    +0.000 C 
ATOM     10  C   UNL     1       4.617   3.813  17.121  0.00  0.00    +0.000 C 
BRANCH   4  11
ATOM     11  C   UNL     1       2.492   4.066  19.499  0.00  0.00    +0.000 A 
ATOM     12  C   UNL     1       1.147   3.769  19.613  0.00  0.00    +0.000 A 
ATOM     13  C   UNL     1       0.712   2.962  20.661  0.00  0.00    +0.000 A 
ATOM     14  C   UNL     1       1.647   2.431  21.542  0.00  0.00    +0.000 A 
ATOM     15  C   UNL     1       2.982   2.723  21.327  0.00  0.00    +0.000 A 
ATOM     16  N   UNL     1       3.427   3.521  20.331  0.00  0.00    +0.000 NA
ENDBRANCH   4  11
ENDBRANCH   1   2
BRANCH   1  17
ATOM     17  C   UNL     1       1.617   9.063  17.759  0.00  0.00    +0.000 C 
BRANCH  17  18
ATOM     18  N   UNL     1       1.128   9.447  19.114  0.00  0.00    +0.000 NA
ATOM     19  H   UNL     1       0.397   8.810  19.441  0.00  0.00    +0.000 HD
BRANCH  18  20
ATOM     20  S   UNL     1       0.604  11.062  19.198  0.00  0.00    +0.000 S 
ATOM     21  O   UNL     1      -0.562  11.165  18.363  0.00  0.00    +0.000 OA
ATOM     22  O   UNL     1       1.769  11.916  19.009  0.00  0.00    +0.000 OA
BRANCH  20  30
ATOM     23  C   UNL     1       0.488   9.192  22.061  0.00  0.00    +0.000 C 
ATOM     24  C   UNL     1       0.015  10.592  21.913  0.00  0.00    +0.000 A 
ATOM     25  N   UNL     1      -0.517  11.207  22.977  0.00  0.00    +0.000 NA
ATOM     26  N   UNL     1      -0.810  12.446  22.543  0.00  0.00    +0.000 N 
ATOM     27  C   UNL     1      -1.409  13.382  23.466  0.00  0.00    +0.000 C 
ATOM     28  C   UNL     1      -0.461  12.661  21.232  0.00  0.00    +0.000 A 
ATOM     29  C   UNL     1      -0.644  13.963  20.534  0.00  0.00    +0.000 C 
ATOM     30  C   UNL     1       0.047  11.456  20.785  0.00  0.00    +0.000 A 
ENDBRANCH  20  30
ENDBRANCH  18  20
ENDBRANCH  17  18
ENDBRANCH   1  17
TORSDOF 6
ENDMDL
MODEL 4
REMARK VINA RESULT:      -8.2      1.812      2.470
REMARK  Name = 
REMARK  9 active torsions:
REMARK  status: ('A' for Active; 'I' for Inactive)
REMARK    1  A    between atoms: C_1  and  C_2
REMARK    2  A    between atoms: N_4  and  C_5
REMARK    3  A    between atoms: C_6  and  C_7
REMARK    4  A    between atoms: C_8  and  S_9
REMARK    5  A    between atoms: S_9  and  N_12
REMARK    6  A    between atoms: N_12  and  C_13
REMARK    7  A    between atoms: C_13  and  C_14
REMARK    8  A    between atoms: C_14  and  N_15
REMARK    9  A    between atoms: C_17  and  C_18
REMARK                            x       y       z     vdW  Elec       q    Type
REMARK                         _______ _______ _______ _____ _____    ______ ____
ROOT
ATOM      1  C   UNL     1       1.665   7.033  20.738  0.00  0.00    +0.000 C 
ENDROOT
BRANCH   1   2
ATOM      2  N   UNL     1       2.380   6.063  19.911  0.00  0.00    +0.000 N 
ATOM      3  N   UNL     1       3.493   6.478  19.243  0.00  0.00    +0.000 NA
ATOM      4  C   UNL     1       3.927   5.392  18.563  0.00  0.00    +0.000 A 
ATOM      5  C   UNL     1       3.065   4.298  18.796  0.00  0.00    +0.000 A 
ATOM      6  C   UNL     1       2.084   4.743  19.656  0.00  0.00    +0.000 A 
ATOM      7  C   UNL     1       0.939   3.901  20.113  0.00  0.00    +0.000 C 
ATOM      8  C   UNL     1       1.192   2.409  19.772  0.00  0.00    +0.000 C 
ATOM      9  C   UNL     1       1.775   2.220  18.365  0.00  0.00    +0.000 C 
ATOM     10  C   UNL     1       3.136   2.909  18.258  0.00  0.00    +0.000 C 
BRANCH   4  11
ATOM     11  C   UNL     1       5.068   5.380  17.633  0.00  0.00    +0.000 A 
ATOM     12  C   UNL     1       4.880   5.669  16.295  0.00  0.00    +0.000 A 
ATOM     13  C   UNL     1       5.882   5.353  15.380  0.00  0.00    +0.000 A 
ATOM     14  C   UNL     1       7.071   4.800  15.840  0.00  0.00    +0.000 A 
ATOM     15  C   UNL     1       7.210   4.596  17.201  0.00  0.00    +0.000 A 
ATOM     16  N   UNL     1       6.244   4.874  18.106  0.00  0.00    +0.000 NA
ENDBRANCH   4  11
ENDBRANCH   1   2
BRANCH   1  17
ATOM     17  C   UNL     1       1.519   8.445  20.138  0.00  0.00    +0.000 C 
BRANCH  17  18
ATOM     18  N   UNL     1       0.795   9.444  20.974  0.00  0.00    +0.000 NA
ATOM     19  H   UNL     1      -0.145   9.118  21.216  0.00  0.00    +0.000 HD
BRANCH  18  20
ATOM     20  S   UNL     1       0.734  10.987  20.262  0.00  0.00    +0.000 S 
ATOM     21  O   UNL     1       1.323  10.866  18.956  0.00  0.00    +0.000 OA
ATOM     22  O   UNL     1       1.221  11.947  21.243  0.00  0.00    +0.000 OA
BRANCH  20  30
ATOM     23  C   UNL     1      -1.414  10.210  17.714  0.00  0.00    +0.000 C 
ATOM     24  C   UNL     1      -1.704  11.116  18.854  0.00  0.00    +0.000 A 
ATOM     25  N   UNL     1      -2.905  11.706  18.919  0.00  0.00    +0.000 NA
ATOM     26  N   UNL     1      -2.873  12.420  20.058  0.00  0.00    +0.000 N 
ATOM     27  C   UNL     1      -4.039  13.187  20.429  0.00  0.00    +0.000 C 
ATOM     28  C   UNL     1      -1.692  12.292  20.749  0.00  0.00    +0.000 A 
ATOM     29  C   UNL     1      -1.429  12.950  22.058  0.00  0.00    +0.000 C 
ATOM     30  C   UNL     1      -0.897  11.476  19.968  0.00  0.00    +0.000 A 
ENDBRANCH  20  30
ENDBRANCH  18  20
ENDBRANCH  17  18
ENDBRANCH   1  17
TORSDOF 6
ENDMDL
MODEL 5
REMARK VINA RESULT:      -8.2      1.084      1.854
REMARK  Name = 
REMARK  9 active torsions:
REMARK  status: ('A' for Active; 'I' for Inactive)
REMARK    1  A    between atoms: C_1  and  C_2
REMARK    2  A    between atoms: N_4  and  C_5
REMARK    3  A    between atoms: C_6  and  C_7
REMARK    4  A    between atoms: C_8  and  S_9
REMARK    5  A    between atoms: S_9  and  N_12
REMARK    6  A    between atoms: N_12  and  C_13
REMARK    7  A    between atoms: C_13  and  C_14
REMARK    8  A    between atoms: C_14  and  N_15
REMARK    9  A    between atoms: C_17  and  C_18
REMARK                            x       y       z     vdW  Elec       q    Type
REMARK                         _______ _______ _______ _____ _____    ______ ____
ROOT
ATOM      1  C   UNL     1       1.858   7.758  19.662  0.00  0.00    +0.000 C 
ENDROOT
BRANCH   1   2
ATOM      2  N   UNL     1       2.527   6.488  19.387  0.00  0.00    +0.000 N 
ATOM      3  N   UNL     1       3.652   6.503  18.618  0.00  0.00    +0.000 NA
ATOM      4  C   UNL     1       4.037   5.209  18.522  0.00  0.00    +0.000 A 
ATOM      5  C   UNL     1       3.131   4.382  19.223  0.00  0.00    +0.000 A 
ATOM      6  C   UNL     1       2.175   5.213  19.766  0.00  0.00    +0.000 A 
ATOM      7  C   UNL     1       0.999   4.723  20.545  0.00  0.00    +0.000 C 
ATOM      8  C   UNL     1       1.187   3.234  20.934  0.00  0.00    +0.000 C 
ATOM      9  C   UNL     1       1.754   2.393  19.783  0.00  0.00    +0.000 C 
ATOM     10  C   UNL     1       3.141   2.900  19.388  0.00  0.00    +0.000 C 
BRANCH   4  11
ATOM     11  C   UNL     1       5.171   4.724  17.720  0.00  0.00    +0.000 A 
ATOM     12  C   UNL     1       6.462   4.832  18.200  0.00  0.00    +0.000 A 
ATOM     13  C   UNL     1       7.534   4.668  17.326  0.00  0.00    +0.000 A 
ATOM     14  C   UNL     1       7.281   4.348  15.996  0.00  0.00    +0.000 A 
ATOM     15  C   UNL     1       5.964   4.196  15.603  0.00  0.00    +0.000 A 
ATOM     16  N   UNL     1       4.907   4.373  16.427  0.00  0.00    +0.000 NA
ENDBRANCH   4  11
ENDBRANCH   1   2
BRANCH   1  17
ATOM     17  C   UNL     1       1.479   8.009  21.134  0.00  0.00    +0.000 C 
BRANCH  17  18
ATOM     18  N   UNL     1       0.141   8.622  21.375  0.00  0.00    +0.000 NA
ATOM     19  H   UNL     1      -0.449   8.570  20.540  0.00  0.00    +0.000 HD
BRANCH  18  20
ATOM     20  S   UNL     1       0.236  10.219  21.949  0.00  0.00    +0.000 S 
ATOM     21  O   UNL     1       1.499  10.746  21.507  0.00  0.00    +0.000 OA
ATOM     22  O   UNL     1      -0.147  10.208  23.355  0.00  0.00    +0.000 OA
BRANCH  20  30
ATOM     23  C   UNL     1      -0.865  10.349  18.712  0.00  0.00    +0.000 C 
ATOM     24  C   UNL     1      -1.320  11.221  19.825  0.00  0.00    +0.000 A 
ATOM     25  N   UNL     1      -2.242  12.160  19.572  0.00  0.00    +0.000 NA
ATOM     26  N   UNL     1      -2.466  12.747  20.761  0.00  0.00    +0.000 N 
ATOM     27  C   UNL     1      -3.428  13.821  20.834  0.00  0.00    +0.000 C 
ATOM     28  C   UNL     1      -1.733  12.199  21.786  0.00  0.00    +0.000 A 
ATOM     29  C   UNL     1      -1.836  12.647  23.201  0.00  0.00    +0.000 C 
ATOM     30  C   UNL     1      -0.950  11.225  21.197  0.00  0.00    +0.000 A 
ENDBRANCH  20  30
ENDBRANCH  18  20
ENDBRANCH  17  18
ENDBRANCH   1  17
TORSDOF 6
ENDMDL
MODEL 6
REMARK VINA RESULT:      -8.2      2.038      4.362
REMARK  Name = 
REMARK  9 active torsions:
REMARK  status: ('A' for Active; 'I' for Inactive)
REMARK    1  A    between atoms: C_1  and  C_2
REMARK    2  A    between atoms: N_4  and  C_5
REMARK    3  A    between atoms: C_6  and  C_7
REMARK    4  A    between atoms: C_8  and  S_9
REMARK    5  A    between atoms: S_9  and  N_12
REMARK    6  A    between atoms: N_12  and  C_13
REMARK    7  A    between atoms: C_13  and  C_14
REMARK    8  A    between atoms: C_14  and  N_15
REMARK    9  A    between atoms: C_17  and  C_18
REMARK                            x       y       z     vdW  Elec       q    Type
REMARK                         _______ _______ _______ _____ _____    ______ ____
ROOT
ATOM      1  C   UNL     1       2.638   9.098  17.748  0.00  0.00    +0.000 C 
ENDROOT
BRANCH   1   2
ATOM      2  N   UNL     1       2.835   7.663  17.951  0.00  0.00    +0.000 N 
ATOM      3  N   UNL     1       2.057   7.027  18.872  0.00  0.00    +0.000 NA
ATOM      4  C   UNL     1       2.463   5.737  18.853  0.00  0.00    +0.000 A 
ATOM      5  C   UNL     1       3.515   5.574  17.925  0.00  0.00    +0.000 A 
ATOM      6  C   UNL     1       3.740   6.811  17.360  0.00  0.00    +0.000 A 
ATOM      7  C   UNL     1       4.815   7.082  16.359  0.00  0.00    +0.000 C 
ATOM      8  C   UNL     1       5.393   5.751  15.810  0.00  0.00    +0.000 C 
ATOM      9  C   UNL     1       5.611   4.707  16.913  0.00  0.00    +0.000 C 
ATOM     10  C   UNL     1       4.279   4.343  17.571  0.00  0.00    +0.000 C 
BRANCH   4  11
ATOM     11  C   UNL     1       1.956   4.681  19.744  0.00  0.00    +0.000 A 
ATOM     12  C   UNL     1       2.414   4.587  21.045  0.00  0.00    +0.000 A 
ATOM     13  C   UNL     1       2.178   3.422  21.771  0.00  0.00    +0.000 A 
ATOM     14  C   UNL     1       1.442   2.397  21.187  0.00  0.00    +0.000 A 
ATOM     15  C   UNL     1       0.964   2.589  19.904  0.00  0.00    +0.000 A 
ATOM     16  N   UNL     1       1.200   3.700  19.171  0.00  0.00    +0.000 NA
ENDBRANCH   4  11
ENDBRANCH   1   2
BRANCH   1  17
ATOM     17  C   UNL     1       1.216   9.624  18.022  0.00  0.00    +0.000 C 
BRANCH  17  18
ATOM     18  N   UNL     1       0.795   9.668  19.451  0.00  0.00    +0.000 NA
ATOM     19  H   UNL     1      -0.086   9.168  19.597  0.00  0.00    +0.000 HD
BRANCH  18  20
ATOM     20  S   UNL     1       0.702  11.250  20.068  0.00  0.00    +0.000 S 
ATOM     21  O   UNL     1       1.224  12.124  19.052  0.00  0.00    +0.000 OA
ATOM     22  O   UNL     1       1.238  11.231  21.422  0.00  0.00    +0.000 OA
BRANCH  20  30
ATOM     23  C   UNL     1      -1.801  11.717  17.781  0.00  0.00    +0.000 C 
ATOM     24  C   UNL     1      -1.905  11.937  19.247  0.00  0.00    +0.000 A 
ATOM     25  N   UNL     1      -3.069  12.364  19.753  0.00  0.00    +0.000 NA
ATOM     26  N   UNL     1      -2.859  12.432  21.079  0.00  0.00    +0.000 N 
ATOM     27  C   UNL     1      -3.942  12.867  21.932  0.00  0.00    +0.000 C 
ATOM     28  C   UNL     1      -1.598  12.038  21.453  0.00  0.00    +0.000 A 
ATOM     29  C   UNL     1      -1.137  11.985  22.867  0.00  0.00    +0.000 C 
ATOM     30  C   UNL     1      -0.941  11.744  20.273  0.00  0.00    +0.000 A 
ENDBRANCH  20  30
ENDBRANCH  18  20
ENDBRANCH  17  18
ENDBRANCH   1  17
TORSDOF 6
ENDMDL
MODEL 7
REMARK VINA RESULT:      -8.2      2.130      4.447
REMARK  Name = 
REMARK  9 active torsions:
REMARK  status: ('A' for Active; 'I' for Inactive)
REMARK    1  A    between atoms: C_1  and  C_2
REMARK    2  A    between atoms: N_4  and  C_5
REMARK    3  A    between atoms: C_6  and  C_7
REMARK    4  A    between atoms: C_8  and  S_9
REMARK    5  A    between atoms: S_9  and  N_12
REMARK    6  A    between atoms: N_12  and  C_13
REMARK    7  A    between atoms: C_13  and  C_14
REMARK    8  A    between atoms: C_14  and  N_15
REMARK    9  A    between atoms: C_17  and  C_18
REMARK                            x       y       z     vdW  Elec       q    Type
REMARK                         _______ _______ _______ _____ _____    ______ ____
ROOT
ATOM      1  C   UNL     1       2.990   8.670  17.776  0.00  0.00    +0.000 C 
ENDROOT
BRANCH   1   2
ATOM      2  N   UNL     1       3.189   7.224  17.874  0.00  0.00    +0.000 N 
ATOM      3  N   UNL     1       2.478   6.535  18.810  0.00  0.00    +0.000 NA
ATOM      4  C   UNL     1       2.871   5.247  18.680  0.00  0.00    +0.000 A 
ATOM      5  C   UNL     1       3.849   5.139  17.667  0.00  0.00    +0.000 A 
ATOM      6  C   UNL     1       4.041   6.408  17.165  0.00  0.00    +0.000 A 
ATOM      7  C   UNL     1       5.039   6.737  16.104  0.00  0.00    +0.000 C 
ATOM      8  C   UNL     1       5.563   5.441  15.431  0.00  0.00    +0.000 C 
ATOM      9  C   UNL     1       5.854   4.329  16.447  0.00  0.00    +0.000 C 
ATOM     10  C   UNL     1       4.573   3.929  17.180  0.00  0.00    +0.000 C 
BRANCH   4  11
ATOM     11  C   UNL     1       2.424   4.139  19.539  0.00  0.00    +0.000 A 
ATOM     12  C   UNL     1       1.256   3.458  19.249  0.00  0.00    +0.000 A 
ATOM     13  C   UNL     1       0.682   2.640  20.219  0.00  0.00    +0.000 A 
ATOM     14  C   UNL     1       1.325   2.485  21.442  0.00  0.00    +0.000 A 
ATOM     15  C   UNL     1       2.522   3.149  21.637  0.00  0.00    +0.000 A 
ATOM     16  N   UNL     1       3.087   3.966  20.720  0.00  0.00    +0.000 NA
ENDBRANCH   4  11
ENDBRANCH   1   2
BRANCH   1  17
ATOM     17  C   UNL     1       1.525   9.139  17.693  0.00  0.00    +0.000 C 
BRANCH  17  18
ATOM     18  N   UNL     1       1.266  10.558  18.068  0.00  0.00    +0.000 NA
ATOM     19  H   UNL     1       2.108  11.131  17.967  0.00  0.00    +0.000 HD
BRANCH  18  20
ATOM     20  S   UNL     1       0.607  10.723  19.627  0.00  0.00    +0.000 S 
ATOM     21  O   UNL     1       1.354  11.761  20.286  0.00  0.00    +0.000 OA
ATOM     22  O   UNL     1       0.470   9.389  20.194  0.00  0.00    +0.000 OA
BRANCH  20  30
ATOM     23  C   UNL     1      -1.869  10.232  17.316  0.00  0.00    +0.000 C 
ATOM     24  C   UNL     1      -1.966  11.078  18.534  0.00  0.00    +0.000 A 
ATOM     25  N   UNL     1      -3.112  11.728  18.777  0.00  0.00    +0.000 NA
ATOM     26  N   UNL     1      -2.902  12.364  19.942  0.00  0.00    +0.000 N 
ATOM     27  C   UNL     1      -3.966  13.170  20.494  0.00  0.00    +0.000 C 
ATOM     28  C   UNL     1      -1.659  12.128  20.477  0.00  0.00    +0.000 A 
ATOM     29  C   UNL     1      -1.204  12.684  21.780  0.00  0.00    +0.000 C 
ATOM     30  C   UNL     1      -1.013  11.320  19.560  0.00  0.00    +0.000 A 
ENDBRANCH  20  30
ENDBRANCH  18  20
ENDBRANCH  17  18
ENDBRANCH   1  17
TORSDOF 6
ENDMDL
MODEL 8
REMARK VINA RESULT:      -8.2      1.832      2.094
REMARK  Name = 
REMARK  9 active torsions:
REMARK  status: ('A' for Active; 'I' for Inactive)
REMARK    1  A    between atoms: C_1  and  C_2
REMARK    2  A    between atoms: N_4  and  C_5
REMARK    3  A    between atoms: C_6  and  C_7
REMARK    4  A    between atoms: C_8  and  S_9
REMARK    5  A    between atoms: S_9  and  N_12
REMARK    6  A    between atoms: N_12  and  C_13
REMARK    7  A    between atoms: C_13  and  C_14
REMARK    8  A    between atoms: C_14  and  N_15
REMARK    9  A    between atoms: C_17  and  C_18
REMARK                            x       y       z     vdW  Elec       q    Type
REMARK                         _______ _______ _______ _____ _____    ______ ____
ROOT
ATOM      1  C   UNL     1       1.435   6.828  20.699  0.00  0.00    +0.000 C 
ENDROOT
BRANCH   1   2
ATOM      2  N   UNL     1       2.238   5.903  19.900  0.00  0.00    +0.000 N 
ATOM      3  N   UNL     1       3.339   6.388  19.260  0.00  0.00    +0.000 NA
ATOM      4  C   UNL     1       3.865   5.330  18.601  0.00  0.00    +0.000 A 
ATOM      5  C   UNL     1       3.072   4.181  18.819  0.00  0.00    +0.000 A 
ATOM      6  C   UNL     1       2.039   4.565  19.647  0.00  0.00    +0.000 A 
ATOM      7  C   UNL     1       0.941   3.650  20.080  0.00  0.00    +0.000 C 
ATOM      8  C   UNL     1       1.304   2.176  19.757  0.00  0.00    +0.000 C 
ATOM      9  C   UNL     1       1.939   2.018  18.370  0.00  0.00    +0.000 C 
ATOM     10  C   UNL     1       3.252   2.797  18.295  0.00  0.00    +0.000 C 
BRANCH   4  11
ATOM     11  C   UNL     1       5.030   5.390  17.704  0.00  0.00    +0.000 A 
ATOM     12  C   UNL     1       4.864   5.688  16.365  0.00  0.00    +0.000 A 
ATOM     13  C   UNL     1       5.905   5.437  15.474  0.00  0.00    +0.000 A 
ATOM     14  C   UNL     1       7.108   4.938  15.961  0.00  0.00    +0.000 A 
ATOM     15  C   UNL     1       7.220   4.722  17.322  0.00  0.00    +0.000 A 
ATOM     16  N   UNL     1       6.217   4.937  18.203  0.00  0.00    +0.000 NA
ENDBRANCH   4  11
ENDBRANCH   1   2
BRANCH   1  17
ATOM     17  C   UNL     1       1.789   8.320  20.550  0.00  0.00    +0.000 C 
BRANCH  17  18
ATOM     18  N   UNL     1       1.362   8.975  19.282  0.00  0.00    +0.000 NA
ATOM     19  H   UNL     1       2.151   9.426  18.810  0.00  0.00    +0.000 HD
BRANCH  18  20
ATOM     20  S   UNL     1       0.081  10.072  19.498  0.00  0.00    +0.000 S 
ATOM     21  O   UNL     1      -0.767   9.524  20.522  0.00  0.00    +0.000 OA
ATOM     22  O   UNL     1      -0.428  10.425  18.180  0.00  0.00    +0.000 OA
BRANCH  20  30
ATOM     23  C   UNL     1      -0.685  11.678  22.422  0.00  0.00    +0.000 C 
ATOM     24  C   UNL     1       0.241  12.171  21.370  0.00  0.00    +0.000 A 
ATOM     25  N   UNL     1       0.844  13.354  21.548  0.00  0.00    +0.000 NA
ATOM     26  N   UNL     1       1.628  13.503  20.465  0.00  0.00    +0.000 N 
ATOM     27  C   UNL     1       2.429  14.699  20.347  0.00  0.00    +0.000 C 
ATOM     28  C   UNL     1       1.569  12.438  19.599  0.00  0.00    +0.000 A 
ATOM     29  C   UNL     1       2.375  12.347  18.352  0.00  0.00    +0.000 C 
ATOM     30  C   UNL     1       0.644  11.571  20.147  0.00  0.00    +0.000 A 
ENDBRANCH  20  30
ENDBRANCH  18  20
ENDBRANCH  17  18
ENDBRANCH   1  17
TORSDOF 6
ENDMDL
MODEL 9
REMARK VINA RESULT:      -8.1      2.375      4.372
REMARK  Name = 
REMARK  9 active torsions:
REMARK  status: ('A' for Active; 'I' for Inactive)
REMARK    1  A    between atoms: C_1  and  C_2
REMARK    2  A    between atoms: N_4  and  C_5
REMARK    3  A    between atoms: C_6  and  C_7
REMARK    4  A    between atoms: C_8  and  S_9
REMARK    5  A    between atoms: S_9  and  N_12
REMARK    6  A    between atoms: N_12  and  C_13
REMARK    7  A    between atoms: C_13  and  C_14
REMARK    8  A    between atoms: C_14  and  N_15
REMARK    9  A    between atoms: C_17  and  C_18
REMARK                            x       y       z     vdW  Elec       q    Type
REMARK                         _______ _______ _______ _____ _____    ______ ____
ROOT
ATOM      1  C   UNL     1       2.890   8.514  17.631  0.00  0.00    +0.000 C 
ENDROOT
BRANCH   1   2
ATOM      2  N   UNL     1       3.151   7.081  17.767  0.00  0.00    +0.000 N 
ATOM      3  N   UNL     1       2.467   6.386  18.718  0.00  0.00    +0.000 NA
ATOM      4  C   UNL     1       2.915   5.113  18.623  0.00  0.00    +0.000 A 
ATOM      5  C   UNL     1       3.900   5.021  17.615  0.00  0.00    +0.000 A 
ATOM      6  C   UNL     1       4.039   6.284  17.081  0.00  0.00    +0.000 A 
ATOM      7  C   UNL     1       5.026   6.629  16.015  0.00  0.00    +0.000 C 
ATOM      8  C   UNL     1       5.608   5.340  15.376  0.00  0.00    +0.000 C 
ATOM      9  C   UNL     1       5.943   4.268  16.421  0.00  0.00    +0.000 C 
ATOM     10  C   UNL     1       4.678   3.832  17.161  0.00  0.00    +0.000 C 
BRANCH   4  11
ATOM     11  C   UNL     1       2.513   4.009  19.509  0.00  0.00    +0.000 A 
ATOM     12  C   UNL     1       1.174   3.740  19.725  0.00  0.00    +0.000 A 
ATOM     13  C   UNL     1       0.805   2.920  20.788  0.00  0.00    +0.000 A 
ATOM     14  C   UNL     1       1.794   2.346  21.578  0.00  0.00    +0.000 A 
ATOM     15  C   UNL     1       3.114   2.612  21.262  0.00  0.00    +0.000 A 
ATOM     16  N   UNL     1       3.497   3.423  20.251  0.00  0.00    +0.000 NA
ENDBRANCH   4  11
ENDBRANCH   1   2
BRANCH   1  17
ATOM     17  C   UNL     1       1.672   9.048  18.408  0.00  0.00    +0.000 C 
BRANCH  17  18
ATOM     18  N   UNL     1       0.997  10.245  17.832  0.00  0.00    +0.000 NA
ATOM     19  H   UNL     1       1.678  10.926  17.483  0.00  0.00    +0.000 HD
BRANCH  18  20
ATOM     20  S   UNL     1      -0.091  10.979  18.913  0.00  0.00    +0.000 S 
ATOM     21  O   UNL     1      -0.494   9.966  19.850  0.00  0.00    +0.000 OA
ATOM     22  O   UNL     1      -1.058  11.732  18.125  0.00  0.00    +0.000 OA
BRANCH  20  30
ATOM     23  C   UNL     1      -0.699  12.048  22.106  0.00  0.00    +0.000 C 
ATOM     24  C   UNL     1       0.348  12.575  21.193  0.00  0.00    +0.000 A 
ATOM     25  N   UNL     1       1.141  13.564  21.626  0.00  0.00    +0.000 NA
ATOM     26  N   UNL     1       1.988  13.792  20.606  0.00  0.00    +0.000 N 
ATOM     27  C   UNL     1       2.992  14.820  20.755  0.00  0.00    +0.000 C 
ATOM     28  C   UNL     1       1.784  12.961  19.531  0.00  0.00    +0.000 A 
ATOM     29  C   UNL     1       2.619  12.988  18.300  0.00  0.00    +0.000 C 
ATOM     30  C   UNL     1       0.696  12.181  19.873  0.00  0.00    +0.000 A 
ENDBRANCH  20  30
ENDBRANCH  18  20
ENDBRANCH  17  18
ENDBRANCH   1  17
TORSDOF 6
ENDMDL
