MODEL 1
REMARK VINA RESULT:      -8.2      0.000      0.000
REMARK  Name = 
REMARK  5 active torsions:
REMARK  status: ('A' for Active; 'I' for Inactive)
REMARK    1  A    between atoms: C_1  and  C_2
REMARK    2  A    between atoms: C_2  and  C_3
REMARK    3  A    between atoms: C_6  and  C_7
REMARK    4  A    between atoms: C_7  and  N_8
REMARK    5  A    between atoms: C_9  and  C_11
REMARK                            x       y       z     vdW  Elec       q    Type
REMARK                         _______ _______ _______ _____ _____    ______ ____
ROOT
ATOM      1  N   UNL     1       0.584  10.164  20.391  0.00  0.00    +0.000 N 
ATOM      2  C   UNL     1       0.556   8.869  20.861  0.00  0.00    +0.000 C 
ATOM      3  O   UNL     1      -0.405   8.401  21.467  0.00  0.00    +0.000 OA
ATOM      4  H   UNL     1       1.351  10.470  19.806  0.00  0.00    +0.000 HD
ENDROOT
BRANCH   2   5
ATOM      5  C   UNL     1       1.773   8.012  20.467  0.00  0.00    +0.000 C 
ATOM      6  C   UNL     1       1.525   6.505  20.723  0.00  0.00    +0.000 C 
ATOM      7  C   UNL     1       2.272   5.493  19.835  0.00  0.00    +0.000 C 
ATOM      8  N   UNL     1       2.909   6.029  18.658  0.00  0.00    +0.000 N 
ATOM      9  C   UNL     1       2.957   7.362  18.353  0.00  0.00    +0.000 A 
ATOM     10  N   UNL     1       3.830   7.604  17.403  0.00  0.00    +0.000 NA
ATOM     11  C   UNL     1       4.259   6.370  16.988  0.00  0.00    +0.000 A 
ATOM     12  C   UNL     1       5.169   6.047  15.972  0.00  0.00    +0.000 A 
ATOM     13  C   UNL     1       5.398   4.701  15.674  0.00  0.00    +0.000 A 
ATOM     14  C   UNL     1       4.732   3.694  16.376  0.00  0.00    +0.000 A 
ATOM     15  C   UNL     1       3.845   3.994  17.422  0.00  0.00    +0.000 A 
ATOM     16  C   UNL     1       3.641   5.350  17.718  0.00  0.00    +0.000 A 
ATOM     17  C   UNL     1       2.062   8.342  19.004  0.00  0.00    +0.000 C 
ENDBRANCH   2   5
BRANCH   1  18
ATOM     18  C   UNL     1      -0.602  11.006  20.415  0.00  0.00    +0.000 C 
BRANCH  18  22
ATOM     19  C   UNL     1      -2.981  10.717  16.794  0.00  0.00    +0.000 A 
ATOM     20  C   UNL     1      -1.845   9.917  16.961  0.00  0.00    +0.000 A 
ATOM     21  C   UNL     1      -1.064  10.018  18.121  0.00  0.00    +0.000 A 
ATOM     22  C   UNL     1      -1.407  10.919  19.141  0.00  0.00    +0.000 A 
ATOM     23  C   UNL     1      -2.561  11.698  18.979  0.00  0.00    +0.000 A 
ATOM     24  C   UNL     1      -3.339  11.599  17.820  0.00  0.00    +0.000 A 
BRANCH  19  26
ATOM     25  C   UNL     1      -3.048  10.056  14.350  0.00  0.00    +0.000 C 
ATOM     26  C   UNL     1      -3.805  10.644  15.532  0.00  0.00    +0.000 C 
ENDBRANCH  19  26
ENDBRANCH  18  22
ENDBRANCH   1  18
TORSDOF 4
ENDMDL
MODEL 2
REMARK VINA RESULT:      -8.2      5.584      8.491
REMARK  Name = 
REMARK  5 active torsions:
REMARK  status: ('A' for Active; 'I' for Inactive)
REMARK    1  A    between atoms: C_1  and  C_2
REMARK    2  A    between atoms: C_2  and  C_3
REMARK    3  A    between atoms: C_6  and  C_7
REMARK    4  A    between atoms: C_7  and  N_8
REMARK    5  A    between atoms: C_9  and  C_11
REMARK                            x       y       z     vdW  Elec       q    Type
REMARK                         _______ _______ _______ _____ _____    ______ ____
ROOT
ATOM      1  N   UNL     1       7.150   4.786  15.894  0.00  0.00    +0.000 N 
ATOM      2  C   UNL     1       7.128   5.921  16.676  0.00  0.00    +0.000 C 
ATOM      3  O   UNL     1       7.692   6.963  16.352  0.00  0.00    +0.000 OA
ATOM      4  H   UNL     1       6.584   3.988  16.151  0.00  0.00    +0.000 HD
ENDROOT
BRANCH   2   5
ATOM      5  C   UNL     1       6.246   5.822  17.934  0.00  0.00    +0.000 C 
ATOM      6  C   UNL     1       4.928   6.619  17.778  0.00  0.00    +0.000 C 
ATOM      7  C   UNL     1       3.698   6.135  18.569  0.00  0.00    +0.000 C 
ATOM      8  N   UNL     1       3.796   4.820  19.153  0.00  0.00    +0.000 N 
ATOM      9  C   UNL     1       4.925   4.050  19.118  0.00  0.00    +0.000 A 
ATOM     10  N   UNL     1       4.845   3.045  19.961  0.00  0.00    +0.000 NA
ATOM     11  C   UNL     1       3.566   3.094  20.454  0.00  0.00    +0.000 A 
ATOM     12  C   UNL     1       2.938   2.232  21.364  0.00  0.00    +0.000 A 
ATOM     13  C   UNL     1       1.589   2.437  21.666  0.00  0.00    +0.000 A 
ATOM     14  C   UNL     1       0.879   3.483  21.072  0.00  0.00    +0.000 A 
ATOM     15  C   UNL     1       1.498   4.378  20.186  0.00  0.00    +0.000 A 
ATOM     16  C   UNL     1       2.856   4.167  19.908  0.00  0.00    +0.000 A 
ATOM     17  C   UNL     1       6.032   4.330  18.179  0.00  0.00    +0.000 C 
ENDBRANCH   2   5
BRANCH   1  18
ATOM     18  C   UNL     1       7.682   4.807  14.540  0.00  0.00    +0.000 C 
BRANCH  18  22
ATOM     19  C   UNL     1       4.806   3.351  11.630  0.00  0.00    +0.000 A 
ATOM     20  C   UNL     1       6.161   3.453  11.297  0.00  0.00    +0.000 A 
ATOM     21  C   UNL     1       7.091   3.938  12.228  0.00  0.00    +0.000 A 
ATOM     22  C   UNL     1       6.685   4.326  13.513  0.00  0.00    +0.000 A 
ATOM     23  C   UNL     1       5.330   4.196  13.850  0.00  0.00    +0.000 A 
ATOM     24  C   UNL     1       4.401   3.716  12.920  0.00  0.00    +0.000 A 
BRANCH  19  26
ATOM     25  C   UNL     1       3.125   3.998   9.850  0.00  0.00    +0.000 C 
ATOM     26  C   UNL     1       3.791   2.869  10.623  0.00  0.00    +0.000 C 
ENDBRANCH  19  26
ENDBRANCH  18  22
ENDBRANCH   1  18
TORSDOF 4
ENDMDL
MODEL 3
REMARK VINA RESULT:      -7.9      0.332      1.017
REMARK  Name = 
REMARK  5 active torsions:
REMARK  status: ('A' for Active; 'I' for Inactive)
REMARK    1  A    between atoms: C_1  and  C_2
REMARK    2  A    between atoms: C_2  and  C_3
REMARK    3  A    between atoms: C_6  and  C_7
REMARK    4  A    between atoms: C_7  and  N_8
REMARK    5  A    between atoms: C_9  and  C_11
REMARK                            x       y       z     vdW  Elec       q    Type
REMARK                         _______ _______ _______ _____ _____    ______ ____
ROOT
ATOM      1  N   UNL     1       0.614   9.873  20.689  0.00  0.00    +0.000 N 
ATOM      2  C   UNL     1       0.575   8.535  21.016  0.00  0.00    +0.000 C 
ATOM      3  O   UNL     1      -0.399   8.008  21.549  0.00  0.00    +0.000 OA
ATOM      4  H   UNL     1       1.393  10.237  20.156  0.00  0.00    +0.000 HD
ENDROOT
BRANCH   2   5
ATOM      5  C   UNL     1       1.798   7.720  20.559  0.00  0.00    +0.000 C 
ATOM      6  C   UNL     1       1.561   6.197  20.696  0.00  0.00    +0.000 C 
ATOM      7  C   UNL     1       2.317   5.263  19.732  0.00  0.00    +0.000 C 
ATOM      8  N   UNL     1       2.950   5.894  18.601  0.00  0.00    +0.000 N 
ATOM      9  C   UNL     1       2.988   7.247  18.402  0.00  0.00    +0.000 A 
ATOM     10  N   UNL     1       3.860   7.569  17.475  0.00  0.00    +0.000 NA
ATOM     11  C   UNL     1       4.299   6.374  16.965  0.00  0.00    +0.000 A 
ATOM     12  C   UNL     1       5.212   6.139  15.927  0.00  0.00    +0.000 A 
ATOM     13  C   UNL     1       5.452   4.822  15.525  0.00  0.00    +0.000 A 
ATOM     14  C   UNL     1       4.793   3.758  16.147  0.00  0.00    +0.000 A 
ATOM     15  C   UNL     1       3.903   3.969  17.211  0.00  0.00    +0.000 A 
ATOM     16  C   UNL     1       3.688   5.296  17.612  0.00  0.00    +0.000 A 
ATOM     17  C   UNL     1       2.086   8.167  19.126  0.00  0.00    +0.000 C 
ENDBRANCH   2   5
BRANCH   1  18
ATOM     18  C   UNL     1      -0.571  10.712  20.779  0.00  0.00    +0.000 C 
BRANCH  18  22
ATOM     19  C   UNL     1      -2.661  11.029  16.985  0.00  0.00    +0.000 A 
ATOM     20  C   UNL     1      -3.107  11.745  18.102  0.00  0.00    +0.000 A 
ATOM     21  C   UNL     1      -2.446  11.633  19.333  0.00  0.00    +0.000 A 
ATOM     22  C   UNL     1      -1.321  10.807  19.471  0.00  0.00    +0.000 A 
ATOM     23  C   UNL     1      -0.862  10.114  18.342  0.00  0.00    +0.000 A 
ATOM     24  C   UNL     1      -1.525  10.222  17.114  0.00  0.00    +0.000 A 
BRANCH  19  26
ATOM     25  C   UNL     1      -3.073   9.954  14.730  0.00  0.00    +0.000 C 
ATOM     26  C   UNL     1      -3.390  11.111  15.666  0.00  0.00    +0.000 C 
ENDBRANCH  19  26
ENDBRANCH  18  22
ENDBRANCH   1  18
TORSDOF 4
ENDMDL
MODEL 4
REMARK VINA RESULT:      -7.8      2.323      8.530
REMARK  Name = 
REMARK  5 active torsions:
REMARK  status: ('A' for Active; 'I' for Inactive)
REMARK    1  A    between atoms: C_1  and  C_2
REMARK    2  A    between atoms: C_2  and  C_3
REMARK    3  A    between atoms: C_6  and  C_7
REMARK    4  A    between atoms: C_7  and  N_8
REMARK    5  A    between atoms: C_9  and  C_11
REMARK                            x       y       z     vdW  Elec       q    Type
REMARK                         _______ _______ _______ _____ _____    ______ ____
ROOT
ATOM      1  N   UNL     1       2.957   6.419  18.790  0.00  0.00    +0.000 N 
ATOM      2  C   UNL     1       2.175   6.729  19.881  0.00  0.00    +0.000 C 
ATOM      3  O   UNL     1       1.787   5.883  20.684  0.00  0.00    +0.000 OA
ATOM      4  H   UNL     1       3.339   7.162  18.218  0.00  0.00    +0.000 HD
ENDROOT
BRANCH   2   5
ATOM      5  C   UNL     1       1.917   8.233  20.087  0.00  0.00    +0.000 C 
ATOM      6  C   UNL     1       1.320   8.894  18.821  0.00  0.00    +0.000 C 
ATOM      7  C   UNL     1       0.418  10.128  19.013  0.00  0.00    +0.000 C 
ATOM      8  N   UNL     1      -0.030  10.384  20.360  0.00  0.00    +0.000 N 
ATOM      9  C   UNL     1       0.371   9.662  21.450  0.00  0.00    +0.000 A 
ATOM     10  N   UNL     1       0.056  10.272  22.569  0.00  0.00    +0.000 NA
ATOM     11  C   UNL     1      -0.693  11.356  22.188  0.00  0.00    +0.000 A 
ATOM     12  C   UNL     1      -1.313  12.326  22.988  0.00  0.00    +0.000 A 
ATOM     13  C   UNL     1      -2.097  13.307  22.373  0.00  0.00    +0.000 A 
ATOM     14  C   UNL     1      -2.260  13.320  20.986  0.00  0.00    +0.000 A 
ATOM     15  C   UNL     1      -1.619  12.380  20.164  0.00  0.00    +0.000 A 
ATOM     16  C   UNL     1      -0.823  11.414  20.797  0.00  0.00    +0.000 A 
ATOM     17  C   UNL     1       1.014   8.338  21.314  0.00  0.00    +0.000 C 
ENDBRANCH   2   5
BRANCH   1  18
ATOM     18  C   UNL     1       3.536   5.096  18.621  0.00  0.00    +0.000 C 
BRANCH  18  22
ATOM     19  C   UNL     1       5.895   4.696  14.997  0.00  0.00    +0.000 A 
ATOM     20  C   UNL     1       5.487   5.959  15.441  0.00  0.00    +0.000 A 
ATOM     21  C   UNL     1       4.711   6.091  16.601  0.00  0.00    +0.000 A 
ATOM     22  C   UNL     1       4.333   4.964  17.345  0.00  0.00    +0.000 A 
ATOM     23  C   UNL     1       4.768   3.704  16.911  0.00  0.00    +0.000 A 
ATOM     24  C   UNL     1       5.540   3.571  15.750  0.00  0.00    +0.000 A 
BRANCH  19  26
ATOM     25  C   UNL     1       6.071   3.568  12.737  0.00  0.00    +0.000 C 
ATOM     26  C   UNL     1       6.696   4.538  13.728  0.00  0.00    +0.000 C 
ENDBRANCH  19  26
ENDBRANCH  18  22
ENDBRANCH   1  18
TORSDOF 4
ENDMDL
MODEL 5
REMARK VINA RESULT:      -7.7      5.669      8.428
REMARK  Name = 
REMARK  5 active torsions:
REMARK  status: ('A' for Active; 'I' for Inactive)
REMARK    1  A    between atoms: C_1  and  C_2
REMARK    2  A    between atoms: C_2  and  C_3
REMARK    3  A    between atoms: C_6  and  C_7
REMARK    4  A    between atoms: C_7  and  N_8
REMARK    5  A    between atoms: C_9  and  C_11
REMARK                            x       y       z     vdW  Elec       q    Type
REMARK                         _______ _______ _______ _____ _____    ______ ____
ROOT
ATOM      1  N   UNL     1       7.279   8.069  17.992  0.00  0.00    +0.000 N 
ATOM      2  C   UNL     1       6.994   7.121  17.034  0.00  0.00    +0.000 C 
ATOM      3  O   UNL     1       7.850   6.645  16.293  0.00  0.00    +0.000 OA
ATOM      4  H   UNL     1       6.563   8.352  18.649  0.00  0.00    +0.000 HD
ENDROOT
BRANCH   2   5
ATOM      5  C   UNL     1       5.540   6.615  17.038  0.00  0.00    +0.000 C 
ATOM      6  C   UNL     1       5.362   5.362  16.145  0.00  0.00    +0.000 C 
ATOM      7  C   UNL     1       4.247   4.367  16.517  0.00  0.00    +0.000 C 
ATOM      8  N   UNL     1       3.658   4.532  17.823  0.00  0.00    +0.000 N 
ATOM      9  C   UNL     1       3.968   5.552  18.679  0.00  0.00    +0.000 A 
ATOM     10  N   UNL     1       3.096   5.638  19.657  0.00  0.00    +0.000 NA
ATOM     11  C   UNL     1       2.274   4.551  19.499  0.00  0.00    +0.000 A 
ATOM     12  C   UNL     1       1.193   4.140  20.291  0.00  0.00    +0.000 A 
ATOM     13  C   UNL     1       0.543   2.943  19.976  0.00  0.00    +0.000 A 
ATOM     14  C   UNL     1       0.963   2.170  18.891  0.00  0.00    +0.000 A 
ATOM     15  C   UNL     1       2.020   2.582  18.065  0.00  0.00    +0.000 A 
ATOM     16  C   UNL     1       2.649   3.793  18.386  0.00  0.00    +0.000 A 
ATOM     17  C   UNL     1       5.184   6.374  18.504  0.00  0.00    +0.000 C 
ENDBRANCH   2   5
BRANCH   1  18
ATOM     18  C   UNL     1       8.650   8.429  18.320  0.00  0.00    +0.000 C 
BRANCH  18  22
ATOM     19  C   UNL     1       9.204  12.684  18.985  0.00  0.00    +0.000 A 
ATOM     20  C   UNL     1       9.629  11.756  19.943  0.00  0.00    +0.000 A 
ATOM     21  C   UNL     1       9.438  10.382  19.740  0.00  0.00    +0.000 A 
ATOM     22  C   UNL     1       8.822   9.908  18.572  0.00  0.00    +0.000 A 
ATOM     23  C   UNL     1       8.423  10.841  17.605  0.00  0.00    +0.000 A 
ATOM     24  C   UNL     1       8.611  12.213  17.809  0.00  0.00    +0.000 A 
BRANCH  19  26
ATOM     25  C   UNL     1      10.743  14.546  19.746  0.00  0.00    +0.000 C 
ATOM     26  C   UNL     1       9.370  14.167  19.211  0.00  0.00    +0.000 C 
ENDBRANCH  19  26
ENDBRANCH  18  22
ENDBRANCH   1  18
TORSDOF 4
ENDMDL
MODEL 6
REMARK VINA RESULT:      -7.6      2.382      8.535
REMARK  Name = 
REMARK  5 active torsions:
REMARK  status: ('A' for Active; 'I' for Inactive)
REMARK    1  A    between atoms: C_1  and  C_2
REMARK    2  A    between atoms: C_2  and  C_3
REMARK    3  A    between atoms: C_6  and  C_7
REMARK    4  A    between atoms: C_7  and  N_8
REMARK    5  A    between atoms: C_9  and  C_11
REMARK                            x       y       z     vdW  Elec       q    Type
REMARK                         _______ _______ _______ _____ _____    ______ ____
ROOT
ATOM      1  N   UNL     1       2.779   6.750  19.207  0.00  0.00    +0.000 N 
ATOM      2  C   UNL     1       1.921   7.067  20.237  0.00  0.00    +0.000 C 
ATOM      3  O   UNL     1       1.455   6.223  20.999  0.00  0.00    +0.000 OA
ATOM      4  H   UNL     1       3.220   7.489  18.674  0.00  0.00    +0.000 HD
ENDROOT
BRANCH   2   5
ATOM      5  C   UNL     1       1.679   8.574  20.437  0.00  0.00    +0.000 C 
ATOM      6  C   UNL     1       1.136   9.247  19.153  0.00  0.00    +0.000 C 
ATOM      7  C   UNL     1       0.247  10.493  19.315  0.00  0.00    +0.000 C 
ATOM      8  N   UNL     1      -0.244  10.754  20.646  0.00  0.00    +0.000 N 
ATOM      9  C   UNL     1       0.108  10.025  21.748  0.00  0.00    +0.000 A 
ATOM     10  N   UNL     1      -0.237  10.638  22.857  0.00  0.00    +0.000 NA
ATOM     11  C   UNL     1      -0.956  11.733  22.452  0.00  0.00    +0.000 A 
ATOM     12  C   UNL     1      -1.589  12.711  23.232  0.00  0.00    +0.000 A 
ATOM     13  C   UNL     1      -2.336  13.704  22.593  0.00  0.00    +0.000 A 
ATOM     14  C   UNL     1      -2.450  13.722  21.201  0.00  0.00    +0.000 A 
ATOM     15  C   UNL     1      -1.795  12.773  20.400  0.00  0.00    +0.000 A 
ATOM     16  C   UNL     1      -1.036  11.795  21.058  0.00  0.00    +0.000 A 
ATOM     17  C   UNL     1       0.736   8.691  21.632  0.00  0.00    +0.000 C 
ENDBRANCH   2   5
BRANCH   1  18
ATOM     18  C   UNL     1       3.343   5.416  19.071  0.00  0.00    +0.000 C 
BRANCH  18  22
ATOM     19  C   UNL     1       5.693   4.994  15.443  0.00  0.00    +0.000 A 
ATOM     20  C   UNL     1       5.262   3.862  16.144  0.00  0.00    +0.000 A 
ATOM     21  C   UNL     1       4.517   3.993  17.324  0.00  0.00    +0.000 A 
ATOM     22  C   UNL     1       4.183   5.260  17.825  0.00  0.00    +0.000 A 
ATOM     23  C   UNL     1       4.595   6.390  17.105  0.00  0.00    +0.000 A 
ATOM     24  C   UNL     1       5.342   6.259  15.928  0.00  0.00    +0.000 A 
BRANCH  19  26
ATOM     25  C   UNL     1       6.112   3.701  13.307  0.00  0.00    +0.000 C 
ATOM     26  C   UNL     1       6.529   4.865  14.194  0.00  0.00    +0.000 C 
ENDBRANCH  19  26
ENDBRANCH  18  22
ENDBRANCH   1  18
TORSDOF 4
ENDMDL
MODEL 7
REMARK VINA RESULT:      -7.6      2.418      8.791
REMARK  Name = 
REMARK  5 active torsions:
REMARK  status: ('A' for Active; 'I' for Inactive)
REMARK    1  A    between atoms: C_1  and  C_2
REMARK    2  A    between atoms: C_2  and  C_3
REMARK    3  A    between atoms: C_6  and  C_7
REMARK    4  A    between atoms: C_7  and  N_8
REMARK    5  A    between atoms: C_9  and  C_11
REMARK                            x       y       z     vdW  Elec       q    Type
REMARK                         _______ _______ _______ _____ _____    ______ ____
ROOT
ATOM      1  N   UNL     1       1.221   8.886  17.930  0.00  0.00    +0.000 N 
ATOM      2  C   UNL     1       0.641   9.709  18.870  0.00  0.00    +0.000 C 
ATOM      3  O   UNL     1       1.057   9.800  20.023  0.00  0.00    +0.000 OA
ATOM      4  H   UNL     1       0.910   8.925  16.967  0.00  0.00    +0.000 HD
ENDROOT
BRANCH   2   5
ATOM      5  C   UNL     1      -0.500  10.596  18.338  0.00  0.00    +0.000 C 
ATOM      6  C   UNL     1      -1.370   9.853  17.296  0.00  0.00    +0.000 C 
ATOM      7  C   UNL     1      -2.846  10.273  17.162  0.00  0.00    +0.000 C 
ATOM      8  N   UNL     1      -3.365  11.114  18.213  0.00  0.00    +0.000 N 
ATOM      9  C   UNL     1      -2.609  11.613  19.237  0.00  0.00    +0.000 A 
ATOM     10  N   UNL     1      -3.243  12.568  19.879  0.00  0.00    +0.000 NA
ATOM     11  C   UNL     1      -4.501  12.589  19.335  0.00  0.00    +0.000 A 
ATOM     12  C   UNL     1      -5.596  13.396  19.675  0.00  0.00    +0.000 A 
ATOM     13  C   UNL     1      -6.817  13.186  19.026  0.00  0.00    +0.000 A 
ATOM     14  C   UNL     1      -6.943  12.189  18.055  0.00  0.00    +0.000 A 
ATOM     15  C   UNL     1      -5.850  11.395  17.674  0.00  0.00    +0.000 A 
ATOM     16  C   UNL     1      -4.630  11.632  18.324  0.00  0.00    +0.000 A 
ATOM     17  C   UNL     1      -1.280  11.056  19.568  0.00  0.00    +0.000 C 
ENDBRANCH   2   5
BRANCH   1  18
ATOM     18  C   UNL     1       2.485   8.213  18.185  0.00  0.00    +0.000 C 
BRANCH  18  22
ATOM     19  C   UNL     1       1.888   4.181  19.683  0.00  0.00    +0.000 A 
ATOM     20  C   UNL     1       1.959   5.263  20.569  0.00  0.00    +0.000 A 
ATOM     21  C   UNL     1       2.168   6.564  20.091  0.00  0.00    +0.000 A 
ATOM     22  C   UNL     1       2.305   6.811  18.717  0.00  0.00    +0.000 A 
ATOM     23  C   UNL     1       2.206   5.728  17.834  0.00  0.00    +0.000 A 
ATOM     24  C   UNL     1       2.001   4.428  18.310  0.00  0.00    +0.000 A 
BRANCH  19  26
ATOM     25  C   UNL     1       1.737   2.667  21.707  0.00  0.00    +0.000 C 
ATOM     26  C   UNL     1       1.703   2.772  20.189  0.00  0.00    +0.000 C 
ENDBRANCH  19  26
ENDBRANCH  18  22
ENDBRANCH   1  18
TORSDOF 4
ENDMDL
MODEL 8
REMARK VINA RESULT:      -7.6      2.508      8.586
REMARK  Name = 
REMARK  5 active torsions:
REMARK  status: ('A' for Active; 'I' for Inactive)
REMARK    1  A    between atoms: C_1  and  C_2
REMARK    2  A    between atoms: C_2  and  C_3
REMARK    3  A    between atoms: C_6  and  C_7
REMARK    4  A    between atoms: C_7  and  N_8
REMARK    5  A    between atoms: C_9  and  C_11
REMARK                            x       y       z     vdW  Elec       q    Type
REMARK                         _______ _______ _______ _____ _____    ______ ____
ROOT
ATOM      1  N   UNL     1       4.376   6.214  18.491  0.00  0.00    +0.000 N 
ATOM      2  C   UNL     1       3.020   6.440  18.582  0.00  0.00    +0.000 C 
ATOM      3  O   UNL     1       2.183   5.574  18.335  0.00  0.00    +0.000 OA
ATOM      4  H   UNL     1       5.026   6.922  18.807  0.00  0.00    +0.000 HD
ENDROOT
BRANCH   2   5
ATOM      5  C   UNL     1       2.630   7.825  19.128  0.00  0.00    +0.000 C 
ATOM      6  C   UNL     1       1.907   8.683  18.061  0.00  0.00    +0.000 C 
ATOM      7  C   UNL     1       0.901   9.741  18.550  0.00  0.00    +0.000 C 
ATOM      8  N   UNL     1       0.501   9.645  19.933  0.00  0.00    +0.000 N 
ATOM      9  C   UNL     1       1.025   8.748  20.821  0.00  0.00    +0.000 A 
ATOM     10  N   UNL     1       0.711   9.059  22.057  0.00  0.00    +0.000 NA
ATOM     11  C   UNL     1      -0.158  10.114  21.951  0.00  0.00    +0.000 A 
ATOM     12  C   UNL     1      -0.826  10.813  22.966  0.00  0.00    +0.000 A 
ATOM     13  C   UNL     1      -1.732  11.817  22.610  0.00  0.00    +0.000 A 
ATOM     14  C   UNL     1      -1.967  12.118  21.267  0.00  0.00    +0.000 A 
ATOM     15  C   UNL     1      -1.282  11.456  20.237  0.00  0.00    +0.000 A 
ATOM     16  C   UNL     1      -0.365  10.464  20.613  0.00  0.00    +0.000 A 
ATOM     17  C   UNL     1       1.785   7.561  20.373  0.00  0.00    +0.000 C 
ENDBRANCH   2   5
BRANCH   1  18
ATOM     18  C   UNL     1       4.912   4.877  18.284  0.00  0.00    +0.000 C 
BRANCH  18  22
ATOM     19  C   UNL     1       6.499   4.387  14.271  0.00  0.00    +0.000 A 
ATOM     20  C   UNL     1       5.163   4.073  14.548  0.00  0.00    +0.000 A 
ATOM     21  C   UNL     1       4.651   4.214  15.846  0.00  0.00    +0.000 A 
ATOM     22  C   UNL     1       5.462   4.677  16.891  0.00  0.00    +0.000 A 
ATOM     23  C   UNL     1       6.791   5.016  16.602  0.00  0.00    +0.000 A 
ATOM     24  C   UNL     1       7.304   4.872  15.308  0.00  0.00    +0.000 A 
BRANCH  19  26
ATOM     25  C   UNL     1       6.243   3.272  12.012  0.00  0.00    +0.000 C 
ATOM     26  C   UNL     1       7.071   4.201  12.887  0.00  0.00    +0.000 C 
ENDBRANCH  19  26
ENDBRANCH  18  22
ENDBRANCH   1  18
TORSDOF 4
ENDMDL
MODEL 9
REMARK VINA RESULT:      -7.5      2.867      3.786
REMARK  Name = 
REMARK  5 active torsions:
REMARK  status: ('A' for Active; 'I' for Inactive)
REMARK    1  A    between atoms: C_1  and  C_2
REMARK    2  A    between atoms: C_2  and  C_3
REMARK    3  A    between atoms: C_6  and  C_7
REMARK    4  A    between atoms: C_7  and  N_8
REMARK    5  A    between atoms: C_9  and  C_11
REMARK                            x       y       z     vdW  Elec       q    Type
REMARK                         _______ _______ _______ _____ _____    ______ ____
ROOT
ATOM      1  N   UNL     1       2.194   6.787  20.581  0.00  0.00    +0.000 N 
ATOM      2  C   UNL     1       1.958   5.446  20.371  0.00  0.00    +0.000 C 
ATOM      3  O   UNL     1       0.940   4.880  20.762  0.00  0.00    +0.000 OA
ATOM      4  H   UNL     1       2.994   7.231  20.149  0.00  0.00    +0.000 HD
ENDROOT
BRANCH   2   5
ATOM      5  C   UNL     1       3.014   4.731  19.508  0.00  0.00    +0.000 C 
ATOM      6  C   UNL     1       2.363   3.816  18.441  0.00  0.00    +0.000 C 
ATOM      7  C   UNL     1       3.142   3.568  17.137  0.00  0.00    +0.000 C 
ATOM      8  N   UNL     1       4.270   4.435  16.895  0.00  0.00    +0.000 N 
ATOM      9  C   UNL     1       4.718   5.372  17.783  0.00  0.00    +0.000 A 
ATOM     10  N   UNL     1       5.910   5.812  17.453  0.00  0.00    +0.000 NA
ATOM     11  C   UNL     1       6.179   5.238  16.237  0.00  0.00    +0.000 A 
ATOM     12  C   UNL     1       7.304   5.396  15.415  0.00  0.00    +0.000 A 
ATOM     13  C   UNL     1       7.325   4.762  14.170  0.00  0.00    +0.000 A 
ATOM     14  C   UNL     1       6.243   3.985  13.750  0.00  0.00    +0.000 A 
ATOM     15  C   UNL     1       5.123   3.785  14.572  0.00  0.00    +0.000 A 
ATOM     16  C   UNL     1       5.127   4.415  15.825  0.00  0.00    +0.000 A 
ATOM     17  C   UNL     1       3.886   5.835  18.915  0.00  0.00    +0.000 C 
ENDBRANCH   2   5
BRANCH   1  18
ATOM     18  C   UNL     1       1.163   7.665  21.112  0.00  0.00    +0.000 C 
BRANCH  18  22
ATOM     19  C   UNL     1       0.991  11.539  19.156  0.00  0.00    +0.000 A 
ATOM     20  C   UNL     1       1.283  10.385  18.419  0.00  0.00    +0.000 A 
ATOM     21  C   UNL     1       1.356   9.135  19.049  0.00  0.00    +0.000 A 
ATOM     22  C   UNL     1       1.132   9.012  20.428  0.00  0.00    +0.000 A 
ATOM     23  C   UNL     1       0.813  10.166  21.156  0.00  0.00    +0.000 A 
ATOM     24  C   UNL     1       0.744  11.415  20.528  0.00  0.00    +0.000 A 
BRANCH  19  26
ATOM     25  C   UNL     1       2.329  13.489  18.251  0.00  0.00    +0.000 C 
ATOM     26  C   UNL     1       0.950  12.895  18.495  0.00  0.00    +0.000 C 
ENDBRANCH  19  26
ENDBRANCH  18  22
ENDBRANCH   1  18
TORSDOF 4
ENDMDL
