MODEL 1
REMARK VINA RESULT:      -8.2      0.000      0.000
REMARK  Name = 
REMARK  5 active torsions:
REMARK  status: ('A' for Active; 'I' for Inactive)
REMARK    1  A    between atoms: C_1  and  C_2
REMARK    2  A    between atoms: C_10  and  C_11
REMARK    3  A    between atoms: C_11  and  N_12
REMARK    4  A    between atoms: N_16  and  C_17
REMARK    5  A    between atoms: C_17  and  C_18
REMARK                            x       y       z     vdW  Elec       q    Type
REMARK                         _______ _______ _______ _____ _____    ______ ____
ROOT
ATOM      1  C   UNL     1       3.466   1.482  18.534  0.00  0.00    +0.000 C 
ATOM      2  C   UNL     1       2.676   2.555  19.214  0.00  0.00    +0.000 A 
ATOM      3  C   UNL     1       1.739   2.302  20.141  0.00  0.00    +0.000 A 
ATOM      4  C   UNL     1       1.048   3.368  20.813  0.00  0.00    +0.000 A 
ATOM      5  C   UNL     1       1.360   4.638  20.538  0.00  0.00    +0.000 A 
ATOM      6  N   UNL     1       2.307   4.968  19.578  0.00  0.00    +0.000 N 
ATOM      7  C   UNL     1       2.580   6.304  19.339  0.00  0.00    +0.000 A 
ATOM      8  O   UNL     1       2.103   7.259  19.954  0.00  0.00    +0.000 OA
ATOM      9  C   UNL     1       3.508   6.581  18.236  0.00  0.00    +0.000 A 
ATOM     10  C   UNL     1       4.054   5.558  17.568  0.00  0.00    +0.000 A 
ATOM     11  N   UNL     1       3.808   4.246  17.884  0.00  0.00    +0.000 NA
ATOM     12  C   UNL     1       2.971   3.987  18.846  0.00  0.00    +0.000 A 
ENDROOT
BRANCH  10  13
ATOM     13  C   UNL     1       4.922   5.826  16.343  0.00  0.00    +0.000 C 
BRANCH  13  14
ATOM     14  N   UNL     1       6.017   4.906  16.018  0.00  0.00    +0.000 NA
ATOM     15  C   UNL     1       7.291   5.590  15.726  0.00  0.00    +0.000 C 
ATOM     16  C   UNL     1       7.570   5.317  14.268  0.00  0.00    +0.000 C 
ATOM     17  O   UNL     1       8.531   5.719  13.629  0.00  0.00    +0.000 OA
ATOM     18  N   UNL     1       6.563   4.489  13.823  0.00  0.00    +0.000 N 
ATOM     19  C   UNL     1       5.721   4.042  14.882  0.00  0.00    +0.000 C 
BRANCH  18  20
ATOM     20  C   UNL     1       6.502   3.927  12.496  0.00  0.00    +0.000 C 
BRANCH  20  21
ATOM     21  C   UNL     1       5.332   2.997  12.362  0.00  0.00    +0.000 C 
ATOM     22  C   UNL     1       4.357   3.086  11.211  0.00  0.00    +0.000 C 
ATOM     23  C   UNL     1       5.348   1.959  11.266  0.00  0.00    +0.000 C 
ENDBRANCH  20  21
ENDBRANCH  18  20
ENDBRANCH  13  14
ENDBRANCH  10  13
TORSDOF 4
ENDMDL
MODEL 2
REMARK VINA RESULT:      -7.5      1.594      1.995
REMARK  Name = 
REMARK  5 active torsions:
REMARK  status: ('A' for Active; 'I' for Inactive)
REMARK    1  A    between atoms: C_1  and  C_2
REMARK    2  A    between atoms: C_10  and  C_11
REMARK    3  A    between atoms: C_11  and  N_12
REMARK    4  A    between atoms: N_16  and  C_17
REMARK    5  A    between atoms: C_17  and  C_18
REMARK                            x       y       z     vdW  Elec       q    Type
REMARK                         _______ _______ _______ _____ _____    ______ ____
ROOT
ATOM      1  C   UNL     1       4.076   0.898  18.749  0.00  0.00    +0.000 C 
ATOM      2  C   UNL     1       3.125   2.037  18.937  0.00  0.00    +0.000 A 
ATOM      3  C   UNL     1       1.794   1.879  19.004  0.00  0.00    +0.000 A 
ATOM      4  C   UNL     1       0.922   2.996  19.247  0.00  0.00    +0.000 A 
ATOM      5  C   UNL     1       1.440   4.212  19.443  0.00  0.00    +0.000 A 
ATOM      6  N   UNL     1       2.807   4.446  19.370  0.00  0.00    +0.000 N 
ATOM      7  C   UNL     1       3.278   5.731  19.580  0.00  0.00    +0.000 A 
ATOM      8  O   UNL     1       2.595   6.706  19.897  0.00  0.00    +0.000 OA
ATOM      9  C   UNL     1       4.719   5.926  19.378  0.00  0.00    +0.000 A 
ATOM     10  C   UNL     1       5.482   4.876  19.053  0.00  0.00    +0.000 A 
ATOM     11  N   UNL     1       4.983   3.604  18.923  0.00  0.00    +0.000 NA
ATOM     12  C   UNL     1       3.704   3.422  19.078  0.00  0.00    +0.000 A 
ENDROOT
BRANCH  10  13
ATOM     13  C   UNL     1       6.955   5.081  18.719  0.00  0.00    +0.000 C 
BRANCH  13  14
ATOM     14  N   UNL     1       7.339   5.499  17.367  0.00  0.00    +0.000 NA
ATOM     15  C   UNL     1       6.691   6.752  16.935  0.00  0.00    +0.000 C 
ATOM     16  C   UNL     1       5.782   6.364  15.794  0.00  0.00    +0.000 C 
ATOM     17  O   UNL     1       5.054   7.116  15.163  0.00  0.00    +0.000 OA
ATOM     18  N   UNL     1       5.975   5.017  15.579  0.00  0.00    +0.000 N 
ATOM     19  C   UNL     1       7.050   4.493  16.352  0.00  0.00    +0.000 C 
BRANCH  18  20
ATOM     20  C   UNL     1       5.348   4.268  14.517  0.00  0.00    +0.000 C 
BRANCH  20  21
ATOM     21  C   UNL     1       6.378   3.642  13.624  0.00  0.00    +0.000 C 
ATOM     22  C   UNL     1       6.079   3.253  12.194  0.00  0.00    +0.000 C 
ATOM     23  C   UNL     1       6.939   4.451  12.479  0.00  0.00    +0.000 C 
ENDBRANCH  20  21
ENDBRANCH  18  20
ENDBRANCH  13  14
ENDBRANCH  10  13
TORSDOF 4
ENDMDL
MODEL 3
REMARK VINA RESULT:      -7.5      2.701      4.541
REMARK  Name = 
REMARK  5 active torsions:
REMARK  status: ('A' for Active; 'I' for Inactive)
REMARK    1  A    between atoms: C_1  and  C_2
REMARK    2  A    between atoms: C_10  and  C_11
REMARK    3  A    between atoms: C_11  and  N_12
REMARK    4  A    between atoms: N_16  and  C_17
REMARK    5  A    between atoms: C_17  and  C_18
REMARK                            x       y       z     vdW  Elec       q    Type
REMARK                         _______ _______ _______ _____ _____    ______ ____
ROOT
ATOM      1  C   UNL     1       3.505   1.360  18.485  0.00  0.00    +0.000 C 
ATOM      2  C   UNL     1       2.749   2.492  19.106  0.00  0.00    +0.000 A 
ATOM      3  C   UNL     1       1.779   2.316  20.017  0.00  0.00    +0.000 A 
ATOM      4  C   UNL     1       1.122   3.436  20.632  0.00  0.00    +0.000 A 
ATOM      5  C   UNL     1       1.499   4.679  20.322  0.00  0.00    +0.000 A 
ATOM      6  N   UNL     1       2.484   4.931  19.376  0.00  0.00    +0.000 N 
ATOM      7  C   UNL     1       2.825   6.244  19.098  0.00  0.00    +0.000 A 
ATOM      8  O   UNL     1       2.377   7.241  19.667  0.00  0.00    +0.000 OA
ATOM      9  C   UNL     1       3.791   6.438  18.011  0.00  0.00    +0.000 A 
ATOM     10  C   UNL     1       4.306   5.368  17.393  0.00  0.00    +0.000 A 
ATOM     11  N   UNL     1       3.991   4.081  17.748  0.00  0.00    +0.000 NA
ATOM     12  C   UNL     1       3.119   3.895  18.696  0.00  0.00    +0.000 A 
ENDROOT
BRANCH  10  13
ATOM     13  C   UNL     1       5.214   5.552  16.183  0.00  0.00    +0.000 C 
BRANCH  13  14
ATOM     14  N   UNL     1       6.670   5.518  16.360  0.00  0.00    +0.000 NA
ATOM     15  C   UNL     1       7.112   4.572  17.402  0.00  0.00    +0.000 C 
ATOM     16  C   UNL     1       7.708   5.427  18.495  0.00  0.00    +0.000 C 
ATOM     17  O   UNL     1       8.181   5.025  19.547  0.00  0.00    +0.000 OA
ATOM     18  N   UNL     1       7.656   6.728  18.049  0.00  0.00    +0.000 N 
ATOM     19  C   UNL     1       7.237   6.820  16.690  0.00  0.00    +0.000 C 
BRANCH  18  20
ATOM     20  C   UNL     1       8.201   7.854  18.768  0.00  0.00    +0.000 C 
BRANCH  20  21
ATOM     21  C   UNL     1       8.479   8.998  17.838  0.00  0.00    +0.000 C 
ATOM     22  C   UNL     1       7.820  10.349  18.000  0.00  0.00    +0.000 C 
ATOM     23  C   UNL     1       9.271  10.178  18.351  0.00  0.00    +0.000 C 
ENDBRANCH  20  21
ENDBRANCH  18  20
ENDBRANCH  13  14
ENDBRANCH  10  13
TORSDOF 4
ENDMDL
MODEL 4
REMARK VINA RESULT:      -7.3      2.145      3.068
REMARK  Name = 
REMARK  5 active torsions:
REMARK  status: ('A' for Active; 'I' for Inactive)
REMARK    1  A    between atoms: C_1  and  C_2
REMARK    2  A    between atoms: C_10  and  C_11
REMARK    3  A    between atoms: C_11  and  N_12
REMARK    4  A    between atoms: N_16  and  C_17
REMARK    5  A    between atoms: C_17  and  C_18
REMARK                            x       y       z     vdW  Elec       q    Type
REMARK                         _______ _______ _______ _____ _____    ______ ____
ROOT
ATOM      1  C   UNL     1       1.921   6.963  20.027  0.00  0.00    +0.000 C 
ATOM      2  C   UNL     1       1.908   5.470  20.132  0.00  0.00    +0.000 A 
ATOM      3  C   UNL     1       0.817   4.767  20.476  0.00  0.00    +0.000 A 
ATOM      4  C   UNL     1       0.835   3.331  20.504  0.00  0.00    +0.000 A 
ATOM      5  C   UNL     1       1.943   2.673  20.152  0.00  0.00    +0.000 A 
ATOM      6  N   UNL     1       3.110   3.341  19.802  0.00  0.00    +0.000 N 
ATOM      7  C   UNL     1       4.225   2.599  19.451  0.00  0.00    +0.000 A 
ATOM      8  O   UNL     1       4.273   1.371  19.352  0.00  0.00    +0.000 OA
ATOM      9  C   UNL     1       5.452   3.365  19.202  0.00  0.00    +0.000 A 
ATOM     10  C   UNL     1       5.417   4.700  19.285  0.00  0.00    +0.000 A 
ATOM     11  N   UNL     1       4.271   5.400  19.569  0.00  0.00    +0.000 NA
ATOM     12  C   UNL     1       3.182   4.731  19.813  0.00  0.00    +0.000 A 
ENDROOT
BRANCH  10  13
ATOM     13  C   UNL     1       6.706   5.505  19.151  0.00  0.00    +0.000 C 
BRANCH  13  14
ATOM     14  N   UNL     1       7.257   5.770  17.818  0.00  0.00    +0.000 NA
ATOM     15  C   UNL     1       6.486   6.769  17.053  0.00  0.00    +0.000 C 
ATOM     16  C   UNL     1       5.897   6.014  15.885  0.00  0.00    +0.000 C 
ATOM     17  O   UNL     1       5.179   6.481  15.014  0.00  0.00    +0.000 OA
ATOM     18  N   UNL     1       6.369   4.724  15.973  0.00  0.00    +0.000 N 
ATOM     19  C   UNL     1       7.355   4.574  16.991  0.00  0.00    +0.000 C 
BRANCH  18  20
ATOM     20  C   UNL     1       6.104   3.695  14.996  0.00  0.00    +0.000 C 
BRANCH  20  21
ATOM     21  C   UNL     1       6.183   4.247  13.603  0.00  0.00    +0.000 C 
ATOM     22  C   UNL     1       6.582   3.397  12.419  0.00  0.00    +0.000 C 
ATOM     23  C   UNL     1       5.150   3.818  12.589  0.00  0.00    +0.000 C 
ENDBRANCH  20  21
ENDBRANCH  18  20
ENDBRANCH  13  14
ENDBRANCH  10  13
TORSDOF 4
ENDMDL
MODEL 5
REMARK VINA RESULT:      -7.2      2.889      5.036
REMARK  Name = 
REMARK  5 active torsions:
REMARK  status: ('A' for Active; 'I' for Inactive)
REMARK    1  A    between atoms: C_1  and  C_2
REMARK    2  A    between atoms: C_10  and  C_11
REMARK    3  A    between atoms: C_11  and  N_12
REMARK    4  A    between atoms: N_16  and  C_17
REMARK    5  A    between atoms: C_17  and  C_18
REMARK                            x       y       z     vdW  Elec       q    Type
REMARK                         _______ _______ _______ _____ _____    ______ ____
ROOT
ATOM      1  C   UNL     1       2.508   7.097  19.068  0.00  0.00    +0.000 C 
ATOM      2  C   UNL     1       2.514   5.690  19.576  0.00  0.00    +0.000 A 
ATOM      3  C   UNL     1       1.932   5.323  20.729  0.00  0.00    +0.000 A 
ATOM      4  C   UNL     1       1.909   3.948  21.147  0.00  0.00    +0.000 A 
ATOM      5  C   UNL     1       2.446   3.007  20.365  0.00  0.00    +0.000 A 
ATOM      6  N   UNL     1       3.077   3.323  19.169  0.00  0.00    +0.000 N 
ATOM      7  C   UNL     1       3.616   2.299  18.407  0.00  0.00    +0.000 A 
ATOM      8  O   UNL     1       3.536   1.095  18.656  0.00  0.00    +0.000 OA
ATOM      9  C   UNL     1       4.364   2.714  17.214  0.00  0.00    +0.000 A 
ATOM     10  C   UNL     1       4.447   4.016  16.914  0.00  0.00    +0.000 A 
ATOM     11  N   UNL     1       3.837   4.993  17.661  0.00  0.00    +0.000 NA
ATOM     12  C   UNL     1       3.190   4.640  18.733  0.00  0.00    +0.000 A 
ENDROOT
BRANCH  10  13
ATOM     13  C   UNL     1       5.320   4.475  15.752  0.00  0.00    +0.000 C 
BRANCH  13  14
ATOM     14  N   UNL     1       6.662   5.004  16.020  0.00  0.00    +0.000 NA
ATOM     15  C   UNL     1       7.259   4.484  17.265  0.00  0.00    +0.000 C 
ATOM     16  C   UNL     1       7.374   5.675  18.185  0.00  0.00    +0.000 C 
ATOM     17  O   UNL     1       7.812   5.666  19.325  0.00  0.00    +0.000 OA
ATOM     18  N   UNL     1       6.938   6.768  17.470  0.00  0.00    +0.000 N 
ATOM     19  C   UNL     1       6.698   6.459  16.100  0.00  0.00    +0.000 C 
BRANCH  18  20
ATOM     20  C   UNL     1       6.962   8.123  17.964  0.00  0.00    +0.000 C 
BRANCH  20  21
ATOM     21  C   UNL     1       8.331   8.720  17.824  0.00  0.00    +0.000 C 
ATOM     22  C   UNL     1       8.572  10.211  17.876  0.00  0.00    +0.000 C 
ATOM     23  C   UNL     1       8.981   9.346  19.034  0.00  0.00    +0.000 C 
ENDBRANCH  20  21
ENDBRANCH  18  20
ENDBRANCH  13  14
ENDBRANCH  10  13
TORSDOF 4
ENDMDL
MODEL 6
REMARK VINA RESULT:      -7.1      3.856      8.163
REMARK  Name = 
REMARK  5 active torsions:
REMARK  status: ('A' for Active; 'I' for Inactive)
REMARK    1  A    between atoms: C_1  and  C_2
REMARK    2  A    between atoms: C_10  and  C_11
REMARK    3  A    between atoms: C_11  and  N_12
REMARK    4  A    between atoms: N_16  and  C_17
REMARK    5  A    between atoms: C_17  and  C_18
REMARK                            x       y       z     vdW  Elec       q    Type
REMARK                         _______ _______ _______ _____ _____    ______ ____
ROOT
ATOM      1  C   UNL     1       4.262   7.307  17.129  0.00  0.00    +0.000 C 
ATOM      2  C   UNL     1       4.125   5.850  17.442  0.00  0.00    +0.000 A 
ATOM      3  C   UNL     1       4.712   4.885  16.717  0.00  0.00    +0.000 A 
ATOM      4  C   UNL     1       4.603   3.502  17.091  0.00  0.00    +0.000 A 
ATOM      5  C   UNL     1       3.934   3.164  18.198  0.00  0.00    +0.000 A 
ATOM      6  N   UNL     1       3.291   4.112  18.982  0.00  0.00    +0.000 N 
ATOM      7  C   UNL     1       2.612   3.694  20.114  0.00  0.00    +0.000 A 
ATOM      8  O   UNL     1       2.572   2.541  20.547  0.00  0.00    +0.000 OA
ATOM      9  C   UNL     1       1.864   4.732  20.833  0.00  0.00    +0.000 A 
ATOM     10  C   UNL     1       1.910   5.995  20.392  0.00  0.00    +0.000 A 
ATOM     11  N   UNL     1       2.653   6.377  19.303  0.00  0.00    +0.000 NA
ATOM     12  C   UNL     1       3.303   5.463  18.645  0.00  0.00    +0.000 A 
ENDROOT
BRANCH  10  13
ATOM     13  C   UNL     1       1.043   7.063  21.049  0.00  0.00    +0.000 C 
BRANCH  13  14
ATOM     14  N   UNL     1       1.491   8.460  21.047  0.00  0.00    +0.000 NA
ATOM     15  C   UNL     1       1.282   9.145  22.337  0.00  0.00    +0.000 C 
ATOM     16  C   UNL     1       0.251  10.214  22.063  0.00  0.00    +0.000 C 
ATOM     17  O   UNL     1      -0.207  10.999  22.879  0.00  0.00    +0.000 OA
ATOM     18  N   UNL     1      -0.025  10.158  20.715  0.00  0.00    +0.000 N 
ATOM     19  C   UNL     1       0.843   9.267  20.020  0.00  0.00    +0.000 C 
BRANCH  18  20
ATOM     20  C   UNL     1      -0.906  11.071  20.030  0.00  0.00    +0.000 C 
BRANCH  20  21
ATOM     21  C   UNL     1      -1.001  10.730  18.572  0.00  0.00    +0.000 C 
ATOM     22  C   UNL     1      -2.239  10.110  17.966  0.00  0.00    +0.000 C 
ATOM     23  C   UNL     1      -1.912  11.550  17.690  0.00  0.00    +0.000 C 
ENDBRANCH  20  21
ENDBRANCH  18  20
ENDBRANCH  13  14
ENDBRANCH  10  13
TORSDOF 4
ENDMDL
MODEL 7
REMARK VINA RESULT:      -7.1      2.707      4.602
REMARK  Name = 
REMARK  5 active torsions:
REMARK  status: ('A' for Active; 'I' for Inactive)
REMARK    1  A    between atoms: C_1  and  C_2
REMARK    2  A    between atoms: C_10  and  C_11
REMARK    3  A    between atoms: C_11  and  N_12
REMARK    4  A    between atoms: N_16  and  C_17
REMARK    5  A    between atoms: C_17  and  C_18
REMARK                            x       y       z     vdW  Elec       q    Type
REMARK                         _______ _______ _______ _____ _____    ______ ____
ROOT
ATOM      1  C   UNL     1       4.599   1.621  20.523  0.00  0.00    +0.000 C 
ATOM      2  C   UNL     1       3.495   2.614  20.341  0.00  0.00    +0.000 A 
ATOM      3  C   UNL     1       2.420   2.673  21.142  0.00  0.00    +0.000 A 
ATOM      4  C   UNL     1       1.415   3.684  20.967  0.00  0.00    +0.000 A 
ATOM      5  C   UNL     1       1.561   4.608  20.013  0.00  0.00    +0.000 A 
ATOM      6  N   UNL     1       2.641   4.594  19.140  0.00  0.00    +0.000 N 
ATOM      7  C   UNL     1       2.730   5.578  18.171  0.00  0.00    +0.000 A 
ATOM      8  O   UNL     1       1.961   6.531  18.037  0.00  0.00    +0.000 OA
ATOM      9  C   UNL     1       3.835   5.437  17.215  0.00  0.00    +0.000 A 
ATOM     10  C   UNL     1       4.694   4.421  17.353  0.00  0.00    +0.000 A 
ATOM     11  N   UNL     1       4.608   3.506  18.373  0.00  0.00    +0.000 NA
ATOM     12  C   UNL     1       3.620   3.607  19.213  0.00  0.00    +0.000 A 
ENDROOT
BRANCH  10  13
ATOM     13  C   UNL     1       5.773   4.187  16.301  0.00  0.00    +0.000 C 
BRANCH  13  14
ATOM     14  N   UNL     1       7.076   4.846  16.443  0.00  0.00    +0.000 NA
ATOM     15  C   UNL     1       7.717   4.603  17.749  0.00  0.00    +0.000 C 
ATOM     16  C   UNL     1       7.754   5.947  18.437  0.00  0.00    +0.000 C 
ATOM     17  O   UNL     1       8.200   6.174  19.551  0.00  0.00    +0.000 OA
ATOM     18  N   UNL     1       7.237   6.859  17.545  0.00  0.00    +0.000 N 
ATOM     19  C   UNL     1       7.009   6.291  16.258  0.00  0.00    +0.000 C 
BRANCH  18  20
ATOM     20  C   UNL     1       7.169   8.280  17.786  0.00  0.00    +0.000 C 
BRANCH  20  21
ATOM     21  C   UNL     1       8.544   8.871  17.891  0.00  0.00    +0.000 C 
ATOM     22  C   UNL     1       8.787  10.363  17.855  0.00  0.00    +0.000 C 
ATOM     23  C   UNL     1       8.924   9.614  19.150  0.00  0.00    +0.000 C 
ENDBRANCH  20  21
ENDBRANCH  18  20
ENDBRANCH  13  14
ENDBRANCH  10  13
TORSDOF 4
ENDMDL
MODEL 8
REMARK VINA RESULT:      -7.1      3.828      6.490
REMARK  Name = 
REMARK  5 active torsions:
REMARK  status: ('A' for Active; 'I' for Inactive)
REMARK    1  A    between atoms: C_1  and  C_2
REMARK    2  A    between atoms: C_10  and  C_11
REMARK    3  A    between atoms: C_11  and  N_12
REMARK    4  A    between atoms: N_16  and  C_17
REMARK    5  A    between atoms: C_17  and  C_18
REMARK                            x       y       z     vdW  Elec       q    Type
REMARK                         _______ _______ _______ _____ _____    ______ ____
ROOT
ATOM      1  C   UNL     1      -0.101   9.522  23.172  0.00  0.00    +0.000 C 
ATOM      2  C   UNL     1       0.043  10.087  21.794  0.00  0.00    +0.000 A 
ATOM      3  C   UNL     1      -0.429  11.293  21.441  0.00  0.00    +0.000 A 
ATOM      4  C   UNL     1      -0.213  11.821  20.123  0.00  0.00    +0.000 A 
ATOM      5  C   UNL     1       0.498  11.119  19.235  0.00  0.00    +0.000 A 
ATOM      6  N   UNL     1       1.000   9.859  19.531  0.00  0.00    +0.000 N 
ATOM      7  C   UNL     1       1.725   9.184  18.564  0.00  0.00    +0.000 A 
ATOM      8  O   UNL     1       2.036   9.625  17.456  0.00  0.00    +0.000 OA
ATOM      9  C   UNL     1       2.129   7.814  18.905  0.00  0.00    +0.000 A 
ATOM     10  C   UNL     1       1.819   7.323  20.111  0.00  0.00    +0.000 A 
ATOM     11  N   UNL     1       1.158   8.053  21.066  0.00  0.00    +0.000 NA
ATOM     12  C   UNL     1       0.776   9.261  20.768  0.00  0.00    +0.000 A 
ENDROOT
BRANCH  10  13
ATOM     13  C   UNL     1       2.121   5.864  20.438  0.00  0.00    +0.000 C 
BRANCH  13  14
ATOM     14  N   UNL     1       2.544   4.956  19.367  0.00  0.00    +0.000 NA
ATOM     15  C   UNL     1       2.787   3.576  19.830  0.00  0.00    +0.000 C 
ATOM     16  C   UNL     1       4.268   3.346  19.648  0.00  0.00    +0.000 C 
ATOM     17  O   UNL     1       4.878   2.324  19.926  0.00  0.00    +0.000 OA
ATOM     18  N   UNL     1       4.776   4.486  19.067  0.00  0.00    +0.000 N 
ATOM     19  C   UNL     1       3.753   5.401  18.684  0.00  0.00    +0.000 C 
BRANCH  18  20
ATOM     20  C   UNL     1       6.149   4.643  18.653  0.00  0.00    +0.000 C 
BRANCH  20  21
ATOM     21  C   UNL     1       6.415   6.050  18.204  0.00  0.00    +0.000 C 
ATOM     22  C   UNL     1       7.785   6.681  18.294  0.00  0.00    +0.000 C 
ATOM     23  C   UNL     1       7.235   6.274  16.957  0.00  0.00    +0.000 C 
ENDBRANCH  20  21
ENDBRANCH  18  20
ENDBRANCH  13  14
ENDBRANCH  10  13
TORSDOF 4
ENDMDL
MODEL 9
REMARK VINA RESULT:      -7.1      3.284      5.232
REMARK  Name = 
REMARK  5 active torsions:
REMARK  status: ('A' for Active; 'I' for Inactive)
REMARK    1  A    between atoms: C_1  and  C_2
REMARK    2  A    between atoms: C_10  and  C_11
REMARK    3  A    between atoms: C_11  and  N_12
REMARK    4  A    between atoms: N_16  and  C_17
REMARK    5  A    between atoms: C_17  and  C_18
REMARK                            x       y       z     vdW  Elec       q    Type
REMARK                         _______ _______ _______ _____ _____    ______ ____
ROOT
ATOM      1  C   UNL     1       1.798   6.497  20.453  0.00  0.00    +0.000 C 
ATOM      2  C   UNL     1       1.951   5.015  20.317  0.00  0.00    +0.000 A 
ATOM      3  C   UNL     1       1.351   4.136  21.135  0.00  0.00    +0.000 A 
ATOM      4  C   UNL     1       1.477   2.720  20.928  0.00  0.00    +0.000 A 
ATOM      5  C   UNL     1       2.176   2.260  19.886  0.00  0.00    +0.000 A 
ATOM      6  N   UNL     1       2.835   3.115  19.013  0.00  0.00    +0.000 N 
ATOM      7  C   UNL     1       3.546   2.573  17.956  0.00  0.00    +0.000 A 
ATOM      8  O   UNL     1       3.604   1.378  17.662  0.00  0.00    +0.000 OA
ATOM      9  C   UNL     1       4.308   3.527  17.140  0.00  0.00    +0.000 A 
ATOM     10  C   UNL     1       4.243   4.832  17.429  0.00  0.00    +0.000 A 
ATOM     11  N   UNL     1       3.469   5.333  18.445  0.00  0.00    +0.000 NA
ATOM     12  C   UNL     1       2.807   4.496  19.189  0.00  0.00    +0.000 A 
ENDROOT
BRANCH  10  13
ATOM     13  C   UNL     1       5.121   5.823  16.673  0.00  0.00    +0.000 C 
BRANCH  13  14
ATOM     14  N   UNL     1       6.581   5.693  16.740  0.00  0.00    +0.000 NA
ATOM     15  C   UNL     1       7.041   4.789  17.811  0.00  0.00    +0.000 C 
ATOM     16  C   UNL     1       7.781   5.668  18.790  0.00  0.00    +0.000 C 
ATOM     17  O   UNL     1       8.310   5.304  19.829  0.00  0.00    +0.000 OA
ATOM     18  N   UNL     1       7.783   6.937  18.255  0.00  0.00    +0.000 N 
ATOM     19  C   UNL     1       7.261   6.968  16.929  0.00  0.00    +0.000 C 
BRANCH  18  20
ATOM     20  C   UNL     1       8.461   8.065  18.846  0.00  0.00    +0.000 C 
BRANCH  20  21
ATOM     21  C   UNL     1       8.535   9.211  17.880  0.00  0.00    +0.000 C 
ATOM     22  C   UNL     1       7.904  10.553  18.169  0.00  0.00    +0.000 C 
ATOM     23  C   UNL     1       9.397  10.401  18.226  0.00  0.00    +0.000 C 
ENDBRANCH  20  21
ENDBRANCH  18  20
ENDBRANCH  13  14
ENDBRANCH  10  13
TORSDOF 4
ENDMDL
