MODEL 1
REMARK VINA RESULT:      -8.9      0.000      0.000
REMARK  Name = 
REMARK  9 active torsions:
REMARK  status: ('A' for Active; 'I' for Inactive)
REMARK    1  A    between atoms: C_1  and  S_2
REMARK    2  A    between atoms: S_2  and  N_5
REMARK    3  A    between atoms: N_5  and  C_6
REMARK    4  A    between atoms: C_6  and  C_7
REMARK    5  A    between atoms: C_11  and  C_12
REMARK    6  A    between atoms: C_14  and  C_15
REMARK    7  A    between atoms: C_21  and  C_23
REMARK    8  A    between atoms: C_23  and  O_24
REMARK    9  A    between atoms: O_24  and  C_25
REMARK                            x       y       z     vdW  Elec       q    Type
REMARK                         _______ _______ _______ _____ _____    ______ ____
ROOT
ATOM      1  C   UNL     1       1.496   8.268  19.900  0.00  0.00    +0.000 A 
ATOM      2  N   UNL     1       1.706   7.153  20.558  0.00  0.00    +0.000 NA
ATOM      3  C   UNL     1       2.514   6.451  19.697  0.00  0.00    +0.000 A 
ATOM      4  N   UNL     1       2.834   7.104  18.571  0.00  0.00    +0.000 NA
ATOM      5  O   UNL     1       2.146   8.311  18.699  0.00  0.00    +0.000 OA
ENDROOT
BRANCH   3   6
ATOM      6  C   UNL     1       3.007   5.069  20.029  0.00  0.00    +0.000 C 
ATOM      7  C   UNL     1       2.083   4.322  21.012  0.00  0.00    +0.000 C 
ATOM      8  C   UNL     1       0.735   3.962  20.376  0.00  0.00    +0.000 C 
ATOM      9  C   UNL     1       0.923   3.205  19.063  0.00  0.00    +0.000 C 
ATOM     10  C   UNL     1       1.909   3.903  18.126  0.00  0.00    +0.000 C 
ATOM     11  N   UNL     1       3.158   4.236  18.821  0.00  0.00    +0.000 N 
ATOM     12  C   UNL     1       4.351   3.653  18.401  0.00  0.00    +0.000 C 
ATOM     13  O   UNL     1       4.383   2.858  17.454  0.00  0.00    +0.000 OA
BRANCH  12  14
ATOM     14  C   UNL     1       5.648   3.985  19.147  0.00  0.00    +0.000 C 
BRANCH  14  15
ATOM     15  O   UNL     1       6.680   4.259  18.206  0.00  0.00    +0.000 OA
BRANCH  15  16
ATOM     16  C   UNL     1       6.973   5.587  18.039  0.00  0.00    +0.000 A 
ATOM     17  C   UNL     1       7.973   6.114  18.860  0.00  0.00    +0.000 A 
ATOM     18  C   UNL     1       8.378   7.443  18.716  0.00  0.00    +0.000 A 
ATOM     19  C   UNL     1       7.797   8.245  17.737  0.00  0.00    +0.000 A 
ATOM     20  C   UNL     1       6.812   7.719  16.904  0.00  0.00    +0.000 A 
ATOM     21  C   UNL     1       6.401   6.390  17.053  0.00  0.00    +0.000 A 
ENDBRANCH  15  16
ENDBRANCH  14  15
ENDBRANCH  12  14
ENDBRANCH   3   6
BRANCH   1  26
ATOM     22  C   UNL     1      -0.785  11.265  19.677  0.00  0.00    +0.000 A 
ATOM     23  C   UNL     1      -0.863  11.627  21.028  0.00  0.00    +0.000 A 
ATOM     24  C   UNL     1      -0.179  10.891  21.995  0.00  0.00    +0.000 A 
ATOM     25  C   UNL     1       0.590   9.790  21.620  0.00  0.00    +0.000 A 
ATOM     26  C   UNL     1       0.685   9.411  20.273  0.00  0.00    +0.000 A 
ATOM     27  C   UNL     1      -0.003  10.159  19.312  0.00  0.00    +0.000 A 
BRANCH  22  28
ATOM     28  C   UNL     1      -1.494  12.065  18.609  0.00  0.00    +0.000 C 
BRANCH  28  29
ATOM     29  N   UNL     1      -1.601  11.300  17.346  0.00  0.00    +0.000 NA
ATOM     30  H   UNL     1      -1.236  11.838  16.562  0.00  0.00    +0.000 HD
BRANCH  29  32
ATOM     31  C   UNL     1      -4.101  11.782  18.169  0.00  0.00    +0.000 C 
ATOM     32  S   UNL     1      -3.177  10.790  17.019  0.00  0.00    +0.000 S 
ATOM     33  O   UNL     1      -3.250   9.409  17.443  0.00  0.00    +0.000 OA
ATOM     34  O   UNL     1      -3.502  11.193  15.672  0.00  0.00    +0.000 OA
ENDBRANCH  29  32
ENDBRANCH  28  29
ENDBRANCH  22  28
ENDBRANCH   1  26
TORSDOF 8
ENDMDL
MODEL 2
REMARK VINA RESULT:      -8.8      1.002      1.197
REMARK  Name = 
REMARK  9 active torsions:
REMARK  status: ('A' for Active; 'I' for Inactive)
REMARK    1  A    between atoms: C_1  and  S_2
REMARK    2  A    between atoms: S_2  and  N_5
REMARK    3  A    between atoms: N_5  and  C_6
REMARK    4  A    between atoms: C_6  and  C_7
REMARK    5  A    between atoms: C_11  and  C_12
REMARK    6  A    between atoms: C_14  and  C_15
REMARK    7  A    between atoms: C_21  and  C_23
REMARK    8  A    between atoms: C_23  and  O_24
REMARK    9  A    between atoms: O_24  and  C_25
REMARK                            x       y       z     vdW  Elec       q    Type
REMARK                         _______ _______ _______ _____ _____    ______ ____
ROOT
ATOM      1  C   UNL     1       1.650   8.402  19.380  0.00  0.00    +0.000 A 
ATOM      2  N   UNL     1       1.966   7.298  20.012  0.00  0.00    +0.000 NA
ATOM      3  C   UNL     1       2.649   6.593  19.050  0.00  0.00    +0.000 A 
ATOM      4  N   UNL     1       2.794   7.237  17.883  0.00  0.00    +0.000 NA
ATOM      5  O   UNL     1       2.117   8.437  18.097  0.00  0.00    +0.000 OA
ENDROOT
BRANCH   3   6
ATOM      6  C   UNL     1       3.201   5.221  19.322  0.00  0.00    +0.000 C 
ATOM      7  C   UNL     1       2.830   4.690  20.721  0.00  0.00    +0.000 C 
ATOM      8  C   UNL     1       1.331   4.387  20.844  0.00  0.00    +0.000 C 
ATOM      9  C   UNL     1       0.856   3.462  19.724  0.00  0.00    +0.000 C 
ATOM     10  C   UNL     1       1.304   3.945  18.344  0.00  0.00    +0.000 C 
ATOM     11  N   UNL     1       2.741   4.238  18.324  0.00  0.00    +0.000 N 
ATOM     12  C   UNL     1       3.579   3.497  17.493  0.00  0.00    +0.000 C 
ATOM     13  O   UNL     1       3.138   2.594  16.772  0.00  0.00    +0.000 OA
BRANCH  12  14
ATOM     14  C   UNL     1       5.083   3.790  17.495  0.00  0.00    +0.000 C 
BRANCH  14  15
ATOM     15  O   UNL     1       5.330   5.006  16.797  0.00  0.00    +0.000 OA
BRANCH  15  16
ATOM     16  C   UNL     1       6.249   5.834  17.384  0.00  0.00    +0.000 A 
ATOM     17  C   UNL     1       6.947   5.316  18.478  0.00  0.00    +0.000 A 
ATOM     18  C   UNL     1       7.946   6.069  19.101  0.00  0.00    +0.000 A 
ATOM     19  C   UNL     1       8.263   7.336  18.619  0.00  0.00    +0.000 A 
ATOM     20  C   UNL     1       7.582   7.850  17.517  0.00  0.00    +0.000 A 
ATOM     21  C   UNL     1       6.577   7.099  16.898  0.00  0.00    +0.000 A 
ENDBRANCH  15  16
ENDBRANCH  14  15
ENDBRANCH  12  14
ENDBRANCH   3   6
BRANCH   1  26
ATOM     22  C   UNL     1      -0.504  11.500  19.429  0.00  0.00    +0.000 A 
ATOM     23  C   UNL     1      -0.564  11.747  20.807  0.00  0.00    +0.000 A 
ATOM     24  C   UNL     1       0.090  10.901  21.704  0.00  0.00    +0.000 A 
ATOM     25  C   UNL     1       0.811   9.806  21.230  0.00  0.00    +0.000 A 
ATOM     26  C   UNL     1       0.888   9.542  19.855  0.00  0.00    +0.000 A 
ATOM     27  C   UNL     1       0.230  10.398  18.966  0.00  0.00    +0.000 A 
BRANCH  22  28
ATOM     28  C   UNL     1      -1.180  12.419  18.438  0.00  0.00    +0.000 C 
BRANCH  28  29
ATOM     29  N   UNL     1      -1.645  11.675  17.246  0.00  0.00    +0.000 NA
ATOM     30  H   UNL     1      -1.663  12.277  16.425  0.00  0.00    +0.000 HD
BRANCH  29  32
ATOM     31  C   UNL     1      -3.841  11.082  15.836  0.00  0.00    +0.000 C 
ATOM     32  S   UNL     1      -3.154  10.952  17.471  0.00  0.00    +0.000 S 
ATOM     33  O   UNL     1      -3.895  11.829  18.351  0.00  0.00    +0.000 OA
ATOM     34  O   UNL     1      -2.937   9.561  17.789  0.00  0.00    +0.000 OA
ENDBRANCH  29  32
ENDBRANCH  28  29
ENDBRANCH  22  28
ENDBRANCH   1  26
TORSDOF 8
ENDMDL
MODEL 3
REMARK VINA RESULT:      -8.7      2.654      3.169
REMARK  Name = 
REMARK  9 active torsions:
REMARK  status: ('A' for Active; 'I' for Inactive)
REMARK    1  A    between atoms: C_1  and  S_2
REMARK    2  A    between atoms: S_2  and  N_5
REMARK    3  A    between atoms: N_5  and  C_6
REMARK    4  A    between atoms: C_6  and  C_7
REMARK    5  A    between atoms: C_11  and  C_12
REMARK    6  A    between atoms: C_14  and  C_15
REMARK    7  A    between atoms: C_21  and  C_23
REMARK    8  A    between atoms: C_23  and  O_24
REMARK    9  A    between atoms: O_24  and  C_25
REMARK                            x       y       z     vdW  Elec       q    Type
REMARK                         _______ _______ _______ _____ _____    ______ ____
ROOT
ATOM      1  C   UNL     1       1.561   7.978  20.304  0.00  0.00    +0.000 A 
ATOM      2  N   UNL     1       1.879   6.760  20.674  0.00  0.00    +0.000 NA
ATOM      3  C   UNL     1       2.521   6.274  19.561  0.00  0.00    +0.000 A 
ATOM      4  N   UNL     1       2.640   7.152  18.555  0.00  0.00    +0.000 NA
ATOM      5  O   UNL     1       1.989   8.284  19.043  0.00  0.00    +0.000 OA
ENDROOT
BRANCH   3   6
ATOM      6  C   UNL     1       3.060   4.870  19.513  0.00  0.00    +0.000 C 
ATOM      7  C   UNL     1       2.806   4.085  20.815  0.00  0.00    +0.000 C 
ATOM      8  C   UNL     1       1.318   3.776  21.023  0.00  0.00    +0.000 C 
ATOM      9  C   UNL     1       0.718   3.086  19.799  0.00  0.00    +0.000 C 
ATOM     10  C   UNL     1       1.047   3.820  18.499  0.00  0.00    +0.000 C 
ATOM     11  N   UNL     1       2.484   4.100  18.396  0.00  0.00    +0.000 N 
ATOM     12  C   UNL     1       3.220   3.525  17.363  0.00  0.00    +0.000 C 
ATOM     13  O   UNL     1       2.691   2.780  16.530  0.00  0.00    +0.000 OA
BRANCH  12  14
ATOM     14  C   UNL     1       4.726   3.800  17.275  0.00  0.00    +0.000 C 
BRANCH  14  15
ATOM     15  O   UNL     1       4.938   5.123  16.793  0.00  0.00    +0.000 OA
BRANCH  15  16
ATOM     16  C   UNL     1       5.968   5.798  17.393  0.00  0.00    +0.000 A 
ATOM     17  C   UNL     1       6.618   5.143  18.441  0.00  0.00    +0.000 A 
ATOM     18  C   UNL     1       7.719   5.732  19.069  0.00  0.00    +0.000 A 
ATOM     19  C   UNL     1       8.184   6.972  18.638  0.00  0.00    +0.000 A 
ATOM     20  C   UNL     1       7.549   7.621  17.580  0.00  0.00    +0.000 A 
ATOM     21  C   UNL     1       6.444   7.034  16.956  0.00  0.00    +0.000 A 
ENDBRANCH  15  16
ENDBRANCH  14  15
ENDBRANCH  12  14
ENDBRANCH   3   6
BRANCH   1  26
ATOM     22  C   UNL     1       0.155  11.318  21.357  0.00  0.00    +0.000 A 
ATOM     23  C   UNL     1      -0.578  10.941  22.489  0.00  0.00    +0.000 A 
ATOM     24  C   UNL     1      -0.612   9.606  22.894  0.00  0.00    +0.000 A 
ATOM     25  C   UNL     1       0.088   8.640  22.173  0.00  0.00    +0.000 A 
ATOM     26  C   UNL     1       0.831   8.995  21.038  0.00  0.00    +0.000 A 
ATOM     27  C   UNL     1       0.860  10.337  20.644  0.00  0.00    +0.000 A 
BRANCH  22  28
ATOM     28  C   UNL     1       0.230  12.762  20.917  0.00  0.00    +0.000 C 
BRANCH  28  29
ATOM     29  N   UNL     1       1.398  13.446  21.515  0.00  0.00    +0.000 NA
ATOM     30  H   UNL     1       1.102  14.199  22.134  0.00  0.00    +0.000 HD
BRANCH  29  32
ATOM     31  C   UNL     1       1.754  15.616  19.989  0.00  0.00    +0.000 C 
ATOM     32  S   UNL     1       2.478  14.034  20.358  0.00  0.00    +0.000 S 
ATOM     33  O   UNL     1       2.332  13.181  19.199  0.00  0.00    +0.000 OA
ATOM     34  O   UNL     1       3.754  14.232  21.003  0.00  0.00    +0.000 OA
ENDBRANCH  29  32
ENDBRANCH  28  29
ENDBRANCH  22  28
ENDBRANCH   1  26
TORSDOF 8
ENDMDL
MODEL 4
REMARK VINA RESULT:      -8.6      1.224      1.527
REMARK  Name = 
REMARK  9 active torsions:
REMARK  status: ('A' for Active; 'I' for Inactive)
REMARK    1  A    between atoms: C_1  and  S_2
REMARK    2  A    between atoms: S_2  and  N_5
REMARK    3  A    between atoms: N_5  and  C_6
REMARK    4  A    between atoms: C_6  and  C_7
REMARK    5  A    between atoms: C_11  and  C_12
REMARK    6  A    between atoms: C_14  and  C_15
REMARK    7  A    between atoms: C_21  and  C_23
REMARK    8  A    between atoms: C_23  and  O_24
REMARK    9  A    between atoms: O_24  and  C_25
REMARK                            x       y       z     vdW  Elec       q    Type
REMARK                         _______ _______ _______ _____ _____    ______ ____
ROOT
ATOM      1  C   UNL     1       1.497   8.364  19.676  0.00  0.00    +0.000 A 
ATOM      2  N   UNL     1       1.753   7.321  20.429  0.00  0.00    +0.000 NA
ATOM      3  C   UNL     1       2.505   6.532  19.592  0.00  0.00    +0.000 A 
ATOM      4  N   UNL     1       2.747   7.067  18.386  0.00  0.00    +0.000 NA
ATOM      5  O   UNL     1       2.064   8.283  18.436  0.00  0.00    +0.000 OA
ENDROOT
BRANCH   3   6
ATOM      6  C   UNL     1       3.024   5.190  20.029  0.00  0.00    +0.000 C 
ATOM      7  C   UNL     1       2.171   4.550  21.143  0.00  0.00    +0.000 C 
ATOM      8  C   UNL     1       0.783   4.133  20.641  0.00  0.00    +0.000 C 
ATOM      9  C   UNL     1       0.884   3.245  19.402  0.00  0.00    +0.000 C 
ATOM     10  C   UNL     1       1.803   3.840  18.334  0.00  0.00    +0.000 C 
ATOM     11  N   UNL     1       3.095   4.237  18.906  0.00  0.00    +0.000 N 
ATOM     12  C   UNL     1       4.259   3.610  18.467  0.00  0.00    +0.000 C 
ATOM     13  O   UNL     1       4.228   2.723  17.607  0.00  0.00    +0.000 OA
BRANCH  12  14
ATOM     14  C   UNL     1       5.602   4.011  19.086  0.00  0.00    +0.000 C 
BRANCH  14  15
ATOM     15  O   UNL     1       6.019   5.260  18.545  0.00  0.00    +0.000 OA
BRANCH  15  16
ATOM     16  C   UNL     1       6.109   5.298  17.178  0.00  0.00    +0.000 A 
ATOM     17  C   UNL     1       7.085   4.487  16.594  0.00  0.00    +0.000 A 
ATOM     18  C   UNL     1       7.207   4.417  15.204  0.00  0.00    +0.000 A 
ATOM     19  C   UNL     1       6.338   5.143  14.392  0.00  0.00    +0.000 A 
ATOM     20  C   UNL     1       5.351   5.939  14.971  0.00  0.00    +0.000 A 
ATOM     21  C   UNL     1       5.234   6.014  16.363  0.00  0.00    +0.000 A 
ENDBRANCH  15  16
ENDBRANCH  14  15
ENDBRANCH  12  14
ENDBRANCH   3   6
BRANCH   1  26
ATOM     22  C   UNL     1      -0.626  11.458  19.274  0.00  0.00    +0.000 A 
ATOM     23  C   UNL     1      -0.798  11.824  20.614  0.00  0.00    +0.000 A 
ATOM     24  C   UNL     1      -0.229  11.060  21.633  0.00  0.00    +0.000 A 
ATOM     25  C   UNL     1       0.519   9.927  21.319  0.00  0.00    +0.000 A 
ATOM     26  C   UNL     1       0.708   9.542  19.985  0.00  0.00    +0.000 A 
ATOM     27  C   UNL     1       0.134  10.318  18.971  0.00  0.00    +0.000 A 
BRANCH  22  28
ATOM     28  C   UNL     1      -1.209  12.286  18.153  0.00  0.00    +0.000 C 
BRANCH  28  29
ATOM     29  N   UNL     1      -2.687  12.209  18.140  0.00  0.00    +0.000 NA
ATOM     30  H   UNL     1      -3.052  12.043  19.076  0.00  0.00    +0.000 HD
BRANCH  29  32
ATOM     31  C   UNL     1      -4.954  11.585  16.861  0.00  0.00    +0.000 C 
ATOM     32  S   UNL     1      -3.274  11.041  17.071  0.00  0.00    +0.000 S 
ATOM     33  O   UNL     1      -3.284   9.794  17.802  0.00  0.00    +0.000 OA
ATOM     34  O   UNL     1      -2.565  11.187  15.822  0.00  0.00    +0.000 OA
ENDBRANCH  29  32
ENDBRANCH  28  29
ENDBRANCH  22  28
ENDBRANCH   1  26
TORSDOF 8
ENDMDL
MODEL 5
REMARK VINA RESULT:      -8.6      2.371      2.872
REMARK  Name = 
REMARK  9 active torsions:
REMARK  status: ('A' for Active; 'I' for Inactive)
REMARK    1  A    between atoms: C_1  and  S_2
REMARK    2  A    between atoms: S_2  and  N_5
REMARK    3  A    between atoms: N_5  and  C_6
REMARK    4  A    between atoms: C_6  and  C_7
REMARK    5  A    between atoms: C_11  and  C_12
REMARK    6  A    between atoms: C_14  and  C_15
REMARK    7  A    between atoms: C_21  and  C_23
REMARK    8  A    between atoms: C_23  and  O_24
REMARK    9  A    between atoms: O_24  and  C_25
REMARK                            x       y       z     vdW  Elec       q    Type
REMARK                         _______ _______ _______ _____ _____    ______ ____
ROOT
ATOM      1  C   UNL     1       1.574   8.447  19.650  0.00  0.00    +0.000 A 
ATOM      2  N   UNL     1       1.845   7.405  20.399  0.00  0.00    +0.000 NA
ATOM      3  C   UNL     1       2.494   6.572  19.521  0.00  0.00    +0.000 A 
ATOM      4  N   UNL     1       2.661   7.077  18.290  0.00  0.00    +0.000 NA
ATOM      5  O   UNL     1       2.037   8.322  18.371  0.00  0.00    +0.000 OA
ENDROOT
BRANCH   3   6
ATOM      6  C   UNL     1       2.989   5.215  19.941  0.00  0.00    +0.000 C 
ATOM      7  C   UNL     1       2.086   4.547  20.996  0.00  0.00    +0.000 C 
ATOM      8  C   UNL     1       0.721   4.149  20.420  0.00  0.00    +0.000 C 
ATOM      9  C   UNL     1       0.875   3.298  19.161  0.00  0.00    +0.000 C 
ATOM     10  C   UNL     1       1.842   3.921  18.154  0.00  0.00    +0.000 C 
ATOM     11  N   UNL     1       3.108   4.296  18.794  0.00  0.00    +0.000 N 
ATOM     12  C   UNL     1       4.289   3.678  18.389  0.00  0.00    +0.000 C 
ATOM     13  O   UNL     1       4.295   2.816  17.503  0.00  0.00    +0.000 OA
BRANCH  12  14
ATOM     14  C   UNL     1       5.604   4.055  19.080  0.00  0.00    +0.000 C 
BRANCH  14  15
ATOM     15  O   UNL     1       6.617   4.245  18.098  0.00  0.00    +0.000 OA
BRANCH  15  16
ATOM     16  C   UNL     1       7.133   5.512  18.035  0.00  0.00    +0.000 A 
ATOM     17  C   UNL     1       6.695   6.312  16.976  0.00  0.00    +0.000 A 
ATOM     18  C   UNL     1       7.122   7.638  16.869  0.00  0.00    +0.000 A 
ATOM     19  C   UNL     1       7.973   8.175  17.832  0.00  0.00    +0.000 A 
ATOM     20  C   UNL     1       8.398   7.386  18.900  0.00  0.00    +0.000 A 
ATOM     21  C   UNL     1       7.976   6.056  19.003  0.00  0.00    +0.000 A 
ENDBRANCH  15  16
ENDBRANCH  14  15
ENDBRANCH  12  14
ENDBRANCH   3   6
BRANCH   1  26
ATOM     22  C   UNL     1      -0.496  10.965  21.551  0.00  0.00    +0.000 A 
ATOM     23  C   UNL     1      -0.518  12.022  20.632  0.00  0.00    +0.000 A 
ATOM     24  C   UNL     1       0.145  11.908  19.410  0.00  0.00    +0.000 A 
ATOM     25  C   UNL     1       0.830  10.735  19.095  0.00  0.00    +0.000 A 
ATOM     26  C   UNL     1       0.862   9.662  19.997  0.00  0.00    +0.000 A 
ATOM     27  C   UNL     1       0.192   9.789  21.219  0.00  0.00    +0.000 A 
BRANCH  22  28
ATOM     28  C   UNL     1      -1.231  11.056  22.868  0.00  0.00    +0.000 C 
BRANCH  28  29
ATOM     29  N   UNL     1      -1.639  12.448  23.162  0.00  0.00    +0.000 NA
ATOM     30  H   UNL     1      -1.241  12.766  24.044  0.00  0.00    +0.000 HD
BRANCH  29  32
ATOM     31  C   UNL     1      -3.448  14.348  23.689  0.00  0.00    +0.000 C 
ATOM     32  S   UNL     1      -3.315  12.652  23.172  0.00  0.00    +0.000 S 
ATOM     33  O   UNL     1      -3.818  11.808  24.233  0.00  0.00    +0.000 OA
ATOM     34  O   UNL     1      -3.785  12.529  21.812  0.00  0.00    +0.000 OA
ENDBRANCH  29  32
ENDBRANCH  28  29
ENDBRANCH  22  28
ENDBRANCH   1  26
TORSDOF 8
ENDMDL
MODEL 6
REMARK VINA RESULT:      -8.6      2.064      2.360
REMARK  Name = 
REMARK  9 active torsions:
REMARK  status: ('A' for Active; 'I' for Inactive)
REMARK    1  A    between atoms: C_1  and  S_2
REMARK    2  A    between atoms: S_2  and  N_5
REMARK    3  A    between atoms: N_5  and  C_6
REMARK    4  A    between atoms: C_6  and  C_7
REMARK    5  A    between atoms: C_11  and  C_12
REMARK    6  A    between atoms: C_14  and  C_15
REMARK    7  A    between atoms: C_21  and  C_23
REMARK    8  A    between atoms: C_23  and  O_24
REMARK    9  A    between atoms: O_24  and  C_25
REMARK                            x       y       z     vdW  Elec       q    Type
REMARK                         _______ _______ _______ _____ _____    ______ ____
ROOT
ATOM      1  C   UNL     1       1.459   7.908  20.413  0.00  0.00    +0.000 A 
ATOM      2  N   UNL     1       1.774   6.678  20.741  0.00  0.00    +0.000 NA
ATOM      3  C   UNL     1       2.475   6.251  19.640  0.00  0.00    +0.000 A 
ATOM      4  N   UNL     1       2.632   7.177  18.682  0.00  0.00    +0.000 NA
ATOM      5  O   UNL     1       1.943   8.278  19.190  0.00  0.00    +0.000 OA
ENDROOT
BRANCH   3   6
ATOM      6  C   UNL     1       3.034   4.857  19.554  0.00  0.00    +0.000 C 
ATOM      7  C   UNL     1       2.785   4.030  20.831  0.00  0.00    +0.000 C 
ATOM      8  C   UNL     1       1.300   3.695  21.021  0.00  0.00    +0.000 C 
ATOM      9  C   UNL     1       0.715   3.034  19.774  0.00  0.00    +0.000 C 
ATOM     10  C   UNL     1       1.041   3.810  18.498  0.00  0.00    +0.000 C 
ATOM     11  N   UNL     1       2.474   4.112  18.411  0.00  0.00    +0.000 N 
ATOM     12  C   UNL     1       3.224   3.578  17.365  0.00  0.00    +0.000 C 
ATOM     13  O   UNL     1       2.710   2.851  16.508  0.00  0.00    +0.000 OA
BRANCH  12  14
ATOM     14  C   UNL     1       4.726   3.877  17.294  0.00  0.00    +0.000 C 
BRANCH  14  15
ATOM     15  O   UNL     1       4.921   5.250  16.973  0.00  0.00    +0.000 OA
BRANCH  15  16
ATOM     16  C   UNL     1       6.046   5.816  17.514  0.00  0.00    +0.000 A 
ATOM     17  C   UNL     1       6.440   7.047  16.986  0.00  0.00    +0.000 A 
ATOM     18  C   UNL     1       7.540   7.726  17.518  0.00  0.00    +0.000 A 
ATOM     19  C   UNL     1       8.238   7.182  18.594  0.00  0.00    +0.000 A 
ATOM     20  C   UNL     1       7.836   5.962  19.135  0.00  0.00    +0.000 A 
ATOM     21  C   UNL     1       6.740   5.280  18.598  0.00  0.00    +0.000 A 
ENDBRANCH  15  16
ENDBRANCH  14  15
ENDBRANCH  12  14
ENDBRANCH   3   6
BRANCH   1  26
ATOM     22  C   UNL     1      -0.776  10.838  21.228  0.00  0.00    +0.000 A 
ATOM     23  C   UNL     1      -0.799  10.760  22.626  0.00  0.00    +0.000 A 
ATOM     24  C   UNL     1      -0.094   9.754  23.287  0.00  0.00    +0.000 A 
ATOM     25  C   UNL     1       0.641   8.822  22.557  0.00  0.00    +0.000 A 
ATOM     26  C   UNL     1       0.682   8.882  21.157  0.00  0.00    +0.000 A 
ATOM     27  C   UNL     1      -0.028   9.897  20.505  0.00  0.00    +0.000 A 
BRANCH  22  28
ATOM     28  C   UNL     1      -1.508  11.936  20.491  0.00  0.00    +0.000 C 
BRANCH  28  29
ATOM     29  N   UNL     1      -2.245  12.813  21.428  0.00  0.00    +0.000 NA
ATOM     30  H   UNL     1      -2.203  12.448  22.378  0.00  0.00    +0.000 HD
BRANCH  29  32
ATOM     31  C   UNL     1      -3.893  12.219  19.404  0.00  0.00    +0.000 C 
ATOM     32  S   UNL     1      -3.852  13.058  20.971  0.00  0.00    +0.000 S 
ATOM     33  O   UNL     1      -3.993  14.478  20.735  0.00  0.00    +0.000 OA
ATOM     34  O   UNL     1      -4.693  12.355  21.911  0.00  0.00    +0.000 OA
ENDBRANCH  29  32
ENDBRANCH  28  29
ENDBRANCH  22  28
ENDBRANCH   1  26
TORSDOF 8
ENDMDL
MODEL 7
REMARK VINA RESULT:      -8.5      2.321      2.864
REMARK  Name = 
REMARK  9 active torsions:
REMARK  status: ('A' for Active; 'I' for Inactive)
REMARK    1  A    between atoms: C_1  and  S_2
REMARK    2  A    between atoms: S_2  and  N_5
REMARK    3  A    between atoms: N_5  and  C_6
REMARK    4  A    between atoms: C_6  and  C_7
REMARK    5  A    between atoms: C_11  and  C_12
REMARK    6  A    between atoms: C_14  and  C_15
REMARK    7  A    between atoms: C_21  and  C_23
REMARK    8  A    between atoms: C_23  and  O_24
REMARK    9  A    between atoms: O_24  and  C_25
REMARK                            x       y       z     vdW  Elec       q    Type
REMARK                         _______ _______ _______ _____ _____    ______ ____
ROOT
ATOM      1  C   UNL     1       1.531   7.955  20.303  0.00  0.00    +0.000 A 
ATOM      2  N   UNL     1       1.817   6.722  20.648  0.00  0.00    +0.000 NA
ATOM      3  C   UNL     1       2.537   6.274  19.568  0.00  0.00    +0.000 A 
ATOM      4  N   UNL     1       2.733   7.188  18.607  0.00  0.00    +0.000 NA
ATOM      5  O   UNL     1       2.052   8.306  19.090  0.00  0.00    +0.000 OA
ENDROOT
BRANCH   3   6
ATOM      6  C   UNL     1       3.074   4.870  19.506  0.00  0.00    +0.000 C 
ATOM      7  C   UNL     1       2.837   4.079  20.808  0.00  0.00    +0.000 C 
ATOM      8  C   UNL     1       1.352   3.771  21.035  0.00  0.00    +0.000 C 
ATOM      9  C   UNL     1       0.732   3.088  19.817  0.00  0.00    +0.000 C 
ATOM     10  C   UNL     1       1.045   3.827  18.516  0.00  0.00    +0.000 C 
ATOM     11  N   UNL     1       2.480   4.105  18.393  0.00  0.00    +0.000 N 
ATOM     12  C   UNL     1       3.201   3.533  17.348  0.00  0.00    +0.000 C 
ATOM     13  O   UNL     1       2.659   2.793  16.519  0.00  0.00    +0.000 OA
BRANCH  12  14
ATOM     14  C   UNL     1       4.705   3.807  17.240  0.00  0.00    +0.000 C 
BRANCH  14  15
ATOM     15  O   UNL     1       4.915   5.168  16.881  0.00  0.00    +0.000 OA
BRANCH  15  16
ATOM     16  C   UNL     1       6.021   5.751  17.441  0.00  0.00    +0.000 A 
ATOM     17  C   UNL     1       6.383   7.006  16.947  0.00  0.00    +0.000 A 
ATOM     18  C   UNL     1       7.461   7.700  17.502  0.00  0.00    +0.000 A 
ATOM     19  C   UNL     1       8.169   7.149  18.568  0.00  0.00    +0.000 A 
ATOM     20  C   UNL     1       7.799   5.905  19.076  0.00  0.00    +0.000 A 
ATOM     21  C   UNL     1       6.724   5.207  18.515  0.00  0.00    +0.000 A 
ENDBRANCH  15  16
ENDBRANCH  14  15
ENDBRANCH  12  14
ENDBRANCH   3   6
BRANCH   1  26
ATOM     22  C   UNL     1      -0.569  10.999  21.054  0.00  0.00    +0.000 A 
ATOM     23  C   UNL     1      -0.732  10.860  22.438  0.00  0.00    +0.000 A 
ATOM     24  C   UNL     1      -0.164   9.778  23.110  0.00  0.00    +0.000 A 
ATOM     25  C   UNL     1       0.573   8.828  22.404  0.00  0.00    +0.000 A 
ATOM     26  C   UNL     1       0.753   8.948  21.019  0.00  0.00    +0.000 A 
ATOM     27  C   UNL     1       0.181  10.040  20.357  0.00  0.00    +0.000 A 
BRANCH  22  28
ATOM     28  C   UNL     1      -1.150  12.179  20.310  0.00  0.00    +0.000 C 
BRANCH  28  29
ATOM     29  N   UNL     1      -0.945  13.439  21.057  0.00  0.00    +0.000 NA
ATOM     30  H   UNL     1      -1.673  14.117  20.836  0.00  0.00    +0.000 HD
BRANCH  29  32
ATOM     31  C   UNL     1       0.169  15.843  20.679  0.00  0.00    +0.000 C 
ATOM     32  S   UNL     1       0.579  14.117  20.796  0.00  0.00    +0.000 S 
ATOM     33  O   UNL     1       1.007  13.658  19.493  0.00  0.00    +0.000 OA
ATOM     34  O   UNL     1       1.373  13.894  21.981  0.00  0.00    +0.000 OA
ENDBRANCH  29  32
ENDBRANCH  28  29
ENDBRANCH  22  28
ENDBRANCH   1  26
TORSDOF 8
ENDMDL
MODEL 8
REMARK VINA RESULT:      -8.4      2.809      3.288
REMARK  Name = 
REMARK  9 active torsions:
REMARK  status: ('A' for Active; 'I' for Inactive)
REMARK    1  A    between atoms: C_1  and  S_2
REMARK    2  A    between atoms: S_2  and  N_5
REMARK    3  A    between atoms: N_5  and  C_6
REMARK    4  A    between atoms: C_6  and  C_7
REMARK    5  A    between atoms: C_11  and  C_12
REMARK    6  A    between atoms: C_14  and  C_15
REMARK    7  A    between atoms: C_21  and  C_23
REMARK    8  A    between atoms: C_23  and  O_24
REMARK    9  A    between atoms: O_24  and  C_25
REMARK                            x       y       z     vdW  Elec       q    Type
REMARK                         _______ _______ _______ _____ _____    ______ ____
ROOT
ATOM      1  C   UNL     1       1.421   8.054  20.647  0.00  0.00    +0.000 A 
ATOM      2  N   UNL     1       1.715   6.867  21.120  0.00  0.00    +0.000 NA
ATOM      3  C   UNL     1       2.355   6.277  20.057  0.00  0.00    +0.000 A 
ATOM      4  N   UNL     1       2.496   7.065  18.982  0.00  0.00    +0.000 NA
ATOM      5  O   UNL     1       1.863   8.246  19.368  0.00  0.00    +0.000 OA
ENDROOT
BRANCH   3   6
ATOM      6  C   UNL     1       2.868   4.865  20.131  0.00  0.00    +0.000 C 
ATOM      7  C   UNL     1       1.945   3.932  20.940  0.00  0.00    +0.000 C 
ATOM      8  C   UNL     1       0.612   3.678  20.225  0.00  0.00    +0.000 C 
ATOM      9  C   UNL     1       0.832   3.185  18.795  0.00  0.00    +0.000 C 
ATOM     10  C   UNL     1       1.818   4.062  18.025  0.00  0.00    +0.000 C 
ATOM     11  N   UNL     1       3.051   4.277  18.791  0.00  0.00    +0.000 N 
ATOM     12  C   UNL     1       4.261   3.803  18.289  0.00  0.00    +0.000 C 
ATOM     13  O   UNL     1       4.320   3.201  17.210  0.00  0.00    +0.000 OA
BRANCH  12  14
ATOM     14  C   UNL     1       5.541   4.008  19.107  0.00  0.00    +0.000 C 
BRANCH  14  15
ATOM     15  O   UNL     1       6.628   4.273  18.227  0.00  0.00    +0.000 OA
BRANCH  15  16
ATOM     16  C   UNL     1       6.934   5.599  18.069  0.00  0.00    +0.000 A 
ATOM     17  C   UNL     1       7.959   6.103  18.872  0.00  0.00    +0.000 A 
ATOM     18  C   UNL     1       8.378   7.430  18.734  0.00  0.00    +0.000 A 
ATOM     19  C   UNL     1       7.785   8.250  17.778  0.00  0.00    +0.000 A 
ATOM     20  C   UNL     1       6.773   7.746  16.963  0.00  0.00    +0.000 A 
ATOM     21  C   UNL     1       6.349   6.421  17.106  0.00  0.00    +0.000 A 
ENDBRANCH  15  16
ENDBRANCH  14  15
ENDBRANCH  12  14
ENDBRANCH   3   6
BRANCH   1  26
ATOM     22  C   UNL     1       0.171  11.516  21.483  0.00  0.00    +0.000 A 
ATOM     23  C   UNL     1      -0.680  11.226  22.557  0.00  0.00    +0.000 A 
ATOM     24  C   UNL     1      -0.842   9.911  22.994  0.00  0.00    +0.000 A 
ATOM     25  C   UNL     1      -0.153   8.877  22.362  0.00  0.00    +0.000 A 
ATOM     26  C   UNL     1       0.706   9.142  21.287  0.00  0.00    +0.000 A 
ATOM     27  C   UNL     1       0.863  10.466  20.860  0.00  0.00    +0.000 A 
BRANCH  22  28
ATOM     28  C   UNL     1       0.384  12.935  21.012  0.00  0.00    +0.000 C 
BRANCH  28  29
ATOM     29  N   UNL     1       1.816  13.307  21.056  0.00  0.00    +0.000 NA
ATOM     30  H   UNL     1       2.330  12.700  21.693  0.00  0.00    +0.000 HD
BRANCH  29  32
ATOM     31  C   UNL     1       3.039  15.484  20.093  0.00  0.00    +0.000 C 
ATOM     32  S   UNL     1       2.062  14.925  21.469  0.00  0.00    +0.000 S 
ATOM     33  O   UNL     1       2.896  14.918  22.651  0.00  0.00    +0.000 OA
ATOM     34  O   UNL     1       0.780  15.588  21.445  0.00  0.00    +0.000 OA
ENDBRANCH  29  32
ENDBRANCH  28  29
ENDBRANCH  22  28
ENDBRANCH   1  26
TORSDOF 8
ENDMDL
MODEL 9
REMARK VINA RESULT:      -8.3      1.230      1.697
REMARK  Name = 
REMARK  9 active torsions:
REMARK  status: ('A' for Active; 'I' for Inactive)
REMARK    1  A    between atoms: C_1  and  S_2
REMARK    2  A    between atoms: S_2  and  N_5
REMARK    3  A    between atoms: N_5  and  C_6
REMARK    4  A    between atoms: C_6  and  C_7
REMARK    5  A    between atoms: C_11  and  C_12
REMARK    6  A    between atoms: C_14  and  C_15
REMARK    7  A    between atoms: C_21  and  C_23
REMARK    8  A    between atoms: C_23  and  O_24
REMARK    9  A    between atoms: O_24  and  C_25
REMARK                            x       y       z     vdW  Elec       q    Type
REMARK                         _______ _______ _______ _____ _____    ______ ____
ROOT
ATOM      1  C   UNL     1       1.530   8.886  18.912  0.00  0.00    +0.000 A 
ATOM      2  N   UNL     1       2.032   7.802  19.453  0.00  0.00    +0.000 NA
ATOM      3  C   UNL     1       2.700   7.230  18.398  0.00  0.00    +0.000 A 
ATOM      4  N   UNL     1       2.658   7.936  17.259  0.00  0.00    +0.000 NA
ATOM      5  O   UNL     1       1.867   9.034  17.597  0.00  0.00    +0.000 OA
ENDROOT
BRANCH   3   6
ATOM      6  C   UNL     1       3.434   5.925  18.545  0.00  0.00    +0.000 C 
ATOM      7  C   UNL     1       3.652   5.521  20.017  0.00  0.00    +0.000 C 
ATOM      8  C   UNL     1       2.338   5.150  20.714  0.00  0.00    +0.000 C 
ATOM      9  C   UNL     1       1.569   4.090  19.927  0.00  0.00    +0.000 C 
ATOM     10  C   UNL     1       1.432   4.452  18.448  0.00  0.00    +0.000 C 
ATOM     11  N   UNL     1       2.729   4.820  17.868  0.00  0.00    +0.000 N 
ATOM     12  C   UNL     1       3.265   4.046  16.842  0.00  0.00    +0.000 C 
ATOM     13  O   UNL     1       2.672   3.051  16.408  0.00  0.00    +0.000 OA
BRANCH  12  14
ATOM     14  C   UNL     1       4.632   4.420  16.258  0.00  0.00    +0.000 C 
BRANCH  14  15
ATOM     15  O   UNL     1       5.661   3.947  17.121  0.00  0.00    +0.000 OA
BRANCH  15  16
ATOM     16  C   UNL     1       6.501   4.915  17.603  0.00  0.00    +0.000 A 
ATOM     17  C   UNL     1       6.654   6.059  16.815  0.00  0.00    +0.000 A 
ATOM     18  C   UNL     1       7.444   7.123  17.259  0.00  0.00    +0.000 A 
ATOM     19  C   UNL     1       8.069   7.054  18.502  0.00  0.00    +0.000 A 
ATOM     20  C   UNL     1       7.905   5.922  19.299  0.00  0.00    +0.000 A 
ATOM     21  C   UNL     1       7.119   4.855  18.851  0.00  0.00    +0.000 A 
ENDBRANCH  15  16
ENDBRANCH  14  15
ENDBRANCH  12  14
ENDBRANCH   3   6
BRANCH   1  26
ATOM     22  C   UNL     1      -1.204  11.441  19.402  0.00  0.00    +0.000 A 
ATOM     23  C   UNL     1      -0.916  11.876  20.702  0.00  0.00    +0.000 A 
ATOM     24  C   UNL     1       0.159  11.332  21.406  0.00  0.00    +0.000 A 
ATOM     25  C   UNL     1       0.954  10.351  20.815  0.00  0.00    +0.000 A 
ATOM     26  C   UNL     1       0.687   9.902  19.514  0.00  0.00    +0.000 A 
ATOM     27  C   UNL     1      -0.392  10.458  18.818  0.00  0.00    +0.000 A 
BRANCH  22  28
ATOM     28  C   UNL     1      -2.344  12.037  18.610  0.00  0.00    +0.000 C 
BRANCH  28  29
ATOM     29  N   UNL     1      -2.120  11.895  17.155  0.00  0.00    +0.000 NA
ATOM     30  H   UNL     1      -1.966  12.803  16.719  0.00  0.00    +0.000 HD
BRANCH  29  32
ATOM     31  C   UNL     1      -3.467   9.590  17.338  0.00  0.00    +0.000 C 
ATOM     32  S   UNL     1      -3.375  11.080  16.373  0.00  0.00    +0.000 S 
ATOM     33  O   UNL     1      -2.880  10.744  15.056  0.00  0.00    +0.000 OA
ATOM     34  O   UNL     1      -4.585  11.845  16.560  0.00  0.00    +0.000 OA
ENDBRANCH  29  32
ENDBRANCH  28  29
ENDBRANCH  22  28
ENDBRANCH   1  26
TORSDOF 8
ENDMDL
