MODEL 1
REMARK VINA RESULT:      -7.7      0.000      0.000
REMARK  Name = 
REMARK  10 active torsions:
REMARK  status: ('A' for Active; 'I' for Inactive)
REMARK    1  A    between atoms: N_3  and  C_4
REMARK    2  A    between atoms: C_4  and  C_5
REMARK    3  A    between atoms: C_5  and  C_6
REMARK    4  A    between atoms: C_5  and  O_18
REMARK    5  A    between atoms: C_6  and  N_7
REMARK    6  A    between atoms: C_11  and  O_12
REMARK    7  A    between atoms: O_18  and  C_19
REMARK    8  A    between atoms: C_19  and  P_20
REMARK    9  A    between atoms: P_20  and  O_22
REMARK   10  A    between atoms: P_20  and  O_23
REMARK                            x       y       z     vdW  Elec       q    Type
REMARK                         _______ _______ _______ _____ _____    ______ ____
ROOT
ATOM      1  C   UNL     1       3.920   4.188  16.637  0.00  0.00    +0.000 C 
ENDROOT
BRANCH   1   2
ATOM      2  N   UNL     1       3.662   3.501  17.876  0.00  0.00    +0.000 N 
ATOM      3  C   UNL     1       3.744   2.153  18.085  0.00  0.00    +0.000 A 
ATOM      4  N   UNL     1       3.299   1.813  19.278  0.00  0.00    +0.000 NA
ATOM      5  C   UNL     1       2.881   3.001  19.835  0.00  0.00    +0.000 A 
ATOM      6  C   UNL     1       2.273   3.321  21.043  0.00  0.00    +0.000 A 
ATOM      7  N   UNL     1       1.940   4.594  21.320  0.00  0.00    +0.000 NA
ATOM      8  C   UNL     1       2.207   5.536  20.401  0.00  0.00    +0.000 A 
ATOM      9  N   UNL     1       1.838   6.829  20.721  0.00  0.00    +0.000 N 
ATOM     10  N   UNL     1       2.812   5.355  19.209  0.00  0.00    +0.000 NA
ATOM     11  C   UNL     1       3.111   4.066  18.989  0.00  0.00    +0.000 A 
ATOM     12  H   UNL     1       1.746   6.906  21.725  0.00  0.00    +0.000 HD
ATOM     13  H   UNL     1       2.432   7.496  20.255  0.00  0.00    +0.000 HD
BRANCH   6  14
ATOM     14  O   UNL     1       1.968   2.364  21.977  0.00  0.00    +0.000 OA
ATOM     15  H   UNL     1       1.425   2.831  22.638  0.00  0.00    +0.000 HD
ENDBRANCH   6  14
ENDBRANCH   1   2
BRANCH   1  16
ATOM     16  C   UNL     1       5.339   4.749  16.474  0.00  0.00    +0.000 C 
BRANCH  16  17
ATOM     17  C   UNL     1       5.588   5.200  15.020  0.00  0.00    +0.000 C 
BRANCH  17  20
ATOM     18  N   UNL     1       8.408   5.758  13.421  0.00  0.00    +0.000 NA
ATOM     19  N   UNL     1       7.599   5.122  13.903  0.00  0.00    +0.000 NA
ATOM     20  N   UNL     1       6.696   4.439  14.422  0.00  0.00    +0.000 NA
ENDBRANCH  17  20
ENDBRANCH  16  17
BRANCH  16  21
ATOM     21  O   UNL     1       5.490   5.904  17.332  0.00  0.00    +0.000 OA
BRANCH  21  22
ATOM     22  C   UNL     1       6.868   6.294  17.464  0.00  0.00    +0.000 C 
BRANCH  22  23
ATOM     23  P   UNL     1       7.601   5.803  19.067  0.00  0.00    +0.000 P 
ATOM     24  O   UNL     1       6.226   5.461  19.647  0.00  0.00    +0.000 OA
BRANCH  23  25
ATOM     25  O   UNL     1       8.160   4.397  18.435  0.00  0.00    +0.000 OA
ATOM     26  H   UNL     1       7.514   4.058  17.785  0.00  0.00    +0.000 HD
ENDBRANCH  23  25
BRANCH  23  27
ATOM     27  O   UNL     1       8.294   5.339  20.583  0.00  0.00    +0.000 OA
ATOM     28  H   UNL     1       8.961   6.032  20.762  0.00  0.00    +0.000 HD
ENDBRANCH  23  27
ENDBRANCH  22  23
ENDBRANCH  21  22
ENDBRANCH  16  21
ENDBRANCH   1  16
TORSDOF 10
ENDMDL
MODEL 2
REMARK VINA RESULT:      -7.3      1.217      1.317
REMARK  Name = 
REMARK  10 active torsions:
REMARK  status: ('A' for Active; 'I' for Inactive)
REMARK    1  A    between atoms: N_3  and  C_4
REMARK    2  A    between atoms: C_4  and  C_5
REMARK    3  A    between atoms: C_5  and  C_6
REMARK    4  A    between atoms: C_5  and  O_18
REMARK    5  A    between atoms: C_6  and  N_7
REMARK    6  A    between atoms: C_11  and  O_12
REMARK    7  A    between atoms: O_18  and  C_19
REMARK    8  A    between atoms: C_19  and  P_20
REMARK    9  A    between atoms: P_20  and  O_22
REMARK   10  A    between atoms: P_20  and  O_23
REMARK                            x       y       z     vdW  Elec       q    Type
REMARK                         _______ _______ _______ _____ _____    ______ ____
ROOT
ATOM      1  C   UNL     1       4.098   4.261  16.541  0.00  0.00    +0.000 C 
ENDROOT
BRANCH   1   2
ATOM      2  N   UNL     1       3.463   3.606  17.654  0.00  0.00    +0.000 N 
ATOM      3  C   UNL     1       3.178   2.272  17.751  0.00  0.00    +0.000 A 
ATOM      4  N   UNL     1       2.456   2.001  18.820  0.00  0.00    +0.000 NA
ATOM      5  C   UNL     1       2.244   3.229  19.407  0.00  0.00    +0.000 A 
ATOM      6  C   UNL     1       1.523   3.636  20.522  0.00  0.00    +0.000 A 
ATOM      7  N   UNL     1       1.463   4.938  20.855  0.00  0.00    +0.000 NA
ATOM      8  C   UNL     1       2.110   5.823  20.080  0.00  0.00    +0.000 A 
ATOM      9  N   UNL     1       2.013   7.151  20.452  0.00  0.00    +0.000 N 
ATOM     10  N   UNL     1       2.859   5.551  18.992  0.00  0.00    +0.000 NA
ATOM     11  C   UNL     1       2.872   4.240  18.708  0.00  0.00    +0.000 A 
ATOM     12  H   UNL     1       1.762   7.202  21.430  0.00  0.00    +0.000 HD
ATOM     13  H   UNL     1       2.824   7.667  20.150  0.00  0.00    +0.000 HD
BRANCH   6  14
ATOM     14  O   UNL     1       0.832   2.746  21.304  0.00  0.00    +0.000 OA
ATOM     15  H   UNL     1      -0.104   2.989  21.185  0.00  0.00    +0.000 HD
ENDBRANCH   6  14
ENDBRANCH   1   2
BRANCH   1  16
ATOM     16  C   UNL     1       5.566   3.882  16.300  0.00  0.00    +0.000 C 
BRANCH  16  17
ATOM     17  C   UNL     1       6.058   4.427  14.942  0.00  0.00    +0.000 C 
BRANCH  17  20
ATOM     18  N   UNL     1       8.342   5.855  13.054  0.00  0.00    +0.000 NA
ATOM     19  N   UNL     1       7.918   5.411  14.011  0.00  0.00    +0.000 NA
ATOM     20  N   UNL     1       7.444   4.907  15.047  0.00  0.00    +0.000 NA
ENDBRANCH  17  20
ENDBRANCH  16  17
BRANCH  16  21
ATOM     21  O   UNL     1       6.381   4.471  17.339  0.00  0.00    +0.000 OA
BRANCH  21  22
ATOM     22  C   UNL     1       5.973   5.817  17.640  0.00  0.00    +0.000 C 
BRANCH  22  23
ATOM     23  P   UNL     1       7.348   6.866  18.236  0.00  0.00    +0.000 P 
ATOM     24  O   UNL     1       8.132   5.645  18.725  0.00  0.00    +0.000 OA
BRANCH  23  25
ATOM     25  O   UNL     1       7.875   7.128  16.706  0.00  0.00    +0.000 OA
ATOM     26  H   UNL     1       8.466   7.908  16.699  0.00  0.00    +0.000 HD
ENDBRANCH  23  25
BRANCH  23  27
ATOM     27  O   UNL     1       8.649   7.858  18.800  0.00  0.00    +0.000 OA
ATOM     28  H   UNL     1       8.410   8.758  18.499  0.00  0.00    +0.000 HD
ENDBRANCH  23  27
ENDBRANCH  22  23
ENDBRANCH  21  22
ENDBRANCH  16  21
ENDBRANCH   1  16
TORSDOF 10
ENDMDL
MODEL 3
REMARK VINA RESULT:      -7.3      2.946      5.956
REMARK  Name = 
REMARK  10 active torsions:
REMARK  status: ('A' for Active; 'I' for Inactive)
REMARK    1  A    between atoms: N_3  and  C_4
REMARK    2  A    between atoms: C_4  and  C_5
REMARK    3  A    between atoms: C_5  and  C_6
REMARK    4  A    between atoms: C_5  and  O_18
REMARK    5  A    between atoms: C_6  and  N_7
REMARK    6  A    between atoms: C_11  and  O_12
REMARK    7  A    between atoms: O_18  and  C_19
REMARK    8  A    between atoms: C_19  and  P_20
REMARK    9  A    between atoms: P_20  and  O_22
REMARK   10  A    between atoms: P_20  and  O_23
REMARK                            x       y       z     vdW  Elec       q    Type
REMARK                         _______ _______ _______ _____ _____    ______ ____
ROOT
ATOM      1  C   UNL     1       4.773   3.382  17.014  0.00  0.00    +0.000 C 
ENDROOT
BRANCH   1   2
ATOM      2  N   UNL     1       5.304   4.710  16.846  0.00  0.00    +0.000 N 
ATOM      3  C   UNL     1       5.123   5.521  15.760  0.00  0.00    +0.000 A 
ATOM      4  N   UNL     1       5.860   6.611  15.834  0.00  0.00    +0.000 NA
ATOM      5  C   UNL     1       6.568   6.464  17.006  0.00  0.00    +0.000 A 
ATOM      6  C   UNL     1       7.544   7.232  17.628  0.00  0.00    +0.000 A 
ATOM      7  N   UNL     1       8.099   6.822  18.783  0.00  0.00    +0.000 NA
ATOM      8  C   UNL     1       7.687   5.657  19.307  0.00  0.00    +0.000 A 
ATOM      9  N   UNL     1       8.291   5.267  20.488  0.00  0.00    +0.000 N 
ATOM     10  N   UNL     1       6.735   4.838  18.814  0.00  0.00    +0.000 NA
ATOM     11  C   UNL     1       6.228   5.297  17.660  0.00  0.00    +0.000 A 
ATOM     12  H   UNL     1       8.688   6.080  20.939  0.00  0.00    +0.000 HD
ATOM     13  H   UNL     1       7.671   4.688  21.032  0.00  0.00    +0.000 HD
BRANCH   6  14
ATOM     14  O   UNL     1       7.995   8.409  17.087  0.00  0.00    +0.000 OA
ATOM     15  H   UNL     1       8.148   8.990  17.855  0.00  0.00    +0.000 HD
ENDBRANCH   6  14
ENDBRANCH   1   2
BRANCH   1  16
ATOM     16  C   UNL     1       3.246   3.290  17.136  0.00  0.00    +0.000 C 
BRANCH  16  17
ATOM     17  C   UNL     1       2.842   2.283  18.233  0.00  0.00    +0.000 C 
BRANCH  17  20
ATOM     18  N   UNL     1       3.261   2.495  21.489  0.00  0.00    +0.000 NA
ATOM     19  N   UNL     1       3.580   2.317  20.413  0.00  0.00    +0.000 NA
ATOM     20  N   UNL     1       3.917   2.140  19.227  0.00  0.00    +0.000 NA
ENDBRANCH  17  20
ENDBRANCH  16  17
BRANCH  16  21
ATOM     21  O   UNL     1       2.724   4.587  17.506  0.00  0.00    +0.000 OA
BRANCH  21  22
ATOM     22  C   UNL     1       1.692   4.483  18.503  0.00  0.00    +0.000 C 
BRANCH  22  23
ATOM     23  P   UNL     1       1.849   5.734  19.828  0.00  0.00    +0.000 P 
ATOM     24  O   UNL     1       0.962   4.918  20.772  0.00  0.00    +0.000 OA
BRANCH  23  25
ATOM     25  O   UNL     1       3.382   5.258  20.163  0.00  0.00    +0.000 OA
ATOM     26  H   UNL     1       3.534   5.320  21.126  0.00  0.00    +0.000 HD
ENDBRANCH  23  25
BRANCH  23  27
ATOM     27  O   UNL     1       1.997   6.918  21.081  0.00  0.00    +0.000 OA
ATOM     28  H   UNL     1       1.090   7.001  21.440  0.00  0.00    +0.000 HD
ENDBRANCH  23  27
ENDBRANCH  22  23
ENDBRANCH  21  22
ENDBRANCH  16  21
ENDBRANCH   1  16
TORSDOF 10
ENDMDL
MODEL 4
REMARK VINA RESULT:      -7.2      1.384      1.526
REMARK  Name = 
REMARK  10 active torsions:
REMARK  status: ('A' for Active; 'I' for Inactive)
REMARK    1  A    between atoms: N_3  and  C_4
REMARK    2  A    between atoms: C_4  and  C_5
REMARK    3  A    between atoms: C_5  and  C_6
REMARK    4  A    between atoms: C_5  and  O_18
REMARK    5  A    between atoms: C_6  and  N_7
REMARK    6  A    between atoms: C_11  and  O_12
REMARK    7  A    between atoms: O_18  and  C_19
REMARK    8  A    between atoms: C_19  and  P_20
REMARK    9  A    between atoms: P_20  and  O_22
REMARK   10  A    between atoms: P_20  and  O_23
REMARK                            x       y       z     vdW  Elec       q    Type
REMARK                         _______ _______ _______ _____ _____    ______ ____
ROOT
ATOM      1  C   UNL     1       4.571   4.873  16.619  0.00  0.00    +0.000 C 
ENDROOT
BRANCH   1   2
ATOM      2  N   UNL     1       3.780   4.125  17.561  0.00  0.00    +0.000 N 
ATOM      3  C   UNL     1       3.439   2.805  17.460  0.00  0.00    +0.000 A 
ATOM      4  N   UNL     1       2.581   2.447  18.394  0.00  0.00    +0.000 NA
ATOM      5  C   UNL     1       2.339   3.607  19.096  0.00  0.00    +0.000 A 
ATOM      6  C   UNL     1       1.500   3.917  20.158  0.00  0.00    +0.000 A 
ATOM      7  N   UNL     1       1.444   5.172  20.637  0.00  0.00    +0.000 NA
ATOM      8  C   UNL     1       2.213   6.109  20.059  0.00  0.00    +0.000 A 
ATOM      9  N   UNL     1       2.116   7.388  20.574  0.00  0.00    +0.000 N 
ATOM     10  N   UNL     1       3.082   5.928  19.043  0.00  0.00    +0.000 NA
ATOM     11  C   UNL     1       3.085   4.660  18.606  0.00  0.00    +0.000 A 
ATOM     12  H   UNL     1       1.747   7.337  21.514  0.00  0.00    +0.000 HD
ATOM     13  H   UNL     1       2.976   7.894  20.437  0.00  0.00    +0.000 HD
BRANCH   6  14
ATOM     14  O   UNL     1       0.687   2.977  20.738  0.00  0.00    +0.000 OA
ATOM     15  H   UNL     1       1.285   2.244  20.971  0.00  0.00    +0.000 HD
ENDBRANCH   6  14
ENDBRANCH   1   2
BRANCH   1  16
ATOM     16  C   UNL     1       5.699   4.090  15.932  0.00  0.00    +0.000 C 
BRANCH  16  17
ATOM     17  C   UNL     1       5.997   4.670  14.534  0.00  0.00    +0.000 C 
BRANCH  17  20
ATOM     18  N   UNL     1       7.038   3.369  11.698  0.00  0.00    +0.000 NA
ATOM     19  N   UNL     1       6.307   3.547  12.549  0.00  0.00    +0.000 NA
ATOM     20  N   UNL     1       5.510   3.766  13.481  0.00  0.00    +0.000 NA
ENDBRANCH  17  20
ENDBRANCH  16  17
BRANCH  16  21
ATOM     21  O   UNL     1       6.901   4.200  16.727  0.00  0.00    +0.000 OA
BRANCH  21  22
ATOM     22  C   UNL     1       7.040   5.509  17.308  0.00  0.00    +0.000 C 
BRANCH  22  23
ATOM     23  P   UNL     1       7.670   5.467  19.025  0.00  0.00    +0.000 P 
ATOM     24  O   UNL     1       8.182   6.906  18.925  0.00  0.00    +0.000 OA
BRANCH  23  25
ATOM     25  O   UNL     1       6.154   5.593  19.636  0.00  0.00    +0.000 OA
ATOM     26  H   UNL     1       5.916   6.539  19.713  0.00  0.00    +0.000 HD
ENDBRANCH  23  25
BRANCH  23  27
ATOM     27  O   UNL     1       8.266   5.426  20.649  0.00  0.00    +0.000 OA
ATOM     28  H   UNL     1       7.755   6.125  21.107  0.00  0.00    +0.000 HD
ENDBRANCH  23  27
ENDBRANCH  22  23
ENDBRANCH  21  22
ENDBRANCH  16  21
ENDBRANCH   1  16
TORSDOF 10
ENDMDL
MODEL 5
REMARK VINA RESULT:      -7.2      0.924      1.114
REMARK  Name = 
REMARK  10 active torsions:
REMARK  status: ('A' for Active; 'I' for Inactive)
REMARK    1  A    between atoms: N_3  and  C_4
REMARK    2  A    between atoms: C_4  and  C_5
REMARK    3  A    between atoms: C_5  and  C_6
REMARK    4  A    between atoms: C_5  and  O_18
REMARK    5  A    between atoms: C_6  and  N_7
REMARK    6  A    between atoms: C_11  and  O_12
REMARK    7  A    between atoms: O_18  and  C_19
REMARK    8  A    between atoms: C_19  and  P_20
REMARK    9  A    between atoms: P_20  and  O_22
REMARK   10  A    between atoms: P_20  and  O_23
REMARK                            x       y       z     vdW  Elec       q    Type
REMARK                         _______ _______ _______ _____ _____    ______ ____
ROOT
ATOM      1  C   UNL     1       4.467   4.620  16.392  0.00  0.00    +0.000 C 
ENDROOT
BRANCH   1   2
ATOM      2  N   UNL     1       3.953   3.887  17.519  0.00  0.00    +0.000 N 
ATOM      3  C   UNL     1       3.840   2.528  17.616  0.00  0.00    +0.000 A 
ATOM      4  N   UNL     1       3.191   2.166  18.705  0.00  0.00    +0.000 NA
ATOM      5  C   UNL     1       2.845   3.356  19.305  0.00  0.00    +0.000 A 
ATOM      6  C   UNL     1       2.114   3.666  20.445  0.00  0.00    +0.000 A 
ATOM      7  N   UNL     1       1.901   4.949  20.788  0.00  0.00    +0.000 NA
ATOM      8  C   UNL     1       2.408   5.911  20.000  0.00  0.00    +0.000 A 
ATOM      9  N   UNL     1       2.156   7.215  20.383  0.00  0.00    +0.000 N 
ATOM     10  N   UNL     1       3.152   5.737  18.888  0.00  0.00    +0.000 NA
ATOM     11  C   UNL     1       3.320   4.439  18.595  0.00  0.00    +0.000 A 
ATOM     12  H   UNL     1       1.932   7.231  21.368  0.00  0.00    +0.000 HD
ATOM     13  H   UNL     1       2.888   7.829  20.060  0.00  0.00    +0.000 HD
BRANCH   6  14
ATOM     14  O   UNL     1       1.564   2.694  21.241  0.00  0.00    +0.000 OA
ATOM     15  H   UNL     1       1.252   2.013  20.618  0.00  0.00    +0.000 HD
ENDBRANCH   6  14
ENDBRANCH   1   2
BRANCH   1  16
ATOM     16  C   UNL     1       5.789   4.100  15.811  0.00  0.00    +0.000 C 
BRANCH  16  17
ATOM     17  C   UNL     1       6.158   4.860  14.520  0.00  0.00    +0.000 C 
BRANCH  17  20
ATOM     18  N   UNL     1       8.370   6.118  12.435  0.00  0.00    +0.000 NA
ATOM     19  N   UNL     1       8.018   5.595  13.381  0.00  0.00    +0.000 NA
ATOM     20  N   UNL     1       7.618   5.008  14.404  0.00  0.00    +0.000 NA
ENDBRANCH  17  20
ENDBRANCH  16  17
BRANCH  16  21
ATOM     21  O   UNL     1       6.844   4.318  16.775  0.00  0.00    +0.000 OA
BRANCH  21  22
ATOM     22  C   UNL     1       6.703   5.583  17.445  0.00  0.00    +0.000 C 
BRANCH  22  23
ATOM     23  P   UNL     1       7.400   5.578  19.137  0.00  0.00    +0.000 P 
ATOM     24  O   UNL     1       8.371   4.447  18.788  0.00  0.00    +0.000 OA
BRANCH  23  25
ATOM     25  O   UNL     1       8.232   6.961  18.850  0.00  0.00    +0.000 OA
ATOM     26  H   UNL     1       7.948   7.335  17.992  0.00  0.00    +0.000 HD
ENDBRANCH  23  25
BRANCH  23  27
ATOM     27  O   UNL     1       8.059   5.574  20.737  0.00  0.00    +0.000 OA
ATOM     28  H   UNL     1       8.965   5.929  20.623  0.00  0.00    +0.000 HD
ENDBRANCH  23  27
ENDBRANCH  22  23
ENDBRANCH  21  22
ENDBRANCH  16  21
ENDBRANCH   1  16
TORSDOF 10
ENDMDL
MODEL 6
REMARK VINA RESULT:      -7.1      3.235      6.287
REMARK  Name = 
REMARK  10 active torsions:
REMARK  status: ('A' for Active; 'I' for Inactive)
REMARK    1  A    between atoms: N_3  and  C_4
REMARK    2  A    between atoms: C_4  and  C_5
REMARK    3  A    between atoms: C_5  and  C_6
REMARK    4  A    between atoms: C_5  and  O_18
REMARK    5  A    between atoms: C_6  and  N_7
REMARK    6  A    between atoms: C_11  and  O_12
REMARK    7  A    between atoms: O_18  and  C_19
REMARK    8  A    between atoms: C_19  and  P_20
REMARK    9  A    between atoms: P_20  and  O_22
REMARK   10  A    between atoms: P_20  and  O_23
REMARK                            x       y       z     vdW  Elec       q    Type
REMARK                         _______ _______ _______ _____ _____    ______ ____
ROOT
ATOM      1  C   UNL     1       4.830   3.392  17.111  0.00  0.00    +0.000 C 
ENDROOT
BRANCH   1   2
ATOM      2  N   UNL     1       5.300   4.744  16.960  0.00  0.00    +0.000 N 
ATOM      3  C   UNL     1       5.010   5.589  15.925  0.00  0.00    +0.000 A 
ATOM      4  N   UNL     1       5.712   6.703  15.989  0.00  0.00    +0.000 NA
ATOM      5  C   UNL     1       6.512   6.536  17.098  0.00  0.00    +0.000 A 
ATOM      6  C   UNL     1       7.505   7.316  17.677  0.00  0.00    +0.000 A 
ATOM      7  N   UNL     1       8.159   6.882  18.769  0.00  0.00    +0.000 NA
ATOM      8  C   UNL     1       7.829   5.682  19.274  0.00  0.00    +0.000 A 
ATOM      9  N   UNL     1       8.534   5.270  20.390  0.00  0.00    +0.000 N 
ATOM     10  N   UNL     1       6.871   4.849  18.819  0.00  0.00    +0.000 NA
ATOM     11  C   UNL     1       6.263   5.333  17.726  0.00  0.00    +0.000 A 
ATOM     12  H   UNL     1       8.936   6.079  20.843  0.00  0.00    +0.000 HD
ATOM     13  H   UNL     1       7.977   4.648  20.954  0.00  0.00    +0.000 HD
BRANCH   6  14
ATOM     14  O   UNL     1       7.873   8.528  17.154  0.00  0.00    +0.000 OA
ATOM     15  H   UNL     1       8.707   8.749  17.607  0.00  0.00    +0.000 HD
ENDBRANCH   6  14
ENDBRANCH   1   2
BRANCH   1  16
ATOM     16  C   UNL     1       3.677   3.199  18.107  0.00  0.00    +0.000 C 
BRANCH  16  17
ATOM     17  C   UNL     1       4.217   2.973  19.534  0.00  0.00    +0.000 C 
BRANCH  17  20
ATOM     18  N   UNL     1       5.665   1.084  21.806  0.00  0.00    +0.000 NA
ATOM     19  N   UNL     1       5.312   1.363  20.762  0.00  0.00    +0.000 NA
ATOM     20  N   UNL     1       4.933   1.690  19.622  0.00  0.00    +0.000 NA
ENDBRANCH  17  20
ENDBRANCH  16  17
BRANCH  16  21
ATOM     21  O   UNL     1       2.863   4.394  18.122  0.00  0.00    +0.000 OA
BRANCH  21  22
ATOM     22  C   UNL     1       1.479   4.094  18.374  0.00  0.00    +0.000 C 
BRANCH  22  23
ATOM     23  P   UNL     1       1.189   3.413  20.048  0.00  0.00    +0.000 P 
ATOM     24  O   UNL     1       0.656   4.755  20.556  0.00  0.00    +0.000 OA
BRANCH  23  25
ATOM     25  O   UNL     1      -0.135   2.592  19.537  0.00  0.00    +0.000 OA
ATOM     26  H   UNL     1      -0.716   3.199  19.036  0.00  0.00    +0.000 HD
ENDBRANCH  23  25
BRANCH  23  27
ATOM     27  O   UNL     1       0.915   2.769  21.630  0.00  0.00    +0.000 OA
ATOM     28  H   UNL     1       1.539   3.263  22.201  0.00  0.00    +0.000 HD
ENDBRANCH  23  27
ENDBRANCH  22  23
ENDBRANCH  21  22
ENDBRANCH  16  21
ENDBRANCH   1  16
TORSDOF 10
ENDMDL
MODEL 7
REMARK VINA RESULT:      -7.0      2.838      7.089
REMARK  Name = 
REMARK  10 active torsions:
REMARK  status: ('A' for Active; 'I' for Inactive)
REMARK    1  A    between atoms: N_3  and  C_4
REMARK    2  A    between atoms: C_4  and  C_5
REMARK    3  A    between atoms: C_5  and  C_6
REMARK    4  A    between atoms: C_5  and  O_18
REMARK    5  A    between atoms: C_6  and  N_7
REMARK    6  A    between atoms: C_11  and  O_12
REMARK    7  A    between atoms: O_18  and  C_19
REMARK    8  A    between atoms: C_19  and  P_20
REMARK    9  A    between atoms: P_20  and  O_22
REMARK   10  A    between atoms: P_20  and  O_23
REMARK                            x       y       z     vdW  Elec       q    Type
REMARK                         _______ _______ _______ _____ _____    ______ ____
ROOT
ATOM      1  C   UNL     1       4.878   4.121  17.164  0.00  0.00    +0.000 C 
ENDROOT
BRANCH   1   2
ATOM      2  N   UNL     1       5.983   4.666  16.418  0.00  0.00    +0.000 N 
ATOM      3  C   UNL     1       6.808   5.679  16.820  0.00  0.00    +0.000 A 
ATOM      4  N   UNL     1       7.625   6.058  15.858  0.00  0.00    +0.000 NA
ATOM      5  C   UNL     1       7.273   5.270  14.784  0.00  0.00    +0.000 A 
ATOM      6  C   UNL     1       7.711   5.209  13.468  0.00  0.00    +0.000 A 
ATOM      7  N   UNL     1       7.156   4.339  12.605  0.00  0.00    +0.000 NA
ATOM      8  C   UNL     1       6.171   3.542  13.052  0.00  0.00    +0.000 A 
ATOM      9  N   UNL     1       5.620   2.671  12.130  0.00  0.00    +0.000 N 
ATOM     10  N   UNL     1       5.677   3.491  14.306  0.00  0.00    +0.000 NA
ATOM     11  C   UNL     1       6.265   4.386  15.113  0.00  0.00    +0.000 A 
ATOM     12  H   UNL     1       6.276   2.534  11.373  0.00  0.00    +0.000 HD
ATOM     13  H   UNL     1       5.257   1.850  12.588  0.00  0.00    +0.000 HD
BRANCH   6  14
ATOM     14  O   UNL     1       8.695   6.037  12.992  0.00  0.00    +0.000 OA
ATOM     15  H   UNL     1       8.513   6.111  12.037  0.00  0.00    +0.000 HD
ENDBRANCH   6  14
ENDBRANCH   1   2
BRANCH   1  16
ATOM     16  C   UNL     1       5.149   3.860  18.653  0.00  0.00    +0.000 C 
BRANCH  16  17
ATOM     17  C   UNL     1       4.854   5.120  19.494  0.00  0.00    +0.000 C 
BRANCH  17  20
ATOM     18  N   UNL     1       1.837   6.000  20.467  0.00  0.00    +0.000 NA
ATOM     19  N   UNL     1       2.716   5.931  19.748  0.00  0.00    +0.000 NA
ATOM     20  N   UNL     1       3.680   5.833  18.967  0.00  0.00    +0.000 NA
ENDBRANCH  17  20
ENDBRANCH  16  17
BRANCH  16  21
ATOM     21  O   UNL     1       4.276   2.803  19.111  0.00  0.00    +0.000 OA
BRANCH  21  22
ATOM     22  C   UNL     1       3.339   2.405  18.095  0.00  0.00    +0.000 C 
BRANCH  22  23
ATOM     23  P   UNL     1       1.603   2.428  18.674  0.00  0.00    +0.000 P 
ATOM     24  O   UNL     1       2.040   2.526  20.137  0.00  0.00    +0.000 OA
BRANCH  23  25
ATOM     25  O   UNL     1       1.409   3.980  18.180  0.00  0.00    +0.000 OA
ATOM     26  H   UNL     1       2.117   4.532  18.569  0.00  0.00    +0.000 HD
ENDBRANCH  23  25
BRANCH  23  27
ATOM     27  O   UNL     1      -0.038   2.450  19.220  0.00  0.00    +0.000 OA
ATOM     28  H   UNL     1       0.035   2.405  20.196  0.00  0.00    +0.000 HD
ENDBRANCH  23  27
ENDBRANCH  22  23
ENDBRANCH  21  22
ENDBRANCH  16  21
ENDBRANCH   1  16
TORSDOF 10
ENDMDL
MODEL 8
REMARK VINA RESULT:      -7.0      3.016      6.003
REMARK  Name = 
REMARK  10 active torsions:
REMARK  status: ('A' for Active; 'I' for Inactive)
REMARK    1  A    between atoms: N_3  and  C_4
REMARK    2  A    between atoms: C_4  and  C_5
REMARK    3  A    between atoms: C_5  and  C_6
REMARK    4  A    between atoms: C_5  and  O_18
REMARK    5  A    between atoms: C_6  and  N_7
REMARK    6  A    between atoms: C_11  and  O_12
REMARK    7  A    between atoms: O_18  and  C_19
REMARK    8  A    between atoms: C_19  and  P_20
REMARK    9  A    between atoms: P_20  and  O_22
REMARK   10  A    between atoms: P_20  and  O_23
REMARK                            x       y       z     vdW  Elec       q    Type
REMARK                         _______ _______ _______ _____ _____    ______ ____
ROOT
ATOM      1  C   UNL     1       4.688   3.522  17.163  0.00  0.00    +0.000 C 
ENDROOT
BRANCH   1   2
ATOM      2  N   UNL     1       5.259   4.831  16.985  0.00  0.00    +0.000 N 
ATOM      3  C   UNL     1       5.069   5.656  15.911  0.00  0.00    +0.000 A 
ATOM      4  N   UNL     1       5.846   6.719  15.966  0.00  0.00    +0.000 NA
ATOM      5  C   UNL     1       6.590   6.538  17.111  0.00  0.00    +0.000 A 
ATOM      6  C   UNL     1       7.614   7.266  17.703  0.00  0.00    +0.000 A 
ATOM      7  N   UNL     1       8.194   6.828  18.834  0.00  0.00    +0.000 NA
ATOM      8  C   UNL     1       7.760   5.674  19.366  0.00  0.00    +0.000 A 
ATOM      9  N   UNL     1       8.391   5.254  20.522  0.00  0.00    +0.000 N 
ATOM     10  N   UNL     1       6.763   4.893  18.901  0.00  0.00    +0.000 NA
ATOM     11  C   UNL     1       6.232   5.378  17.769  0.00  0.00    +0.000 A 
ATOM     12  H   UNL     1       8.832   6.049  20.963  0.00  0.00    +0.000 HD
ATOM     13  H   UNL     1       7.771   4.693  21.084  0.00  0.00    +0.000 HD
BRANCH   6  14
ATOM     14  O   UNL     1       8.087   8.430  17.154  0.00  0.00    +0.000 OA
ATOM     15  H   UNL     1       7.513   9.127  17.522  0.00  0.00    +0.000 HD
ENDBRANCH   6  14
ENDBRANCH   1   2
BRANCH   1  16
ATOM     16  C   UNL     1       3.420   3.464  18.026  0.00  0.00    +0.000 C 
BRANCH  16  17
ATOM     17  C   UNL     1       2.196   3.975  17.238  0.00  0.00    +0.000 C 
BRANCH  17  20
ATOM     18  N   UNL     1       3.030   6.149  19.562  0.00  0.00    +0.000 NA
ATOM     19  N   UNL     1       2.391   5.721  18.724  0.00  0.00    +0.000 NA
ATOM     20  N   UNL     1       1.693   5.231  17.816  0.00  0.00    +0.000 NA
ENDBRANCH  17  20
ENDBRANCH  16  17
BRANCH  16  21
ATOM     21  O   UNL     1       3.168   2.091  18.402  0.00  0.00    +0.000 OA
BRANCH  21  22
ATOM     22  C   UNL     1       1.869   1.930  18.999  0.00  0.00    +0.000 C 
BRANCH  22  23
ATOM     23  P   UNL     1       1.824   2.427  20.759  0.00  0.00    +0.000 P 
ATOM     24  O   UNL     1       3.304   2.820  20.738  0.00  0.00    +0.000 OA
BRANCH  23  25
ATOM     25  O   UNL     1       1.011   3.805  20.399  0.00  0.00    +0.000 OA
ATOM     26  H   UNL     1       0.715   4.230  21.229  0.00  0.00    +0.000 HD
ENDBRANCH  23  25
BRANCH  23  27
ATOM     27  O   UNL     1       1.781   2.897  22.424  0.00  0.00    +0.000 OA
ATOM     28  H   UNL     1       2.672   3.269  22.590  0.00  0.00    +0.000 HD
ENDBRANCH  23  27
ENDBRANCH  22  23
ENDBRANCH  21  22
ENDBRANCH  16  21
ENDBRANCH   1  16
TORSDOF 10
ENDMDL
MODEL 9
REMARK VINA RESULT:      -6.9      3.291      3.922
REMARK  Name = 
REMARK  10 active torsions:
REMARK  status: ('A' for Active; 'I' for Inactive)
REMARK    1  A    between atoms: N_3  and  C_4
REMARK    2  A    between atoms: C_4  and  C_5
REMARK    3  A    between atoms: C_5  and  C_6
REMARK    4  A    between atoms: C_5  and  O_18
REMARK    5  A    between atoms: C_6  and  N_7
REMARK    6  A    between atoms: C_11  and  O_12
REMARK    7  A    between atoms: O_18  and  C_19
REMARK    8  A    between atoms: C_19  and  P_20
REMARK    9  A    between atoms: P_20  and  O_22
REMARK   10  A    between atoms: P_20  and  O_23
REMARK                            x       y       z     vdW  Elec       q    Type
REMARK                         _______ _______ _______ _____ _____    ______ ____
ROOT
ATOM      1  C   UNL     1       5.433   4.053  17.524  0.00  0.00    +0.000 C 
ENDROOT
BRANCH   1   2
ATOM      2  N   UNL     1       4.278   3.481  18.166  0.00  0.00    +0.000 N 
ATOM      3  C   UNL     1       3.770   2.230  17.950  0.00  0.00    +0.000 A 
ATOM      4  N   UNL     1       2.620   2.053  18.570  0.00  0.00    +0.000 NA
ATOM      5  C   UNL     1       2.372   3.265  19.176  0.00  0.00    +0.000 A 
ATOM      6  C   UNL     1       1.311   3.749  19.931  0.00  0.00    +0.000 A 
ATOM      7  N   UNL     1       1.320   5.015  20.383  0.00  0.00    +0.000 NA
ATOM      8  C   UNL     1       2.373   5.791  20.082  0.00  0.00    +0.000 A 
ATOM      9  N   UNL     1       2.337   7.089  20.557  0.00  0.00    +0.000 N 
ATOM     10  N   UNL     1       3.469   5.432  19.382  0.00  0.00    +0.000 NA
ATOM     11  C   UNL     1       3.396   4.163  18.952  0.00  0.00    +0.000 A 
ATOM     12  H   UNL     1       1.695   7.136  21.336  0.00  0.00    +0.000 HD
ATOM     13  H   UNL     1       3.269   7.444  20.698  0.00  0.00    +0.000 HD
BRANCH   6  14
ATOM     14  O   UNL     1       0.215   2.976  20.220  0.00  0.00    +0.000 OA
ATOM     15  H   UNL     1      -0.224   3.439  20.956  0.00  0.00    +0.000 HD
ENDBRANCH   6  14
ENDBRANCH   1   2
BRANCH   1  16
ATOM     16  C   UNL     1       5.181   4.680  16.146  0.00  0.00    +0.000 C 
BRANCH  16  17
ATOM     17  C   UNL     1       5.609   6.162  16.130  0.00  0.00    +0.000 C 
BRANCH  17  20
ATOM     18  N   UNL     1       7.799   8.255  17.412  0.00  0.00    +0.000 NA
ATOM     19  N   UNL     1       7.457   7.308  16.884  0.00  0.00    +0.000 NA
ATOM     20  N   UNL     1       7.066   6.284  16.293  0.00  0.00    +0.000 NA
ENDBRANCH  17  20
ENDBRANCH  16  17
BRANCH  16  21
ATOM     21  O   UNL     1       5.969   3.977  15.158  0.00  0.00    +0.000 OA
BRANCH  21  22
ATOM     22  C   UNL     1       5.611   4.360  13.818  0.00  0.00    +0.000 C 
BRANCH  22  23
ATOM     23  P   UNL     1       6.036   3.088  12.573  0.00  0.00    +0.000 P 
ATOM     24  O   UNL     1       4.738   3.338  11.802  0.00  0.00    +0.000 OA
BRANCH  23  25
ATOM     25  O   UNL     1       7.146   4.074  11.876  0.00  0.00    +0.000 OA
ATOM     26  H   UNL     1       7.964   3.566  11.705  0.00  0.00    +0.000 HD
ENDBRANCH  23  25
BRANCH  23  27
ATOM     27  O   UNL     1       6.439   1.886  11.396  0.00  0.00    +0.000 OA
ATOM     28  H   UNL     1       5.905   1.108  11.657  0.00  0.00    +0.000 HD
ENDBRANCH  23  27
ENDBRANCH  22  23
ENDBRANCH  21  22
ENDBRANCH  16  21
ENDBRANCH   1  16
TORSDOF 10
ENDMDL
