MODEL 1
REMARK VINA RESULT:      -7.0      0.000      0.000
REMARK  Name = 
REMARK  5 active torsions:
REMARK  status: ('A' for Active; 'I' for Inactive)
REMARK    1  A    between atoms: C_1  and  O_2
REMARK    2  A    between atoms: O_2  and  C_3
REMARK    3  A    between atoms: C_5  and  S_6
REMARK    4  A    between atoms: S_6  and  C_7
REMARK    5  A    between atoms: C_10  and  C_11
REMARK                            x       y       z     vdW  Elec       q    Type
REMARK                         _______ _______ _______ _____ _____    ______ ____
ROOT
ATOM      1  C   UNL     1       6.692   4.648  17.462  0.00  0.00    +0.000 A 
ATOM      2  C   UNL     1       7.286   4.611  16.185  0.00  0.00    +0.000 A 
ATOM      3  C   UNL     1       6.581   4.950  15.028  0.00  0.00    +0.000 A 
ATOM      4  C   UNL     1       5.259   5.354  15.154  0.00  0.00    +0.000 A 
ATOM      5  C   UNL     1       4.654   5.391  16.422  0.00  0.00    +0.000 A 
ATOM      6  C   UNL     1       5.341   5.025  17.604  0.00  0.00    +0.000 A 
ENDROOT
BRANCH   6   7
ATOM      7  C   UNL     1       4.497   5.143  18.856  0.00  0.00    +0.000 C 
ATOM      8  O   UNL     1       4.937   5.900  19.728  0.00  0.00    +0.000 OA
ATOM      9  N   UNL     1       3.210   4.571  18.988  0.00  0.00    +0.000 N 
ATOM     10  C   UNL     1       2.336   5.047  20.069  0.00  0.00    +0.000 C 
ATOM     11  C   UNL     1       2.155   4.048  21.214  0.00  0.00    +0.000 C 
ATOM     12  C   UNL     1       1.103   2.974  20.950  0.00  0.00    +0.000 C 
ATOM     13  C   UNL     1       1.414   2.060  19.774  0.00  0.00    +0.000 C 
ATOM     14  C   UNL     1       1.420   2.808  18.444  0.00  0.00    +0.000 C 
ATOM     15  C   UNL     1       2.765   3.462  18.170  0.00  0.00    +0.000 C 
ENDBRANCH   6   7
BRANCH   1  17
ATOM     16  C   UNL     1       8.113   5.606  19.092  0.00  0.00    +0.000 C 
ATOM     17  O   UNL     1       7.499   4.430  18.547  0.00  0.00    +0.000 OA
ENDBRANCH   1  17
BRANCH   3  18
ATOM     18  S   UNL     1       7.454   4.802  13.480  0.00  0.00    +0.000 S 
ATOM     19  C   UNL     1       6.402   3.645  12.573  0.00  0.00    +0.000 C 
ENDBRANCH   3  18
TORSDOF 3
ENDMDL
MODEL 2
REMARK VINA RESULT:      -7.0      1.303      1.386
REMARK  Name = 
REMARK  5 active torsions:
REMARK  status: ('A' for Active; 'I' for Inactive)
REMARK    1  A    between atoms: C_1  and  O_2
REMARK    2  A    between atoms: O_2  and  C_3
REMARK    3  A    between atoms: C_5  and  S_6
REMARK    4  A    between atoms: S_6  and  C_7
REMARK    5  A    between atoms: C_10  and  C_11
REMARK                            x       y       z     vdW  Elec       q    Type
REMARK                         _______ _______ _______ _____ _____    ______ ____
ROOT
ATOM      1  C   UNL     1       6.375   5.819  16.713  0.00  0.00    +0.000 A 
ATOM      2  C   UNL     1       6.883   5.826  15.399  0.00  0.00    +0.000 A 
ATOM      3  C   UNL     1       6.726   4.740  14.535  0.00  0.00    +0.000 A 
ATOM      4  C   UNL     1       6.027   3.630  14.990  0.00  0.00    +0.000 A 
ATOM      5  C   UNL     1       5.520   3.609  16.300  0.00  0.00    +0.000 A 
ATOM      6  C   UNL     1       5.692   4.686  17.201  0.00  0.00    +0.000 A 
ENDROOT
BRANCH   6   7
ATOM      7  C   UNL     1       5.060   4.449  18.557  0.00  0.00    +0.000 C 
ATOM      8  O   UNL     1       5.840   4.431  19.515  0.00  0.00    +0.000 OA
ATOM      9  N   UNL     1       3.662   4.408  18.771  0.00  0.00    +0.000 N 
ATOM     10  C   UNL     1       3.157   4.547  20.144  0.00  0.00    +0.000 C 
ATOM     11  C   UNL     1       2.602   3.253  20.741  0.00  0.00    +0.000 C 
ATOM     12  C   UNL     1       1.165   2.938  20.334  0.00  0.00    +0.000 C 
ATOM     13  C   UNL     1       0.966   2.713  18.842  0.00  0.00    +0.000 C 
ATOM     14  C   UNL     1       1.241   3.973  18.024  0.00  0.00    +0.000 C 
ATOM     15  C   UNL     1       2.721   4.127  17.707  0.00  0.00    +0.000 C 
ENDBRANCH   6   7
BRANCH   1  17
ATOM     16  C   UNL     1       7.760   7.271  17.964  0.00  0.00    +0.000 C 
ATOM     17  O   UNL     1       6.460   6.979  17.436  0.00  0.00    +0.000 OA
ENDBRANCH   1  17
BRANCH   3  18
ATOM     18  S   UNL     1       7.472   4.879  12.921  0.00  0.00    +0.000 S 
ATOM     19  C   UNL     1       6.669   3.529  12.027  0.00  0.00    +0.000 C 
ENDBRANCH   3  18
TORSDOF 3
ENDMDL
MODEL 3
REMARK VINA RESULT:      -6.7      3.265      4.791
REMARK  Name = 
REMARK  5 active torsions:
REMARK  status: ('A' for Active; 'I' for Inactive)
REMARK    1  A    between atoms: C_1  and  O_2
REMARK    2  A    between atoms: O_2  and  C_3
REMARK    3  A    between atoms: C_5  and  S_6
REMARK    4  A    between atoms: S_6  and  C_7
REMARK    5  A    between atoms: C_10  and  C_11
REMARK                            x       y       z     vdW  Elec       q    Type
REMARK                         _______ _______ _______ _____ _____    ______ ____
ROOT
ATOM      1  C   UNL     1       2.580   4.496  17.903  0.00  0.00    +0.000 A 
ATOM      2  C   UNL     1       3.475   3.938  16.970  0.00  0.00    +0.000 A 
ATOM      3  C   UNL     1       4.764   4.443  16.783  0.00  0.00    +0.000 A 
ATOM      4  C   UNL     1       5.172   5.518  17.561  0.00  0.00    +0.000 A 
ATOM      5  C   UNL     1       4.286   6.087  18.492  0.00  0.00    +0.000 A 
ATOM      6  C   UNL     1       2.967   5.609  18.678  0.00  0.00    +0.000 A 
ENDROOT
BRANCH   6   7
ATOM      7  C   UNL     1       2.192   6.368  19.735  0.00  0.00    +0.000 C 
ATOM      8  O   UNL     1       1.913   5.729  20.756  0.00  0.00    +0.000 OA
ATOM      9  N   UNL     1       1.928   7.755  19.665  0.00  0.00    +0.000 N 
ATOM     10  C   UNL     1       1.509   8.454  20.888  0.00  0.00    +0.000 C 
ATOM     11  C   UNL     1       0.035   8.864  20.902  0.00  0.00    +0.000 C 
ATOM     12  C   UNL     1      -0.263  10.163  20.158  0.00  0.00    +0.000 C 
ATOM     13  C   UNL     1       0.044  10.122  18.667  0.00  0.00    +0.000 C 
ATOM     14  C   UNL     1       1.535   9.951  18.388  0.00  0.00    +0.000 C 
ATOM     15  C   UNL     1       1.950   8.488  18.417  0.00  0.00    +0.000 C 
ENDBRANCH   6   7
BRANCH   1  17
ATOM     16  C   UNL     1       1.506   2.529  18.658  0.00  0.00    +0.000 C 
ATOM     17  O   UNL     1       1.390   3.850  18.112  0.00  0.00    +0.000 OA
ENDBRANCH   1  17
BRANCH   3  18
ATOM     18  S   UNL     1       5.760   3.664  15.526  0.00  0.00    +0.000 S 
ATOM     19  C   UNL     1       7.057   4.896  15.268  0.00  0.00    +0.000 C 
ENDBRANCH   3  18
TORSDOF 3
ENDMDL
MODEL 4
REMARK VINA RESULT:      -6.6      3.784      6.832
REMARK  Name = 
REMARK  5 active torsions:
REMARK  status: ('A' for Active; 'I' for Inactive)
REMARK    1  A    between atoms: C_1  and  O_2
REMARK    2  A    between atoms: O_2  and  C_3
REMARK    3  A    between atoms: C_5  and  S_6
REMARK    4  A    between atoms: S_6  and  C_7
REMARK    5  A    between atoms: C_10  and  C_11
REMARK                            x       y       z     vdW  Elec       q    Type
REMARK                         _______ _______ _______ _____ _____    ______ ____
ROOT
ATOM      1  C   UNL     1       2.131   6.638  20.093  0.00  0.00    +0.000 A 
ATOM      2  C   UNL     1       1.511   7.719  20.751  0.00  0.00    +0.000 A 
ATOM      3  C   UNL     1       1.223   8.919  20.099  0.00  0.00    +0.000 A 
ATOM      4  C   UNL     1       1.544   9.034  18.752  0.00  0.00    +0.000 A 
ATOM      5  C   UNL     1       2.167   7.965  18.087  0.00  0.00    +0.000 A 
ATOM      6  C   UNL     1       2.493   6.750  18.735  0.00  0.00    +0.000 A 
ENDROOT
BRANCH   6   7
ATOM      7  C   UNL     1       3.155   5.737  17.824  0.00  0.00    +0.000 C 
ATOM      8  O   UNL     1       2.435   4.807  17.445  0.00  0.00    +0.000 OA
ATOM      9  N   UNL     1       4.456   5.897  17.293  0.00  0.00    +0.000 N 
ATOM     10  C   UNL     1       4.855   5.066  16.148  0.00  0.00    +0.000 C 
ATOM     11  C   UNL     1       5.865   3.969  16.491  0.00  0.00    +0.000 C 
ATOM     12  C   UNL     1       7.315   4.444  16.544  0.00  0.00    +0.000 C 
ATOM     13  C   UNL     1       7.599   5.487  17.616  0.00  0.00    +0.000 C 
ATOM     14  C   UNL     1       6.863   6.799  17.357  0.00  0.00    +0.000 C 
ATOM     15  C   UNL     1       5.442   6.765  17.900  0.00  0.00    +0.000 C 
ENDBRANCH   6   7
BRANCH   1  17
ATOM     16  C   UNL     1       1.164   4.539  20.592  0.00  0.00    +0.000 C 
ATOM     17  O   UNL     1       2.249   5.457  20.777  0.00  0.00    +0.000 OA
ENDBRANCH   1  17
BRANCH   3  18
ATOM     18  S   UNL     1       0.486  10.213  21.080  0.00  0.00    +0.000 S 
ATOM     19  C   UNL     1       0.304   9.401  22.684  0.00  0.00    +0.000 C 
ENDBRANCH   3  18
TORSDOF 3
ENDMDL
MODEL 5
REMARK VINA RESULT:      -6.1      1.328      1.373
REMARK  Name = 
REMARK  5 active torsions:
REMARK  status: ('A' for Active; 'I' for Inactive)
REMARK    1  A    between atoms: C_1  and  O_2
REMARK    2  A    between atoms: O_2  and  C_3
REMARK    3  A    between atoms: C_5  and  S_6
REMARK    4  A    between atoms: S_6  and  C_7
REMARK    5  A    between atoms: C_10  and  C_11
REMARK                            x       y       z     vdW  Elec       q    Type
REMARK                         _______ _______ _______ _____ _____    ______ ____
ROOT
ATOM      1  C   UNL     1       6.311   5.811  17.007  0.00  0.00    +0.000 A 
ATOM      2  C   UNL     1       7.090   5.539  15.866  0.00  0.00    +0.000 A 
ATOM      3  C   UNL     1       6.557   4.924  14.731  0.00  0.00    +0.000 A 
ATOM      4  C   UNL     1       5.208   4.593  14.731  0.00  0.00    +0.000 A 
ATOM      5  C   UNL     1       4.422   4.855  15.866  0.00  0.00    +0.000 A 
ATOM      6  C   UNL     1       4.948   5.451  17.036  0.00  0.00    +0.000 A 
ENDROOT
BRANCH   6   7
ATOM      7  C   UNL     1       3.920   5.643  18.132  0.00  0.00    +0.000 C 
ATOM      8  O   UNL     1       3.594   6.813  18.361  0.00  0.00    +0.000 OA
ATOM      9  N   UNL     1       3.240   4.574  18.760  0.00  0.00    +0.000 N 
ATOM     10  C   UNL     1       2.020   4.870  19.525  0.00  0.00    +0.000 C 
ATOM     11  C   UNL     1       2.188   4.760  21.041  0.00  0.00    +0.000 C 
ATOM     12  C   UNL     1       2.081   3.337  21.584  0.00  0.00    +0.000 C 
ATOM     13  C   UNL     1       3.153   2.384  21.072  0.00  0.00    +0.000 C 
ATOM     14  C   UNL     1       3.043   2.142  19.569  0.00  0.00    +0.000 C 
ATOM     15  C   UNL     1       3.756   3.222  18.770  0.00  0.00    +0.000 C 
ENDBRANCH   6   7
BRANCH   1  17
ATOM     16  C   UNL     1       7.603   7.704  17.590  0.00  0.00    +0.000 C 
ATOM     17  O   UNL     1       6.888   6.537  18.016  0.00  0.00    +0.000 OA
ENDBRANCH   1  17
BRANCH   3  18
ATOM     18  S   UNL     1       7.682   4.598  13.387  0.00  0.00    +0.000 S 
ATOM     19  C   UNL     1       6.645   3.631  12.265  0.00  0.00    +0.000 C 
ENDBRANCH   3  18
TORSDOF 3
ENDMDL
MODEL 6
REMARK VINA RESULT:      -6.0      5.418      7.892
REMARK  Name = 
REMARK  5 active torsions:
REMARK  status: ('A' for Active; 'I' for Inactive)
REMARK    1  A    between atoms: C_1  and  O_2
REMARK    2  A    between atoms: O_2  and  C_3
REMARK    3  A    between atoms: C_5  and  S_6
REMARK    4  A    between atoms: S_6  and  C_7
REMARK    5  A    between atoms: C_10  and  C_11
REMARK                            x       y       z     vdW  Elec       q    Type
REMARK                         _______ _______ _______ _____ _____    ______ ____
ROOT
ATOM      1  C   UNL     1       0.306   9.620  19.643  0.00  0.00    +0.000 A 
ATOM      2  C   UNL     1      -0.409  10.419  20.557  0.00  0.00    +0.000 A 
ATOM      3  C   UNL     1      -0.243  10.298  21.938  0.00  0.00    +0.000 A 
ATOM      4  C   UNL     1       0.675   9.371  22.415  0.00  0.00    +0.000 A 
ATOM      5  C   UNL     1       1.390   8.566  21.513  0.00  0.00    +0.000 A 
ATOM      6  C   UNL     1       1.217   8.652  20.112  0.00  0.00    +0.000 A 
ENDROOT
BRANCH   6   7
ATOM      7  C   UNL     1       2.094   7.693  19.333  0.00  0.00    +0.000 C 
ATOM      8  O   UNL     1       2.753   8.195  18.417  0.00  0.00    +0.000 OA
ATOM      9  N   UNL     1       2.293   6.342  19.702  0.00  0.00    +0.000 N 
ATOM     10  C   UNL     1       3.428   5.614  19.117  0.00  0.00    +0.000 C 
ATOM     11  C   UNL     1       3.031   4.564  18.078  0.00  0.00    +0.000 C 
ATOM     12  C   UNL     1       2.589   3.229  18.671  0.00  0.00    +0.000 C 
ATOM     13  C   UNL     1       1.342   3.306  19.542  0.00  0.00    +0.000 C 
ATOM     14  C   UNL     1       1.566   4.136  20.803  0.00  0.00    +0.000 C 
ATOM     15  C   UNL     1       1.363   5.621  20.545  0.00  0.00    +0.000 C 
ENDBRANCH   6   7
BRANCH   1  17
ATOM     16  C   UNL     1      -1.161  10.189  17.877  0.00  0.00    +0.000 C 
ATOM     17  O   UNL     1       0.176   9.905  18.309  0.00  0.00    +0.000 OA
ENDBRANCH   1  17
BRANCH   3  18
ATOM     18  S   UNL     1      -1.259  11.342  22.967  0.00  0.00    +0.000 S 
ATOM     19  C   UNL     1      -1.343  12.857  21.985  0.00  0.00    +0.000 C 
ENDBRANCH   3  18
TORSDOF 3
ENDMDL
MODEL 7
REMARK VINA RESULT:      -6.0      6.160      7.547
REMARK  Name = 
REMARK  5 active torsions:
REMARK  status: ('A' for Active; 'I' for Inactive)
REMARK    1  A    between atoms: C_1  and  O_2
REMARK    2  A    between atoms: O_2  and  C_3
REMARK    3  A    between atoms: C_5  and  S_6
REMARK    4  A    between atoms: S_6  and  C_7
REMARK    5  A    between atoms: C_10  and  C_11
REMARK                            x       y       z     vdW  Elec       q    Type
REMARK                         _______ _______ _______ _____ _____    ______ ____
ROOT
ATOM      1  C   UNL     1       1.330   8.292  19.996  0.00  0.00    +0.000 A 
ATOM      2  C   UNL     1       2.251   7.277  19.669  0.00  0.00    +0.000 A 
ATOM      3  C   UNL     1       2.972   7.285  18.473  0.00  0.00    +0.000 A 
ATOM      4  C   UNL     1       2.781   8.342  17.593  0.00  0.00    +0.000 A 
ATOM      5  C   UNL     1       1.861   9.358  17.906  0.00  0.00    +0.000 A 
ATOM      6  C   UNL     1       1.100   9.355  19.099  0.00  0.00    +0.000 A 
ENDROOT
BRANCH   6   7
ATOM      7  C   UNL     1       0.176  10.548  19.230  0.00  0.00    +0.000 C 
ATOM      8  O   UNL     1       0.528  11.412  20.040  0.00  0.00    +0.000 OA
ATOM      9  N   UNL     1      -0.937  10.770  18.386  0.00  0.00    +0.000 N 
ATOM     10  C   UNL     1      -1.534  12.113  18.349  0.00  0.00    +0.000 C 
ATOM     11  C   UNL     1      -2.896  12.212  19.038  0.00  0.00    +0.000 C 
ATOM     12  C   UNL     1      -4.071  11.757  18.176  0.00  0.00    +0.000 C 
ATOM     13  C   UNL     1      -4.025  10.292  17.767  0.00  0.00    +0.000 C 
ATOM     14  C   UNL     1      -2.843   9.983  16.852  0.00  0.00    +0.000 C 
ATOM     15  C   UNL     1      -1.574   9.704  17.643  0.00  0.00    +0.000 C 
ENDBRANCH   6   7
BRANCH   1  17
ATOM     16  C   UNL     1       1.481   9.027  22.239  0.00  0.00    +0.000 C 
ATOM     17  O   UNL     1       0.774   8.270  21.248  0.00  0.00    +0.000 OA
ENDBRANCH   1  17
BRANCH   3  18
ATOM     18  S   UNL     1       4.060   5.903  18.178  0.00  0.00    +0.000 S 
ATOM     19  C   UNL     1       2.893   4.526  18.099  0.00  0.00    +0.000 C 
ENDBRANCH   3  18
TORSDOF 3
ENDMDL
MODEL 8
REMARK VINA RESULT:      -6.0      1.474      2.087
REMARK  Name = 
REMARK  5 active torsions:
REMARK  status: ('A' for Active; 'I' for Inactive)
REMARK    1  A    between atoms: C_1  and  O_2
REMARK    2  A    between atoms: O_2  and  C_3
REMARK    3  A    between atoms: C_5  and  S_6
REMARK    4  A    between atoms: S_6  and  C_7
REMARK    5  A    between atoms: C_10  and  C_11
REMARK                            x       y       z     vdW  Elec       q    Type
REMARK                         _______ _______ _______ _____ _____    ______ ____
ROOT
ATOM      1  C   UNL     1       6.652   4.301  16.961  0.00  0.00    +0.000 A 
ATOM      2  C   UNL     1       7.374   4.773  15.847  0.00  0.00    +0.000 A 
ATOM      3  C   UNL     1       6.824   4.807  14.564  0.00  0.00    +0.000 A 
ATOM      4  C   UNL     1       5.514   4.378  14.395  0.00  0.00    +0.000 A 
ATOM      5  C   UNL     1       4.785   3.900  15.497  0.00  0.00    +0.000 A 
ATOM      6  C   UNL     1       5.332   3.831  16.800  0.00  0.00    +0.000 A 
ENDROOT
BRANCH   6   7
ATOM      7  C   UNL     1       4.367   3.288  17.834  0.00  0.00    +0.000 C 
ATOM      8  O   UNL     1       4.161   2.071  17.787  0.00  0.00    +0.000 OA
ATOM      9  N   UNL     1       3.845   4.062  18.897  0.00  0.00    +0.000 N 
ATOM     10  C   UNL     1       3.232   3.366  20.037  0.00  0.00    +0.000 C 
ATOM     11  C   UNL     1       1.708   3.488  20.099  0.00  0.00    +0.000 C 
ATOM     12  C   UNL     1       1.207   4.786  20.729  0.00  0.00    +0.000 C 
ATOM     13  C   UNL     1       1.599   6.047  19.973  0.00  0.00    +0.000 C 
ATOM     14  C   UNL     1       3.108   6.277  19.972  0.00  0.00    +0.000 C 
ATOM     15  C   UNL     1       3.795   5.508  18.854  0.00  0.00    +0.000 C 
ENDBRANCH   6   7
BRANCH   1  17
ATOM     16  C   UNL     1       7.480   5.783  18.607  0.00  0.00    +0.000 C 
ATOM     17  O   UNL     1       7.226   4.433  18.197  0.00  0.00    +0.000 OA
ENDBRANCH   1  17
BRANCH   3  18
ATOM     18  S   UNL     1       7.882   5.381  13.248  0.00  0.00    +0.000 S 
ATOM     19  C   UNL     1       7.317   4.374  11.857  0.00  0.00    +0.000 C 
ENDBRANCH   3  18
TORSDOF 3
ENDMDL
MODEL 9
REMARK VINA RESULT:      -6.0      2.593      3.835
REMARK  Name = 
REMARK  5 active torsions:
REMARK  status: ('A' for Active; 'I' for Inactive)
REMARK    1  A    between atoms: C_1  and  O_2
REMARK    2  A    between atoms: O_2  and  C_3
REMARK    3  A    between atoms: C_5  and  S_6
REMARK    4  A    between atoms: S_6  and  C_7
REMARK    5  A    between atoms: C_10  and  C_11
REMARK                            x       y       z     vdW  Elec       q    Type
REMARK                         _______ _______ _______ _____ _____    ______ ____
ROOT
ATOM      1  C   UNL     1       5.357   6.604  17.434  0.00  0.00    +0.000 A 
ATOM      2  C   UNL     1       6.377   7.559  17.613  0.00  0.00    +0.000 A 
ATOM      3  C   UNL     1       7.604   7.236  18.198  0.00  0.00    +0.000 A 
ATOM      4  C   UNL     1       7.822   5.923  18.594  0.00  0.00    +0.000 A 
ATOM      5  C   UNL     1       6.810   4.962  18.425  0.00  0.00    +0.000 A 
ATOM      6  C   UNL     1       5.551   5.274  17.860  0.00  0.00    +0.000 A 
ENDROOT
BRANCH   6   7
ATOM      7  C   UNL     1       4.617   4.085  17.771  0.00  0.00    +0.000 C 
ATOM      8  O   UNL     1       4.760   3.365  16.777  0.00  0.00    +0.000 OA
ATOM      9  N   UNL     1       3.739   3.700  18.812  0.00  0.00    +0.000 N 
ATOM     10  C   UNL     1       3.163   2.349  18.782  0.00  0.00    +0.000 C 
ATOM     11  C   UNL     1       1.674   2.310  18.431  0.00  0.00    +0.000 C 
ATOM     12  C   UNL     1       0.744   2.590  19.609  0.00  0.00    +0.000 C 
ATOM     13  C   UNL     1       0.894   3.978  20.216  0.00  0.00    +0.000 C 
ATOM     14  C   UNL     1       2.263   4.184  20.859  0.00  0.00    +0.000 C 
ATOM     15  C   UNL     1       3.304   4.621  19.841  0.00  0.00    +0.000 C 
ENDBRANCH   6   7
BRANCH   1  17
ATOM     16  C   UNL     1       3.271   7.715  17.483  0.00  0.00    +0.000 C 
ATOM     17  O   UNL     1       4.245   6.982  16.730  0.00  0.00    +0.000 OA
ENDBRANCH   1  17
BRANCH   3  18
ATOM     18  S   UNL     1       8.773   8.566  18.406  0.00  0.00    +0.000 S 
ATOM     19  C   UNL     1       7.849   9.974  17.749  0.00  0.00    +0.000 C 
ENDBRANCH   3  18
TORSDOF 3
ENDMDL
