MODEL 1
REMARK VINA RESULT:      -8.1      0.000      0.000
REMARK  Name = 
REMARK  7 active torsions:
REMARK  status: ('A' for Active; 'I' for Inactive)
REMARK    1  A    between atoms: C_2  and  C_3
REMARK    2  A    between atoms: C_3  and  C_4
REMARK    3  A    between atoms: C_3  and  N_23
REMARK    4  A    between atoms: C_4  and  C_5
REMARK    5  A    between atoms: C_8  and  N_9
REMARK    6  A    between atoms: C_11  and  C_12
REMARK    7  A    between atoms: C_24  and  C_26
REMARK                            x       y       z     vdW  Elec       q    Type
REMARK                         _______ _______ _______ _____ _____    ______ ____
ROOT
ATOM      1  C   UNL     1       2.460   5.599  19.289  0.00  0.00    +0.000 A 
ATOM      2  C   UNL     1       1.923   5.994  20.521  0.00  0.00    +0.000 A 
ATOM      3  C   UNL     1       1.485   7.301  20.730  0.00  0.00    +0.000 A 
ATOM      4  C   UNL     1       1.616   8.257  19.720  0.00  0.00    +0.000 A 
ATOM      5  C   UNL     1       2.185   7.888  18.494  0.00  0.00    +0.000 A 
ATOM      6  C   UNL     1       2.609   6.569  18.285  0.00  0.00    +0.000 A 
ENDROOT
BRANCH   4   7
ATOM      7  N   UNL     1       1.197   9.589  19.946  0.00  0.00    +0.000 N 
ATOM      8  C   UNL     1       0.628  10.117  21.079  0.00  0.00    +0.000 A 
ATOM      9  C   UNL     1       0.454  11.453  20.799  0.00  0.00    +0.000 A 
ATOM     10  N   UNL     1       0.885  11.703  19.526  0.00  0.00    +0.000 NA
ATOM     11  N   UNL     1       1.339  10.566  19.013  0.00  0.00    +0.000 NA
BRANCH   9  12
ATOM     12  C   UNL     1      -0.077  12.441  21.714  0.00  0.00    +0.000 A 
ATOM     13  C   UNL     1      -1.146  12.126  22.550  0.00  0.00    +0.000 A 
ATOM     14  C   UNL     1      -1.653  13.112  23.395  0.00  0.00    +0.000 A 
ATOM     15  C   UNL     1      -1.080  14.378  23.383  0.00  0.00    +0.000 A 
ATOM     16 CL   UNL     1      -1.688  15.621  24.397  0.00  0.00    +0.000 Cl
ATOM     17  C   UNL     1      -0.016  14.610  22.527  0.00  0.00    +0.000 A 
ATOM     18  N   UNL     1       0.499  13.672  21.692  0.00  0.00    +0.000 NA
ENDBRANCH   9  12
ENDBRANCH   4   7
BRANCH   1  19
ATOM     19  C   UNL     1       2.905   4.170  19.038  0.00  0.00    +0.000 C 
BRANCH  19  20
ATOM     20  C   UNL     1       4.427   3.915  19.174  0.00  0.00    +0.000 C 
BRANCH  20  21
ATOM     21  N   UNL     1       5.082   3.835  17.872  0.00  0.00    +0.000 N 
ATOM     22  C   UNL     1       6.270   4.495  17.647  0.00  0.00    +0.000 C 
ATOM     23  O   UNL     1       6.792   5.209  18.498  0.00  0.00    +0.000 OA
ATOM     24  H   UNL     1       4.739   3.188  17.166  0.00  0.00    +0.000 HD
BRANCH  22  25
ATOM     25  C   UNL     1       6.862   4.247  16.247  0.00  0.00    +0.000 C 
ATOM     26  N   UNL     1       6.031   3.240  15.509  0.00  0.00    +0.000 NA
ATOM     27  C   UNL     1       5.572   3.973  14.299  0.00  0.00    +0.000 C 
ATOM     28  C   UNL     1       6.771   4.148  13.355  0.00  0.00    +0.000 C 
ATOM     29  C   UNL     1       7.615   5.213  14.073  0.00  0.00    +0.000 C 
ATOM     30  C   UNL     1       6.791   5.487  15.344  0.00  0.00    +0.000 C 
ATOM     31  C   UNL     1       5.364   5.388  14.818  0.00  0.00    +0.000 C 
ATOM     32  H   UNL     1       5.204   3.027  16.070  0.00  0.00    +0.000 HD
ENDBRANCH  22  25
ENDBRANCH  20  21
BRANCH  20  34
ATOM     33  N   UNL     1       4.923   1.731  20.569  0.00  0.00    +0.000 NA
ATOM     34  C   UNL     1       4.692   2.694  19.964  0.00  0.00    +0.000 C 
ENDBRANCH  20  34
ENDBRANCH  19  20
ENDBRANCH   1  19
TORSDOF 7
ENDMDL
MODEL 2
REMARK VINA RESULT:      -8.0      6.209      8.192
REMARK  Name = 
REMARK  7 active torsions:
REMARK  status: ('A' for Active; 'I' for Inactive)
REMARK    1  A    between atoms: C_2  and  C_3
REMARK    2  A    between atoms: C_3  and  C_4
REMARK    3  A    between atoms: C_3  and  N_23
REMARK    4  A    between atoms: C_4  and  C_5
REMARK    5  A    between atoms: C_8  and  N_9
REMARK    6  A    between atoms: C_11  and  C_12
REMARK    7  A    between atoms: C_24  and  C_26
REMARK                            x       y       z     vdW  Elec       q    Type
REMARK                         _______ _______ _______ _____ _____    ______ ____
ROOT
ATOM      1  C   UNL     1       7.457   6.364  17.747  0.00  0.00    +0.000 A 
ATOM      2  C   UNL     1       7.132   7.483  16.969  0.00  0.00    +0.000 A 
ATOM      3  C   UNL     1       7.624   8.748  17.285  0.00  0.00    +0.000 A 
ATOM      4  C   UNL     1       8.419   8.930  18.418  0.00  0.00    +0.000 A 
ATOM      5  C   UNL     1       8.725   7.829  19.228  0.00  0.00    +0.000 A 
ATOM      6  C   UNL     1       8.241   6.557  18.896  0.00  0.00    +0.000 A 
ENDROOT
BRANCH   4   7
ATOM      7  N   UNL     1       8.893  10.222  18.751  0.00  0.00    +0.000 N 
ATOM      8  C   UNL     1       8.993  11.322  17.938  0.00  0.00    +0.000 A 
ATOM      9  C   UNL     1       9.465  12.326  18.753  0.00  0.00    +0.000 A 
ATOM     10  N   UNL     1       9.662  11.824  20.010  0.00  0.00    +0.000 NA
ATOM     11  N   UNL     1       9.309  10.544  20.003  0.00  0.00    +0.000 NA
BRANCH   9  12
ATOM     12  C   UNL     1       9.692  13.698  18.353  0.00  0.00    +0.000 A 
ATOM     13  C   UNL     1      10.772  14.025  17.536  0.00  0.00    +0.000 A 
ATOM     14  C   UNL     1      10.979  15.361  17.196  0.00  0.00    +0.000 A 
ATOM     15  C   UNL     1      10.106  16.328  17.679  0.00  0.00    +0.000 A 
ATOM     16 CL   UNL     1      10.339  17.984  17.296  0.00  0.00    +0.000 Cl
ATOM     17  C   UNL     1       9.052  15.921  18.481  0.00  0.00    +0.000 A 
ATOM     18  N   UNL     1       8.825  14.630  18.829  0.00  0.00    +0.000 NA
ENDBRANCH   9  12
ENDBRANCH   4   7
BRANCH   1  19
ATOM     19  C   UNL     1       6.959   4.975  17.391  0.00  0.00    +0.000 C 
BRANCH  19  20
ATOM     20  C   UNL     1       5.525   4.914  16.808  0.00  0.00    +0.000 C 
BRANCH  20  21
ATOM     21  N   UNL     1       4.633   4.117  17.644  0.00  0.00    +0.000 N 
ATOM     22  C   UNL     1       3.407   4.614  18.029  0.00  0.00    +0.000 C 
ATOM     23  O   UNL     1       3.040   5.747  17.736  0.00  0.00    +0.000 OA
ATOM     24  H   UNL     1       4.850   3.143  17.839  0.00  0.00    +0.000 HD
BRANCH  22  25
ATOM     25  C   UNL     1       2.563   3.618  18.846  0.00  0.00    +0.000 C 
ATOM     26  N   UNL     1       3.414   2.959  19.891  0.00  0.00    +0.000 NA
ATOM     27  C   UNL     1       2.755   3.324  21.173  0.00  0.00    +0.000 C 
ATOM     28  C   UNL     1       1.443   2.533  21.286  0.00  0.00    +0.000 C 
ATOM     29  C   UNL     1       0.540   3.224  20.252  0.00  0.00    +0.000 C 
ATOM     30  C   UNL     1       1.467   4.307  19.673  0.00  0.00    +0.000 C 
ATOM     31  C   UNL     1       2.254   4.736  20.907  0.00  0.00    +0.000 C 
ATOM     32  H   UNL     1       4.336   3.399  19.884  0.00  0.00    +0.000 HD
ENDBRANCH  22  25
ENDBRANCH  20  21
BRANCH  20  34
ATOM     33  N   UNL     1       5.551   3.966  14.346  0.00  0.00    +0.000 NA
ATOM     34  C   UNL     1       5.536   4.398  15.423  0.00  0.00    +0.000 C 
ENDBRANCH  20  34
ENDBRANCH  19  20
ENDBRANCH   1  19
TORSDOF 7
ENDMDL
MODEL 3
REMARK VINA RESULT:      -8.0      4.951     10.355
REMARK  Name = 
REMARK  7 active torsions:
REMARK  status: ('A' for Active; 'I' for Inactive)
REMARK    1  A    between atoms: C_2  and  C_3
REMARK    2  A    between atoms: C_3  and  C_4
REMARK    3  A    between atoms: C_3  and  N_23
REMARK    4  A    between atoms: C_4  and  C_5
REMARK    5  A    between atoms: C_8  and  N_9
REMARK    6  A    between atoms: C_11  and  C_12
REMARK    7  A    between atoms: C_24  and  C_26
REMARK                            x       y       z     vdW  Elec       q    Type
REMARK                         _______ _______ _______ _____ _____    ______ ____
ROOT
ATOM      1  C   UNL     1      -0.153  11.037  21.580  0.00  0.00    +0.000 A 
ATOM      2  C   UNL     1      -0.039   9.840  22.299  0.00  0.00    +0.000 A 
ATOM      3  C   UNL     1       0.623   8.737  21.762  0.00  0.00    +0.000 A 
ATOM      4  C   UNL     1       1.149   8.793  20.470  0.00  0.00    +0.000 A 
ATOM      5  C   UNL     1       1.013   9.970  19.722  0.00  0.00    +0.000 A 
ATOM      6  C   UNL     1       0.360  11.080  20.274  0.00  0.00    +0.000 A 
ENDROOT
BRANCH   4   7
ATOM      7  N   UNL     1       1.795   7.662  19.918  0.00  0.00    +0.000 N 
ATOM      8  C   UNL     1       2.509   7.582  18.748  0.00  0.00    +0.000 A 
ATOM      9  C   UNL     1       2.962   6.283  18.697  0.00  0.00    +0.000 A 
ATOM     10  N   UNL     1       2.507   5.608  19.795  0.00  0.00    +0.000 NA
ATOM     11  N   UNL     1       1.800   6.453  20.536  0.00  0.00    +0.000 NA
BRANCH   9  12
ATOM     12  C   UNL     1       3.806   5.728  17.661  0.00  0.00    +0.000 A 
ATOM     13  C   UNL     1       3.910   4.347  17.500  0.00  0.00    +0.000 A 
ATOM     14  C   UNL     1       4.758   3.847  16.513  0.00  0.00    +0.000 A 
ATOM     15  C   UNL     1       5.473   4.733  15.717  0.00  0.00    +0.000 A 
ATOM     16 CL   UNL     1       6.538   4.154  14.504  0.00  0.00    +0.000 Cl
ATOM     17  C   UNL     1       5.311   6.092  15.936  0.00  0.00    +0.000 A 
ATOM     18  N   UNL     1       4.494   6.610  16.888  0.00  0.00    +0.000 NA
ENDBRANCH   9  12
ENDBRANCH   4   7
BRANCH   1  19
ATOM     19  C   UNL     1      -0.838  12.257  22.169  0.00  0.00    +0.000 C 
BRANCH  19  20
ATOM     20  C   UNL     1      -2.286  12.506  21.677  0.00  0.00    +0.000 C 
BRANCH  20  21
ATOM     21  N   UNL     1      -2.412  12.304  20.237  0.00  0.00    +0.000 N 
ATOM     22  C   UNL     1      -3.656  12.209  19.652  0.00  0.00    +0.000 C 
ATOM     23  O   UNL     1      -4.691  12.238  20.310  0.00  0.00    +0.000 OA
ATOM     24  H   UNL     1      -1.592  12.363  19.639  0.00  0.00    +0.000 HD
BRANCH  22  25
ATOM     25  C   UNL     1      -3.611  12.071  18.119  0.00  0.00    +0.000 C 
ATOM     26  N   UNL     1      -2.189  12.080  17.643  0.00  0.00    +0.000 NA
ATOM     27  C   UNL     1      -2.031  10.770  16.958  0.00  0.00    +0.000 C 
ATOM     28  C   UNL     1      -2.809  10.820  15.634  0.00  0.00    +0.000 C 
ATOM     29  C   UNL     1      -4.272  10.765  16.099  0.00  0.00    +0.000 C 
ATOM     30  C   UNL     1      -4.133  10.711  17.631  0.00  0.00    +0.000 C 
ATOM     31  C   UNL     1      -2.892   9.841  17.800  0.00  0.00    +0.000 C 
ATOM     32  H   UNL     1      -1.573  12.076  18.459  0.00  0.00    +0.000 HD
ENDBRANCH  22  25
ENDBRANCH  20  21
BRANCH  20  34
ATOM     33  N   UNL     1      -3.106  14.914  22.375  0.00  0.00    +0.000 NA
ATOM     34  C   UNL     1      -2.749  13.858  22.053  0.00  0.00    +0.000 C 
ENDBRANCH  20  34
ENDBRANCH  19  20
ENDBRANCH   1  19
TORSDOF 7
ENDMDL
MODEL 4
REMARK VINA RESULT:      -7.9      5.359     11.426
REMARK  Name = 
REMARK  7 active torsions:
REMARK  status: ('A' for Active; 'I' for Inactive)
REMARK    1  A    between atoms: C_2  and  C_3
REMARK    2  A    between atoms: C_3  and  C_4
REMARK    3  A    between atoms: C_3  and  N_23
REMARK    4  A    between atoms: C_4  and  C_5
REMARK    5  A    between atoms: C_8  and  N_9
REMARK    6  A    between atoms: C_11  and  C_12
REMARK    7  A    between atoms: C_24  and  C_26
REMARK                            x       y       z     vdW  Elec       q    Type
REMARK                         _______ _______ _______ _____ _____    ______ ____
ROOT
ATOM      1  C   UNL     1      -0.405  11.320  21.473  0.00  0.00    +0.000 A 
ATOM      2  C   UNL     1      -0.078  10.260  22.327  0.00  0.00    +0.000 A 
ATOM      3  C   UNL     1       0.608   9.141  21.857  0.00  0.00    +0.000 A 
ATOM      4  C   UNL     1       0.944   9.039  20.505  0.00  0.00    +0.000 A 
ATOM      5  C   UNL     1       0.592  10.075  19.629  0.00  0.00    +0.000 A 
ATOM      6  C   UNL     1      -0.083  11.203  20.111  0.00  0.00    +0.000 A 
ENDROOT
BRANCH   4   7
ATOM      7  N   UNL     1       1.615   7.889  20.026  0.00  0.00    +0.000 N 
ATOM      8  C   UNL     1       2.324   7.748  18.860  0.00  0.00    +0.000 A 
ATOM      9  C   UNL     1       2.810   6.460  18.893  0.00  0.00    +0.000 A 
ATOM     10  N   UNL     1       2.378   5.850  20.038  0.00  0.00    +0.000 NA
ATOM     11  N   UNL     1       1.655   6.726  20.725  0.00  0.00    +0.000 NA
BRANCH   9  12
ATOM     12  C   UNL     1       3.661   5.857  17.890  0.00  0.00    +0.000 A 
ATOM     13  C   UNL     1       4.449   6.653  17.061  0.00  0.00    +0.000 A 
ATOM     14  C   UNL     1       5.232   6.040  16.085  0.00  0.00    +0.000 A 
ATOM     15  C   UNL     1       5.209   4.656  15.965  0.00  0.00    +0.000 A 
ATOM     16 CL   UNL     1       6.147   3.867  14.764  0.00  0.00    +0.000 Cl
ATOM     17  C   UNL     1       4.404   3.934  16.831  0.00  0.00    +0.000 A 
ATOM     18  N   UNL     1       3.630   4.501  17.791  0.00  0.00    +0.000 NA
ENDBRANCH   9  12
ENDBRANCH   4   7
BRANCH   1  19
ATOM     19  C   UNL     1      -1.118  12.560  21.981  0.00  0.00    +0.000 C 
BRANCH  19  20
ATOM     20  C   UNL     1      -2.632  12.387  22.263  0.00  0.00    +0.000 C 
BRANCH  20  21
ATOM     21  N   UNL     1      -3.443  12.730  21.099  0.00  0.00    +0.000 N 
ATOM     22  C   UNL     1      -4.811  12.570  21.130  0.00  0.00    +0.000 C 
ATOM     23  O   UNL     1      -5.391  12.092  22.099  0.00  0.00    +0.000 OA
ATOM     24  H   UNL     1      -3.023  13.212  20.308  0.00  0.00    +0.000 HD
BRANCH  22  25
ATOM     25  C   UNL     1      -5.520  13.047  19.849  0.00  0.00    +0.000 C 
ATOM     26  N   UNL     1      -4.700  12.693  18.644  0.00  0.00    +0.000 NA
ATOM     27  C   UNL     1      -5.596  11.815  17.846  0.00  0.00    +0.000 C 
ATOM     28  C   UNL     1      -6.703  12.685  17.231  0.00  0.00    +0.000 C 
ATOM     29  C   UNL     1      -7.583  13.023  18.445  0.00  0.00    +0.000 C 
ATOM     30  C   UNL     1      -6.846  12.314  19.596  0.00  0.00    +0.000 C 
ATOM     31  C   UNL     1      -6.354  11.042  18.915  0.00  0.00    +0.000 C 
ATOM     32  H   UNL     1      -3.906  12.125  18.948  0.00  0.00    +0.000 HD
ENDBRANCH  22  25
ENDBRANCH  20  21
BRANCH  20  34
ATOM     33  N   UNL     1      -3.401  13.800  24.353  0.00  0.00    +0.000 NA
ATOM     34  C   UNL     1      -3.048  13.181  23.437  0.00  0.00    +0.000 C 
ENDBRANCH  20  34
ENDBRANCH  19  20
ENDBRANCH   1  19
TORSDOF 7
ENDMDL
MODEL 5
REMARK VINA RESULT:      -7.8      1.589      2.068
REMARK  Name = 
REMARK  7 active torsions:
REMARK  status: ('A' for Active; 'I' for Inactive)
REMARK    1  A    between atoms: C_2  and  C_3
REMARK    2  A    between atoms: C_3  and  C_4
REMARK    3  A    between atoms: C_3  and  N_23
REMARK    4  A    between atoms: C_4  and  C_5
REMARK    5  A    between atoms: C_8  and  N_9
REMARK    6  A    between atoms: C_11  and  C_12
REMARK    7  A    between atoms: C_24  and  C_26
REMARK                            x       y       z     vdW  Elec       q    Type
REMARK                         _______ _______ _______ _____ _____    ______ ____
ROOT
ATOM      1  C   UNL     1       2.424   5.603  19.347  0.00  0.00    +0.000 A 
ATOM      2  C   UNL     1       2.586   6.711  18.507  0.00  0.00    +0.000 A 
ATOM      3  C   UNL     1       2.201   7.987  18.916  0.00  0.00    +0.000 A 
ATOM      4  C   UNL     1       1.603   8.175  20.164  0.00  0.00    +0.000 A 
ATOM      5  C   UNL     1       1.400   7.071  21.003  0.00  0.00    +0.000 A 
ATOM      6  C   UNL     1       1.804   5.794  20.592  0.00  0.00    +0.000 A 
ENDROOT
BRANCH   4   7
ATOM      7  N   UNL     1       1.187   9.468  20.564  0.00  0.00    +0.000 N 
ATOM      8  C   UNL     1       0.889  10.545  19.767  0.00  0.00    +0.000 A 
ATOM      9  C   UNL     1       0.499  11.535  20.640  0.00  0.00    +0.000 A 
ATOM     10  N   UNL     1       0.587  11.062  21.920  0.00  0.00    +0.000 NA
ATOM     11  N   UNL     1       1.004   9.803  21.867  0.00  0.00    +0.000 NA
BRANCH   9  12
ATOM     12  C   UNL     1       0.043  12.855  20.263  0.00  0.00    +0.000 A 
ATOM     13  C   UNL     1       0.361  13.382  19.012  0.00  0.00    +0.000 A 
ATOM     14  C   UNL     1      -0.067  14.670  18.695  0.00  0.00    +0.000 A 
ATOM     15  C   UNL     1      -0.798  15.392  19.630  0.00  0.00    +0.000 A 
ATOM     16 CL   UNL     1      -1.328  16.987  19.282  0.00  0.00    +0.000 Cl
ATOM     17  C   UNL     1      -1.080  14.797  20.849  0.00  0.00    +0.000 A 
ATOM     18  N   UNL     1      -0.676  13.546  21.187  0.00  0.00    +0.000 NA
ENDBRANCH   9  12
ENDBRANCH   4   7
BRANCH   1  19
ATOM     19  C   UNL     1       2.874   4.215  18.928  0.00  0.00    +0.000 C 
BRANCH  19  20
ATOM     20  C   UNL     1       4.380   3.914  19.136  0.00  0.00    +0.000 C 
BRANCH  20  21
ATOM     21  N   UNL     1       5.091   3.804  17.865  0.00  0.00    +0.000 N 
ATOM     22  C   UNL     1       6.062   4.722  17.527  0.00  0.00    +0.000 C 
ATOM     23  O   UNL     1       6.329   5.683  18.241  0.00  0.00    +0.000 OA
ATOM     24  H   UNL     1       4.971   2.980  17.282  0.00  0.00    +0.000 HD
BRANCH  22  25
ATOM     25  C   UNL     1       6.762   4.419  16.190  0.00  0.00    +0.000 C 
ATOM     26  N   UNL     1       6.115   3.240  15.526  0.00  0.00    +0.000 NA
ATOM     27  C   UNL     1       5.636   3.779  14.226  0.00  0.00    +0.000 C 
ATOM     28  C   UNL     1       6.855   4.022  13.323  0.00  0.00    +0.000 C 
ATOM     29  C   UNL     1       7.509   5.257  13.962  0.00  0.00    +0.000 C 
ATOM     30  C   UNL     1       6.583   5.542  15.158  0.00  0.00    +0.000 C 
ATOM     31  C   UNL     1       5.214   5.197  14.581  0.00  0.00    +0.000 C 
ATOM     32  H   UNL     1       5.292   2.973  16.069  0.00  0.00    +0.000 HD
ENDBRANCH  22  25
ENDBRANCH  20  21
BRANCH  20  34
ATOM     33  N   UNL     1       4.747   1.730  20.568  0.00  0.00    +0.000 NA
ATOM     34  C   UNL     1       4.571   2.692  19.944  0.00  0.00    +0.000 C 
ENDBRANCH  20  34
ENDBRANCH  19  20
ENDBRANCH   1  19
TORSDOF 7
ENDMDL
MODEL 6
REMARK VINA RESULT:      -7.8      2.155      2.641
REMARK  Name = 
REMARK  7 active torsions:
REMARK  status: ('A' for Active; 'I' for Inactive)
REMARK    1  A    between atoms: C_2  and  C_3
REMARK    2  A    between atoms: C_3  and  C_4
REMARK    3  A    between atoms: C_3  and  N_23
REMARK    4  A    between atoms: C_4  and  C_5
REMARK    5  A    between atoms: C_8  and  N_9
REMARK    6  A    between atoms: C_11  and  C_12
REMARK    7  A    between atoms: C_24  and  C_26
REMARK                            x       y       z     vdW  Elec       q    Type
REMARK                         _______ _______ _______ _____ _____    ______ ____
ROOT
ATOM      1  C   UNL     1       2.426   5.617  19.275  0.00  0.00    +0.000 A 
ATOM      2  C   UNL     1       2.513   6.523  18.211  0.00  0.00    +0.000 A 
ATOM      3  C   UNL     1       2.128   7.854  18.364  0.00  0.00    +0.000 A 
ATOM      4  C   UNL     1       1.602   8.298  19.580  0.00  0.00    +0.000 A 
ATOM      5  C   UNL     1       1.473   7.396  20.644  0.00  0.00    +0.000 A 
ATOM      6  C   UNL     1       1.877   6.064  20.488  0.00  0.00    +0.000 A 
ENDROOT
BRANCH   4   7
ATOM      7  N   UNL     1       1.186   9.643  19.722  0.00  0.00    +0.000 N 
ATOM      8  C   UNL     1       1.722  10.761  19.136  0.00  0.00    +0.000 A 
ATOM      9  C   UNL     1       0.929  11.802  19.563  0.00  0.00    +0.000 A 
ATOM     10  N   UNL     1      -0.036  11.313  20.399  0.00  0.00    +0.000 NA
ATOM     11  N   UNL     1       0.123   9.998  20.490  0.00  0.00    +0.000 NA
BRANCH   9  12
ATOM     12  C   UNL     1       1.075  13.187  19.170  0.00  0.00    +0.000 A 
ATOM     13  C   UNL     1       2.319  13.684  18.785  0.00  0.00    +0.000 A 
ATOM     14  C   UNL     1       2.430  15.031  18.445  0.00  0.00    +0.000 A 
ATOM     15  C   UNL     1       1.302  15.840  18.496  0.00  0.00    +0.000 A 
ATOM     16 CL   UNL     1       1.403  17.506  18.099  0.00  0.00    +0.000 Cl
ATOM     17  C   UNL     1       0.100  15.269  18.882  0.00  0.00    +0.000 A 
ATOM     18  N   UNL     1      -0.040  13.963  19.220  0.00  0.00    +0.000 NA
ENDBRANCH   9  12
ENDBRANCH   4   7
BRANCH   1  19
ATOM     19  C   UNL     1       2.878   4.174  19.131  0.00  0.00    +0.000 C 
BRANCH  19  20
ATOM     20  C   UNL     1       4.406   3.944  19.242  0.00  0.00    +0.000 C 
BRANCH  20  21
ATOM     21  N   UNL     1       5.046   3.907  17.930  0.00  0.00    +0.000 N 
ATOM     22  C   UNL     1       6.326   4.386  17.765  0.00  0.00    +0.000 C 
ATOM     23  O   UNL     1       6.954   4.904  18.683  0.00  0.00    +0.000 OA
ATOM     24  H   UNL     1       4.604   3.409  17.161  0.00  0.00    +0.000 HD
BRANCH  22  25
ATOM     25  C   UNL     1       6.876   4.206  16.338  0.00  0.00    +0.000 C 
ATOM     26  N   UNL     1       6.011   3.251  15.571  0.00  0.00    +0.000 NA
ATOM     27  C   UNL     1       5.530   4.053  14.415  0.00  0.00    +0.000 C 
ATOM     28  C   UNL     1       6.706   4.263  13.448  0.00  0.00    +0.000 C 
ATOM     29  C   UNL     1       7.584   5.276  14.199  0.00  0.00    +0.000 C 
ATOM     30  C   UNL     1       6.799   5.493  15.505  0.00  0.00    +0.000 C 
ATOM     31  C   UNL     1       5.356   5.441  15.014  0.00  0.00    +0.000 C 
ATOM     32  H   UNL     1       5.197   3.019  16.143  0.00  0.00    +0.000 HD
ENDBRANCH  22  25
ENDBRANCH  20  21
BRANCH  20  34
ATOM     33  N   UNL     1       4.910   1.741  20.604  0.00  0.00    +0.000 NA
ATOM     34  C   UNL     1       4.702   2.709  19.999  0.00  0.00    +0.000 C 
ENDBRANCH  20  34
ENDBRANCH  19  20
ENDBRANCH   1  19
TORSDOF 7
ENDMDL
MODEL 7
REMARK VINA RESULT:      -7.7      1.265      1.541
REMARK  Name = 
REMARK  7 active torsions:
REMARK  status: ('A' for Active; 'I' for Inactive)
REMARK    1  A    between atoms: C_2  and  C_3
REMARK    2  A    between atoms: C_3  and  C_4
REMARK    3  A    between atoms: C_3  and  N_23
REMARK    4  A    between atoms: C_4  and  C_5
REMARK    5  A    between atoms: C_8  and  N_9
REMARK    6  A    between atoms: C_11  and  C_12
REMARK    7  A    between atoms: C_24  and  C_26
REMARK                            x       y       z     vdW  Elec       q    Type
REMARK                         _______ _______ _______ _____ _____    ______ ____
ROOT
ATOM      1  C   UNL     1       2.580   5.327  19.378  0.00  0.00    +0.000 A 
ATOM      2  C   UNL     1       2.670   6.038  18.175  0.00  0.00    +0.000 A 
ATOM      3  C   UNL     1       2.311   7.384  18.105  0.00  0.00    +0.000 A 
ATOM      4  C   UNL     1       1.810   8.037  19.233  0.00  0.00    +0.000 A 
ATOM      5  C   UNL     1       1.679   7.331  20.436  0.00  0.00    +0.000 A 
ATOM      6  C   UNL     1       2.057   5.984  20.503  0.00  0.00    +0.000 A 
ENDROOT
BRANCH   4   7
ATOM      7  N   UNL     1       1.420   9.395  19.150  0.00  0.00    +0.000 N 
ATOM      8  C   UNL     1       0.422  10.033  19.844  0.00  0.00    +0.000 A 
ATOM      9  C   UNL     1       0.485  11.345  19.433  0.00  0.00    +0.000 A 
ATOM     10  N   UNL     1       1.479  11.473  18.502  0.00  0.00    +0.000 NA
ATOM     11  N   UNL     1       2.046  10.284  18.337  0.00  0.00    +0.000 NA
BRANCH   9  12
ATOM     12  C   UNL     1      -0.348  12.421  19.925  0.00  0.00    +0.000 A 
ATOM     13  C   UNL     1      -1.381  12.160  20.823  0.00  0.00    +0.000 A 
ATOM     14  C   UNL     1      -2.184  13.216  21.251  0.00  0.00    +0.000 A 
ATOM     15  C   UNL     1      -1.934  14.496  20.774  0.00  0.00    +0.000 A 
ATOM     16 CL   UNL     1      -2.912  15.818  21.265  0.00  0.00    +0.000 Cl
ATOM     17  C   UNL     1      -0.885  14.675  19.887  0.00  0.00    +0.000 A 
ATOM     18  N   UNL     1      -0.086  13.668  19.452  0.00  0.00    +0.000 NA
ENDBRANCH   9  12
ENDBRANCH   4   7
BRANCH   1  19
ATOM     19  C   UNL     1       3.004   3.873  19.475  0.00  0.00    +0.000 C 
BRANCH  19  20
ATOM     20  C   UNL     1       4.533   3.630  19.536  0.00  0.00    +0.000 C 
BRANCH  20  21
ATOM     21  N   UNL     1       5.135   3.625  18.206  0.00  0.00    +0.000 N 
ATOM     22  C   UNL     1       6.263   4.372  17.948  0.00  0.00    +0.000 C 
ATOM     23  O   UNL     1       6.771   5.101  18.794  0.00  0.00    +0.000 OA
ATOM     24  H   UNL     1       4.807   2.971  17.500  0.00  0.00    +0.000 HD
BRANCH  22  25
ATOM     25  C   UNL     1       6.809   4.197  16.519  0.00  0.00    +0.000 C 
ATOM     26  N   UNL     1       5.883   3.332  15.718  0.00  0.00    +0.000 NA
ATOM     27  C   UNL     1       5.470   4.202  14.585  0.00  0.00    +0.000 C 
ATOM     28  C   UNL     1       6.664   4.357  13.632  0.00  0.00    +0.000 C 
ATOM     29  C   UNL     1       7.608   5.281  14.419  0.00  0.00    +0.000 C 
ATOM     30  C   UNL     1       6.831   5.512  15.727  0.00  0.00    +0.000 C 
ATOM     31  C   UNL     1       5.392   5.579  15.227  0.00  0.00    +0.000 C 
ATOM     32  H   UNL     1       5.050   3.141  16.278  0.00  0.00    +0.000 HD
ENDBRANCH  22  25
ENDBRANCH  20  21
BRANCH  20  34
ATOM     33  N   UNL     1       5.058   1.382  20.815  0.00  0.00    +0.000 NA
ATOM     34  C   UNL     1       4.842   2.373  20.250  0.00  0.00    +0.000 C 
ENDBRANCH  20  34
ENDBRANCH  19  20
ENDBRANCH   1  19
TORSDOF 7
ENDMDL
MODEL 8
REMARK VINA RESULT:      -7.7      1.387      1.607
REMARK  Name = 
REMARK  7 active torsions:
REMARK  status: ('A' for Active; 'I' for Inactive)
REMARK    1  A    between atoms: C_2  and  C_3
REMARK    2  A    between atoms: C_3  and  C_4
REMARK    3  A    between atoms: C_3  and  N_23
REMARK    4  A    between atoms: C_4  and  C_5
REMARK    5  A    between atoms: C_8  and  N_9
REMARK    6  A    between atoms: C_11  and  C_12
REMARK    7  A    between atoms: C_24  and  C_26
REMARK                            x       y       z     vdW  Elec       q    Type
REMARK                         _______ _______ _______ _____ _____    ______ ____
ROOT
ATOM      1  C   UNL     1       2.593   5.357  19.432  0.00  0.00    +0.000 A 
ATOM      2  C   UNL     1       2.132   6.086  20.535  0.00  0.00    +0.000 A 
ATOM      3  C   UNL     1       1.729   7.414  20.404  0.00  0.00    +0.000 A 
ATOM      4  C   UNL     1       1.821   8.058  19.168  0.00  0.00    +0.000 A 
ATOM      5  C   UNL     1       2.314   7.355  18.061  0.00  0.00    +0.000 A 
ATOM      6  C   UNL     1       2.702   6.016  18.196  0.00  0.00    +0.000 A 
ENDROOT
BRANCH   4   7
ATOM      7  N   UNL     1       1.438   9.415  19.045  0.00  0.00    +0.000 N 
ATOM      8  C   UNL     1       0.434  10.074  19.710  0.00  0.00    +0.000 A 
ATOM      9  C   UNL     1       0.508  11.375  19.266  0.00  0.00    +0.000 A 
ATOM     10  N   UNL     1       1.513  11.475  18.344  0.00  0.00    +0.000 NA
ATOM     11  N   UNL     1       2.077  10.280  18.216  0.00  0.00    +0.000 NA
BRANCH   9  12
ATOM     12  C   UNL     1      -0.326  12.467  19.719  0.00  0.00    +0.000 A 
ATOM     13  C   UNL     1      -0.002  13.783  19.397  0.00  0.00    +0.000 A 
ATOM     14  C   UNL     1      -0.810  14.812  19.878  0.00  0.00    +0.000 A 
ATOM     15  C   UNL     1      -1.914  14.500  20.662  0.00  0.00    +0.000 A 
ATOM     16 CL   UNL     1      -2.921  15.741  21.286  0.00  0.00    +0.000 Cl
ATOM     17  C   UNL     1      -2.172  13.166  20.933  0.00  0.00    +0.000 A 
ATOM     18  N   UNL     1      -1.405  12.143  20.480  0.00  0.00    +0.000 NA
ENDBRANCH   9  12
ENDBRANCH   4   7
BRANCH   1  19
ATOM     19  C   UNL     1       2.998   3.899  19.555  0.00  0.00    +0.000 C 
BRANCH  19  20
ATOM     20  C   UNL     1       4.523   3.640  19.641  0.00  0.00    +0.000 C 
BRANCH  20  21
ATOM     21  N   UNL     1       5.140   3.588  18.319  0.00  0.00    +0.000 N 
ATOM     22  C   UNL     1       6.111   4.500  17.966  0.00  0.00    +0.000 C 
ATOM     23  O   UNL     1       6.455   5.410  18.713  0.00  0.00    +0.000 OA
ATOM     24  H   UNL     1       4.955   2.803  17.700  0.00  0.00    +0.000 HD
BRANCH  22  25
ATOM     25  C   UNL     1       6.707   4.259  16.566  0.00  0.00    +0.000 C 
ATOM     26  N   UNL     1       5.807   3.361  15.771  0.00  0.00    +0.000 NA
ATOM     27  C   UNL     1       5.438   4.181  14.587  0.00  0.00    +0.000 C 
ATOM     28  C   UNL     1       6.667   4.290  13.671  0.00  0.00    +0.000 C 
ATOM     29  C   UNL     1       7.585   5.245  14.449  0.00  0.00    +0.000 C 
ATOM     30  C   UNL     1       6.763   5.537  15.717  0.00  0.00    +0.000 C 
ATOM     31  C   UNL     1       5.343   5.586  15.163  0.00  0.00    +0.000 C 
ATOM     32  H   UNL     1       4.953   3.198  16.309  0.00  0.00    +0.000 HD
ENDBRANCH  22  25
ENDBRANCH  20  21
BRANCH  20  34
ATOM     33  N   UNL     1       5.026   1.443  21.011  0.00  0.00    +0.000 NA
ATOM     34  C   UNL     1       4.809   2.402  20.395  0.00  0.00    +0.000 C 
ENDBRANCH  20  34
ENDBRANCH  19  20
ENDBRANCH   1  19
TORSDOF 7
ENDMDL
MODEL 9
REMARK VINA RESULT:      -7.7      4.760     10.150
REMARK  Name = 
REMARK  7 active torsions:
REMARK  status: ('A' for Active; 'I' for Inactive)
REMARK    1  A    between atoms: C_2  and  C_3
REMARK    2  A    between atoms: C_3  and  C_4
REMARK    3  A    between atoms: C_3  and  N_23
REMARK    4  A    between atoms: C_4  and  C_5
REMARK    5  A    between atoms: C_8  and  N_9
REMARK    6  A    between atoms: C_11  and  C_12
REMARK    7  A    between atoms: C_24  and  C_26
REMARK                            x       y       z     vdW  Elec       q    Type
REMARK                         _______ _______ _______ _____ _____    ______ ____
ROOT
ATOM      1  C   UNL     1      -0.279  10.561  21.691  0.00  0.00    +0.000 A 
ATOM      2  C   UNL     1      -0.104   9.336  22.346  0.00  0.00    +0.000 A 
ATOM      3  C   UNL     1       0.638   8.308  21.766  0.00  0.00    +0.000 A 
ATOM      4  C   UNL     1       1.187   8.470  20.492  0.00  0.00    +0.000 A 
ATOM      5  C   UNL     1       0.991   9.676  19.807  0.00  0.00    +0.000 A 
ATOM      6  C   UNL     1       0.257  10.710  20.402  0.00  0.00    +0.000 A 
ENDROOT
BRANCH   4   7
ATOM      7  N   UNL     1       1.916   7.414  19.895  0.00  0.00    +0.000 N 
ATOM      8  C   UNL     1       2.575   7.416  18.691  0.00  0.00    +0.000 A 
ATOM      9  C   UNL     1       3.154   6.170  18.601  0.00  0.00    +0.000 A 
ATOM     10  N   UNL     1       2.825   5.444  19.712  0.00  0.00    +0.000 NA
ATOM     11  N   UNL     1       2.074   6.207  20.497  0.00  0.00    +0.000 NA
BRANCH   9  12
ATOM     12  C   UNL     1       3.997   5.711  17.518  0.00  0.00    +0.000 A 
ATOM     13  C   UNL     1       4.614   6.627  16.668  0.00  0.00    +0.000 A 
ATOM     14  C   UNL     1       5.393   6.149  15.615  0.00  0.00    +0.000 A 
ATOM     15  C   UNL     1       5.534   4.778  15.442  0.00  0.00    +0.000 A 
ATOM     16 CL   UNL     1       6.470   4.152  14.148  0.00  0.00    +0.000 Cl
ATOM     17  C   UNL     1       4.893   3.932  16.334  0.00  0.00    +0.000 A 
ATOM     18  N   UNL     1       4.128   4.367  17.367  0.00  0.00    +0.000 NA
ENDBRANCH   9  12
ENDBRANCH   4   7
BRANCH   1  19
ATOM     19  C   UNL     1      -1.054  11.701  22.329  0.00  0.00    +0.000 C 
BRANCH  19  20
ATOM     20  C   UNL     1      -1.207  12.970  21.454  0.00  0.00    +0.000 C 
BRANCH  20  21
ATOM     21  N   UNL     1      -1.572  12.640  20.079  0.00  0.00    +0.000 N 
ATOM     22  C   UNL     1      -2.892  12.442  19.736  0.00  0.00    +0.000 C 
ATOM     23  O   UNL     1      -3.795  12.481  20.565  0.00  0.00    +0.000 OA
ATOM     24  H   UNL     1      -0.874  12.684  19.341  0.00  0.00    +0.000 HD
BRANCH  22  25
ATOM     25  C   UNL     1      -3.108  12.174  18.235  0.00  0.00    +0.000 C 
ATOM     26  N   UNL     1      -1.786  12.074  17.535  0.00  0.00    +0.000 NA
ATOM     27  C   UNL     1      -1.792  10.705  16.953  0.00  0.00    +0.000 C 
ATOM     28  C   UNL     1      -2.778  10.684  15.775  0.00  0.00    +0.000 C 
ATOM     29  C   UNL     1      -4.144  10.740  16.476  0.00  0.00    +0.000 C 
ATOM     30  C   UNL     1      -3.752  10.807  17.963  0.00  0.00    +0.000 C 
ATOM     31  C   UNL     1      -2.532   9.893  18.005  0.00  0.00    +0.000 C 
ATOM     32  H   UNL     1      -1.044  12.106  18.236  0.00  0.00    +0.000 HD
ENDBRANCH  22  25
ENDBRANCH  20  21
BRANCH  20  34
ATOM     33  N   UNL     1       1.002  14.410  21.523  0.00  0.00    +0.000 NA
ATOM     34  C   UNL     1       0.025  13.785  21.481  0.00  0.00    +0.000 C 
ENDBRANCH  20  34
ENDBRANCH  19  20
ENDBRANCH   1  19
TORSDOF 7
ENDMDL
