MODEL 1
REMARK VINA RESULT:      -7.8      0.000      0.000
REMARK  Name = 
REMARK  10 active torsions:
REMARK  status: ('A' for Active; 'I' for Inactive)
REMARK    1  A    between atoms: C_2  and  C_3
REMARK    2  A    between atoms: C_3  and  C_4
REMARK    3  A    between atoms: C_8  and  C_9
REMARK    4  A    between atoms: N_10  and  N_11
REMARK    5  A    between atoms: C_12  and  C_14
REMARK    6  A    between atoms: C_14  and  C_15
REMARK    7  A    between atoms: C_14  and  N_16
REMARK    8  A    between atoms: N_16  and  C_17
REMARK    9  A    between atoms: C_20  and  C_21
REMARK   10  A    between atoms: C_24  and  O_25
REMARK                            x       y       z     vdW  Elec       q    Type
REMARK                         _______ _______ _______ _____ _____    ______ ____
ROOT
ATOM      1  N   UNL     1       3.304   5.116  19.589  0.00  0.00    +0.000 N 
ATOM      2  C   UNL     1       2.997   4.156  18.628  0.00  0.00    +0.000 C 
ATOM      3  O   UNL     1       1.913   4.110  18.042  0.00  0.00    +0.000 OA
ATOM      4  H   UNL     1       4.154   5.063  20.137  0.00  0.00    +0.000 HD
ENDROOT
BRANCH   1   6
ATOM      5  C   UNL     1       2.601   7.229  19.159  0.00  0.00    +0.000 C 
ATOM      6  N   UNL     1       2.422   6.123  19.811  0.00  0.00    +0.000 NA
BRANCH   5  11
ATOM      7  C   UNL     1       0.395   9.837  20.838  0.00  0.00    +0.000 A 
ATOM      8  C   UNL     1      -0.032  10.549  19.705  0.00  0.00    +0.000 A 
ATOM      9  C   UNL     1       0.393  10.180  18.426  0.00  0.00    +0.000 A 
ATOM     10  C   UNL     1       1.248   9.090  18.256  0.00  0.00    +0.000 A 
ATOM     11  C   UNL     1       1.676   8.365  19.374  0.00  0.00    +0.000 A 
ATOM     12  C   UNL     1       1.241   8.733  20.659  0.00  0.00    +0.000 A 
BRANCH  12  13
ATOM     13  O   UNL     1       1.621   8.047  21.785  0.00  0.00    +0.000 OA
ATOM     14  H   UNL     1       1.123   7.199  21.827  0.00  0.00    +0.000 HD
ENDBRANCH  12  13
BRANCH   7  15
ATOM     15  C   UNL     1      -0.058  10.269  22.215  0.00  0.00    +0.000 C 
BRANCH  15  17
ATOM     16  C   UNL     1      -1.916  11.757  23.029  0.00  0.00    +0.000 C 
ATOM     17  C   UNL     1      -0.893  11.518  22.198  0.00  0.00    +0.000 C 
ENDBRANCH  15  17
ENDBRANCH   7  15
ENDBRANCH   5  11
ENDBRANCH   1   6
BRANCH   2  18
ATOM     18  C   UNL     1       4.082   3.073  18.382  0.00  0.00    +0.000 C 
ATOM     19  C   UNL     1       3.455   1.688  18.215  0.00  0.00    +0.000 C 
BRANCH  18  20
ATOM     20  N   UNL     1       4.897   3.453  17.204  0.00  0.00    +0.000 N 
ATOM     21  H   UNL     1       4.308   3.485  16.368  0.00  0.00    +0.000 HD
BRANCH  20  22
ATOM     22  C   UNL     1       5.663   4.635  17.253  0.00  0.00    +0.000 A 
ATOM     23  C   UNL     1       5.301   5.824  16.615  0.00  0.00    +0.000 A 
ATOM     24  C   UNL     1       6.049   6.999  16.763  0.00  0.00    +0.000 A 
ATOM     25  C   UNL     1       7.184   7.022  17.571  0.00  0.00    +0.000 A 
ATOM     26  C   UNL     1       7.986   8.280  17.727  0.00  0.00    +0.000 C 
ATOM     27  C   UNL     1       7.545   5.854  18.246  0.00  0.00    +0.000 A 
ATOM     28  C   UNL     1       6.781   4.685  18.100  0.00  0.00    +0.000 A 
ENDBRANCH  20  22
ENDBRANCH  18  20
ENDBRANCH   2  18
TORSDOF 8
ENDMDL
MODEL 2
REMARK VINA RESULT:      -7.8      4.457      7.845
REMARK  Name = 
REMARK  10 active torsions:
REMARK  status: ('A' for Active; 'I' for Inactive)
REMARK    1  A    between atoms: C_2  and  C_3
REMARK    2  A    between atoms: C_3  and  C_4
REMARK    3  A    between atoms: C_8  and  C_9
REMARK    4  A    between atoms: N_10  and  N_11
REMARK    5  A    between atoms: C_12  and  C_14
REMARK    6  A    between atoms: C_14  and  C_15
REMARK    7  A    between atoms: C_14  and  N_16
REMARK    8  A    between atoms: N_16  and  C_17
REMARK    9  A    between atoms: C_20  and  C_21
REMARK   10  A    between atoms: C_24  and  O_25
REMARK                            x       y       z     vdW  Elec       q    Type
REMARK                         _______ _______ _______ _____ _____    ______ ____
ROOT
ATOM      1  N   UNL     1       7.631   7.567  17.464  0.00  0.00    +0.000 N 
ATOM      2  C   UNL     1       7.456   6.341  18.100  0.00  0.00    +0.000 C 
ATOM      3  O   UNL     1       8.021   6.040  19.153  0.00  0.00    +0.000 OA
ATOM      4  H   UNL     1       7.247   7.746  16.544  0.00  0.00    +0.000 HD
ENDROOT
BRANCH   1   6
ATOM      5  C   UNL     1       8.088   9.763  17.804  0.00  0.00    +0.000 C 
ATOM      6  N   UNL     1       8.360   8.528  18.086  0.00  0.00    +0.000 NA
BRANCH   5  11
ATOM      7  C   UNL     1       9.479  13.199  18.665  0.00  0.00    +0.000 A 
ATOM      8  C   UNL     1      10.321  12.851  19.734  0.00  0.00    +0.000 A 
ATOM      9  C   UNL     1      10.428  11.523  20.157  0.00  0.00    +0.000 A 
ATOM     10  C   UNL     1       9.700  10.520  19.517  0.00  0.00    +0.000 A 
ATOM     11  C   UNL     1       8.863  10.850  18.444  0.00  0.00    +0.000 A 
ATOM     12  C   UNL     1       8.763  12.184  18.015  0.00  0.00    +0.000 A 
BRANCH  12  13
ATOM     13  O   UNL     1       7.967  12.556  16.962  0.00  0.00    +0.000 OA
ATOM     14  H   UNL     1       8.055  13.528  16.821  0.00  0.00    +0.000 HD
ENDBRANCH  12  13
BRANCH   7  15
ATOM     15  C   UNL     1       9.360  14.646  18.240  0.00  0.00    +0.000 C 
BRANCH  15  17
ATOM     16  C   UNL     1      11.434  14.696  16.817  0.00  0.00    +0.000 C 
ATOM     17  C   UNL     1      10.662  15.233  17.771  0.00  0.00    +0.000 C 
ENDBRANCH  15  17
ENDBRANCH   7  15
ENDBRANCH   5  11
ENDBRANCH   1   6
BRANCH   2  18
ATOM     18  C   UNL     1       6.555   5.317  17.358  0.00  0.00    +0.000 C 
ATOM     19  C   UNL     1       7.236   4.795  16.092  0.00  0.00    +0.000 C 
BRANCH  18  20
ATOM     20  N   UNL     1       6.199   4.215  18.284  0.00  0.00    +0.000 N 
ATOM     21  H   UNL     1       6.861   4.186  19.064  0.00  0.00    +0.000 HD
BRANCH  20  22
ATOM     22  C   UNL     1       4.892   4.157  18.809  0.00  0.00    +0.000 A 
ATOM     23  C   UNL     1       3.903   5.107  18.545  0.00  0.00    +0.000 A 
ATOM     24  C   UNL     1       2.594   4.962  19.018  0.00  0.00    +0.000 A 
ATOM     25  C   UNL     1       2.227   3.846  19.766  0.00  0.00    +0.000 A 
ATOM     26  C   UNL     1       0.824   3.692  20.275  0.00  0.00    +0.000 C 
ATOM     27  C   UNL     1       3.191   2.865  20.013  0.00  0.00    +0.000 A 
ATOM     28  C   UNL     1       4.498   3.015  19.523  0.00  0.00    +0.000 A 
ENDBRANCH  20  22
ENDBRANCH  18  20
ENDBRANCH   2  18
TORSDOF 8
ENDMDL
MODEL 3
REMARK VINA RESULT:      -7.7      5.116      7.517
REMARK  Name = 
REMARK  10 active torsions:
REMARK  status: ('A' for Active; 'I' for Inactive)
REMARK    1  A    between atoms: C_2  and  C_3
REMARK    2  A    between atoms: C_3  and  C_4
REMARK    3  A    between atoms: C_8  and  C_9
REMARK    4  A    between atoms: N_10  and  N_11
REMARK    5  A    between atoms: C_12  and  C_14
REMARK    6  A    between atoms: C_14  and  C_15
REMARK    7  A    between atoms: C_14  and  N_16
REMARK    8  A    between atoms: N_16  and  C_17
REMARK    9  A    between atoms: C_20  and  C_21
REMARK   10  A    between atoms: C_24  and  O_25
REMARK                            x       y       z     vdW  Elec       q    Type
REMARK                         _______ _______ _______ _____ _____    ______ ____
ROOT
ATOM      1  N   UNL     1       7.507   7.586  17.524  0.00  0.00    +0.000 N 
ATOM      2  C   UNL     1       7.419   6.350  18.159  0.00  0.00    +0.000 C 
ATOM      3  O   UNL     1       8.092   6.048  19.146  0.00  0.00    +0.000 OA
ATOM      4  H   UNL     1       7.030   7.768  16.649  0.00  0.00    +0.000 HD
ENDROOT
BRANCH   1   6
ATOM      5  C   UNL     1       8.065   9.777  17.712  0.00  0.00    +0.000 C 
ATOM      6  N   UNL     1       8.278   8.554  18.083  0.00  0.00    +0.000 NA
BRANCH   5  11
ATOM      7  C   UNL     1       9.492  13.225  18.458  0.00  0.00    +0.000 A 
ATOM      8  C   UNL     1      10.442  12.881  19.433  0.00  0.00    +0.000 A 
ATOM      9  C   UNL     1      10.609  11.552  19.831  0.00  0.00    +0.000 A 
ATOM     10  C   UNL     1       9.832  10.544  19.259  0.00  0.00    +0.000 A 
ATOM     11  C   UNL     1       8.887  10.869  18.280  0.00  0.00    +0.000 A 
ATOM     12  C   UNL     1       8.727  12.206  17.875  0.00  0.00    +0.000 A 
BRANCH  12  13
ATOM     13  O   UNL     1       7.824  12.575  16.910  0.00  0.00    +0.000 OA
ATOM     14  H   UNL     1       7.535  11.771  16.418  0.00  0.00    +0.000 HD
ENDBRANCH  12  13
BRANCH   7  15
ATOM     15  C   UNL     1       9.312  14.674  18.059  0.00  0.00    +0.000 C 
BRANCH  15  17
ATOM     16  C   UNL     1       7.454  14.956  19.731  0.00  0.00    +0.000 C 
ATOM     17  C   UNL     1       8.485  15.458  19.037  0.00  0.00    +0.000 C 
ENDBRANCH  15  17
ENDBRANCH   7  15
ENDBRANCH   5  11
ENDBRANCH   1   6
BRANCH   2  18
ATOM     18  C   UNL     1       6.467   5.317  17.497  0.00  0.00    +0.000 C 
ATOM     19  C   UNL     1       7.074   4.746  16.215  0.00  0.00    +0.000 C 
BRANCH  18  20
ATOM     20  N   UNL     1       6.145   4.250  18.475  0.00  0.00    +0.000 N 
ATOM     21  H   UNL     1       6.427   4.541  19.415  0.00  0.00    +0.000 HD
BRANCH  20  22
ATOM     22  C   UNL     1       4.827   3.755  18.540  0.00  0.00    +0.000 A 
ATOM     23  C   UNL     1       4.383   2.845  19.503  0.00  0.00    +0.000 A 
ATOM     24  C   UNL     1       3.043   2.448  19.581  0.00  0.00    +0.000 A 
ATOM     25  C   UNL     1       2.095   2.964  18.700  0.00  0.00    +0.000 A 
ATOM     26  C   UNL     1       0.660   2.536  18.783  0.00  0.00    +0.000 C 
ATOM     27  C   UNL     1       2.510   3.902  17.752  0.00  0.00    +0.000 A 
ATOM     28  C   UNL     1       3.854   4.303  17.690  0.00  0.00    +0.000 A 
ENDBRANCH  20  22
ENDBRANCH  18  20
ENDBRANCH   2  18
TORSDOF 8
ENDMDL
MODEL 4
REMARK VINA RESULT:      -7.5      1.234      2.195
REMARK  Name = 
REMARK  10 active torsions:
REMARK  status: ('A' for Active; 'I' for Inactive)
REMARK    1  A    between atoms: C_2  and  C_3
REMARK    2  A    between atoms: C_3  and  C_4
REMARK    3  A    between atoms: C_8  and  C_9
REMARK    4  A    between atoms: N_10  and  N_11
REMARK    5  A    between atoms: C_12  and  C_14
REMARK    6  A    between atoms: C_14  and  C_15
REMARK    7  A    between atoms: C_14  and  N_16
REMARK    8  A    between atoms: N_16  and  C_17
REMARK    9  A    between atoms: C_20  and  C_21
REMARK   10  A    between atoms: C_24  and  O_25
REMARK                            x       y       z     vdW  Elec       q    Type
REMARK                         _______ _______ _______ _____ _____    ______ ____
ROOT
ATOM      1  N   UNL     1       3.094   4.785  19.838  0.00  0.00    +0.000 N 
ATOM      2  C   UNL     1       2.958   4.099  18.635  0.00  0.00    +0.000 C 
ATOM      3  O   UNL     1       2.003   4.257  17.871  0.00  0.00    +0.000 OA
ATOM      4  H   UNL     1       3.826   4.554  20.499  0.00  0.00    +0.000 HD
ENDROOT
BRANCH   1   6
ATOM      5  C   UNL     1       2.529   6.982  19.834  0.00  0.00    +0.000 C 
ATOM      6  N   UNL     1       2.203   5.764  20.136  0.00  0.00    +0.000 NA
BRANCH   5  11
ATOM      7  C   UNL     1       0.197   9.969  19.476  0.00  0.00    +0.000 A 
ATOM      8  C   UNL     1      -0.191  10.127  20.816  0.00  0.00    +0.000 A 
ATOM      9  C   UNL     1       0.303   9.275  21.809  0.00  0.00    +0.000 A 
ATOM     10  C   UNL     1       1.196   8.255  21.480  0.00  0.00    +0.000 A 
ATOM     11  C   UNL     1       1.599   8.090  20.150  0.00  0.00    +0.000 A 
ATOM     12  C   UNL     1       1.108   8.952  19.154  0.00  0.00    +0.000 A 
BRANCH  12  13
ATOM     13  O   UNL     1       1.482   8.840  17.839  0.00  0.00    +0.000 OA
ATOM     14  H   UNL     1       1.829   9.708  17.529  0.00  0.00    +0.000 HD
ENDBRANCH  12  13
BRANCH   7  15
ATOM     15  C   UNL     1      -0.368  10.887  18.414  0.00  0.00    +0.000 C 
BRANCH  15  17
ATOM     16  C   UNL     1      -2.317  10.679  16.837  0.00  0.00    +0.000 C 
ATOM     17  C   UNL     1      -1.798  10.580  18.068  0.00  0.00    +0.000 C 
ENDBRANCH  15  17
ENDBRANCH   7  15
ENDBRANCH   5  11
ENDBRANCH   1   6
BRANCH   2  18
ATOM     18  C   UNL     1       4.052   3.039  18.332  0.00  0.00    +0.000 C 
ATOM     19  C   UNL     1       3.441   1.649  18.149  0.00  0.00    +0.000 C 
BRANCH  18  20
ATOM     20  N   UNL     1       4.828   3.460  17.141  0.00  0.00    +0.000 N 
ATOM     21  H   UNL     1       4.210   3.526  16.328  0.00  0.00    +0.000 HD
BRANCH  20  22
ATOM     22  C   UNL     1       5.601   4.637  17.207  0.00  0.00    +0.000 A 
ATOM     23  C   UNL     1       5.214   5.856  16.645  0.00  0.00    +0.000 A 
ATOM     24  C   UNL     1       5.974   7.020  16.811  0.00  0.00    +0.000 A 
ATOM     25  C   UNL     1       7.147   7.002  17.562  0.00  0.00    +0.000 A 
ATOM     26  C   UNL     1       7.963   8.249  17.737  0.00  0.00    +0.000 C 
ATOM     27  C   UNL     1       7.535   5.802  18.163  0.00  0.00    +0.000 A 
ATOM     28  C   UNL     1       6.758   4.644  18.000  0.00  0.00    +0.000 A 
ENDBRANCH  20  22
ENDBRANCH  18  20
ENDBRANCH   2  18
TORSDOF 8
ENDMDL
MODEL 5
REMARK VINA RESULT:      -7.4      4.705      8.182
REMARK  Name = 
REMARK  10 active torsions:
REMARK  status: ('A' for Active; 'I' for Inactive)
REMARK    1  A    between atoms: C_2  and  C_3
REMARK    2  A    between atoms: C_3  and  C_4
REMARK    3  A    between atoms: C_8  and  C_9
REMARK    4  A    between atoms: N_10  and  N_11
REMARK    5  A    between atoms: C_12  and  C_14
REMARK    6  A    between atoms: C_14  and  C_15
REMARK    7  A    between atoms: C_14  and  N_16
REMARK    8  A    between atoms: N_16  and  C_17
REMARK    9  A    between atoms: C_20  and  C_21
REMARK   10  A    between atoms: C_24  and  O_25
REMARK                            x       y       z     vdW  Elec       q    Type
REMARK                         _______ _______ _______ _____ _____    ______ ____
ROOT
ATOM      1  N   UNL     1       7.514   8.024  17.333  0.00  0.00    +0.000 N 
ATOM      2  C   UNL     1       7.335   6.785  17.944  0.00  0.00    +0.000 C 
ATOM      3  O   UNL     1       8.021   6.394  18.890  0.00  0.00    +0.000 OA
ATOM      4  H   UNL     1       7.016   8.273  16.487  0.00  0.00    +0.000 HD
ENDROOT
BRANCH   1   6
ATOM      5  C   UNL     1       8.099  10.157  17.836  0.00  0.00    +0.000 C 
ATOM      6  N   UNL     1       8.401   8.896  17.874  0.00  0.00    +0.000 NA
BRANCH   5  11
ATOM      7  C   UNL     1       9.957  13.409  18.508  0.00  0.00    +0.000 A 
ATOM      8  C   UNL     1      10.803  12.987  19.546  0.00  0.00    +0.000 A 
ATOM      9  C   UNL     1      10.764  11.669  20.010  0.00  0.00    +0.000 A 
ATOM     10  C   UNL     1       9.882  10.750  19.441  0.00  0.00    +0.000 A 
ATOM     11  C   UNL     1       9.038  11.153  18.400  0.00  0.00    +0.000 A 
ATOM     12  C   UNL     1       9.085  12.476  17.930  0.00  0.00    +0.000 A 
BRANCH  12  13
ATOM     13  O   UNL     1       8.288  12.917  16.904  0.00  0.00    +0.000 OA
ATOM     14  H   UNL     1       8.706  13.708  16.490  0.00  0.00    +0.000 HD
ENDBRANCH  12  13
BRANCH   7  15
ATOM     15  C   UNL     1      10.000  14.847  18.038  0.00  0.00    +0.000 C 
BRANCH  15  17
ATOM     16  C   UNL     1      12.063  16.043  17.238  0.00  0.00    +0.000 C 
ATOM     17  C   UNL     1      11.111  15.117  17.063  0.00  0.00    +0.000 C 
ENDBRANCH  15  17
ENDBRANCH   7  15
ENDBRANCH   5  11
ENDBRANCH   1   6
BRANCH   2  18
ATOM     18  C   UNL     1       6.256   5.867  17.308  0.00  0.00    +0.000 C 
ATOM     19  C   UNL     1       6.385   4.429  17.813  0.00  0.00    +0.000 C 
BRANCH  18  20
ATOM     20  N   UNL     1       4.911   6.426  17.581  0.00  0.00    +0.000 N 
ATOM     21  H   UNL     1       4.495   6.775  16.714  0.00  0.00    +0.000 HD
BRANCH  20  22
ATOM     22  C   UNL     1       3.957   5.626  18.241  0.00  0.00    +0.000 A 
ATOM     23  C   UNL     1       3.778   5.610  19.627  0.00  0.00    +0.000 A 
ATOM     24  C   UNL     1       2.759   4.864  20.231  0.00  0.00    +0.000 A 
ATOM     25  C   UNL     1       1.873   4.115  19.460  0.00  0.00    +0.000 A 
ATOM     26  C   UNL     1       0.783   3.313  20.109  0.00  0.00    +0.000 C 
ATOM     27  C   UNL     1       2.011   4.143  18.071  0.00  0.00    +0.000 A 
ATOM     28  C   UNL     1       3.029   4.905  17.474  0.00  0.00    +0.000 A 
ENDBRANCH  20  22
ENDBRANCH  18  20
ENDBRANCH   2  18
TORSDOF 8
ENDMDL
MODEL 6
REMARK VINA RESULT:      -7.3      1.239      2.361
REMARK  Name = 
REMARK  10 active torsions:
REMARK  status: ('A' for Active; 'I' for Inactive)
REMARK    1  A    between atoms: C_2  and  C_3
REMARK    2  A    between atoms: C_3  and  C_4
REMARK    3  A    between atoms: C_8  and  C_9
REMARK    4  A    between atoms: N_10  and  N_11
REMARK    5  A    between atoms: C_12  and  C_14
REMARK    6  A    between atoms: C_14  and  C_15
REMARK    7  A    between atoms: C_14  and  N_16
REMARK    8  A    between atoms: N_16  and  C_17
REMARK    9  A    between atoms: C_20  and  C_21
REMARK   10  A    between atoms: C_24  and  O_25
REMARK                            x       y       z     vdW  Elec       q    Type
REMARK                         _______ _______ _______ _____ _____    ______ ____
ROOT
ATOM      1  N   UNL     1       2.973   4.805  19.897  0.00  0.00    +0.000 N 
ATOM      2  C   UNL     1       2.866   4.193  18.651  0.00  0.00    +0.000 C 
ATOM      3  O   UNL     1       1.963   4.444  17.851  0.00  0.00    +0.000 OA
ATOM      4  H   UNL     1       3.655   4.498  20.581  0.00  0.00    +0.000 HD
ENDROOT
BRANCH   1   6
ATOM      5  C   UNL     1       2.446   7.011  19.830  0.00  0.00    +0.000 C 
ATOM      6  N   UNL     1       2.119   5.814  20.205  0.00  0.00    +0.000 NA
BRANCH   5  11
ATOM      7  C   UNL     1       0.401  10.206  19.535  0.00  0.00    +0.000 A 
ATOM      8  C   UNL     1      -0.170  10.239  20.817  0.00  0.00    +0.000 A 
ATOM      9  C   UNL     1       0.111   9.239  21.752  0.00  0.00    +0.000 A 
ATOM     10  C   UNL     1       0.972   8.192  21.423  0.00  0.00    +0.000 A 
ATOM     11  C   UNL     1       1.557   8.149  20.152  0.00  0.00    +0.000 A 
ATOM     12  C   UNL     1       1.278   9.160  19.216  0.00  0.00    +0.000 A 
BRANCH  12  13
ATOM     13  O   UNL     1       1.835   9.170  17.962  0.00  0.00    +0.000 OA
ATOM     14  H   UNL     1       2.199  10.067  17.781  0.00  0.00    +0.000 HD
ENDBRANCH  12  13
BRANCH   7  15
ATOM     15  C   UNL     1       0.063  11.286  18.531  0.00  0.00    +0.000 C 
BRANCH  15  17
ATOM     16  C   UNL     1       2.188  12.626  18.410  0.00  0.00    +0.000 C 
ATOM     17  C   UNL     1       0.885  12.532  18.704  0.00  0.00    +0.000 C 
ENDBRANCH  15  17
ENDBRANCH   7  15
ENDBRANCH   5  11
ENDBRANCH   1   6
BRANCH   2  18
ATOM     18  C   UNL     1       3.919   3.093  18.346  0.00  0.00    +0.000 C 
ATOM     19  C   UNL     1       3.247   1.763  18.001  0.00  0.00    +0.000 C 
BRANCH  18  20
ATOM     20  N   UNL     1       4.811   3.557  17.256  0.00  0.00    +0.000 N 
ATOM     21  H   UNL     1       4.275   3.671  16.391  0.00  0.00    +0.000 HD
BRANCH  20  22
ATOM     22  C   UNL     1       5.589   4.715  17.453  0.00  0.00    +0.000 A 
ATOM     23  C   UNL     1       6.770   4.743  18.199  0.00  0.00    +0.000 A 
ATOM     24  C   UNL     1       7.556   5.897  18.295  0.00  0.00    +0.000 A 
ATOM     25  C   UNL     1       7.188   7.066  17.632  0.00  0.00    +0.000 A 
ATOM     26  C   UNL     1       8.029   8.303  17.738  0.00  0.00    +0.000 C 
ATOM     27  C   UNL     1       6.029   7.051  16.852  0.00  0.00    +0.000 A 
ATOM     28  C   UNL     1       5.255   5.884  16.752  0.00  0.00    +0.000 A 
ENDBRANCH  20  22
ENDBRANCH  18  20
ENDBRANCH   2  18
TORSDOF 8
ENDMDL
MODEL 7
REMARK VINA RESULT:      -7.3      5.661      8.314
REMARK  Name = 
REMARK  10 active torsions:
REMARK  status: ('A' for Active; 'I' for Inactive)
REMARK    1  A    between atoms: C_2  and  C_3
REMARK    2  A    between atoms: C_3  and  C_4
REMARK    3  A    between atoms: C_8  and  C_9
REMARK    4  A    between atoms: N_10  and  N_11
REMARK    5  A    between atoms: C_12  and  C_14
REMARK    6  A    between atoms: C_14  and  C_15
REMARK    7  A    between atoms: C_14  and  N_16
REMARK    8  A    between atoms: N_16  and  C_17
REMARK    9  A    between atoms: C_20  and  C_21
REMARK   10  A    between atoms: C_24  and  O_25
REMARK                            x       y       z     vdW  Elec       q    Type
REMARK                         _______ _______ _______ _____ _____    ______ ____
ROOT
ATOM      1  N   UNL     1       7.763   8.209  17.339  0.00  0.00    +0.000 N 
ATOM      2  C   UNL     1       7.472   6.907  17.739  0.00  0.00    +0.000 C 
ATOM      3  O   UNL     1       7.868   6.423  18.800  0.00  0.00    +0.000 OA
ATOM      4  H   UNL     1       7.524   8.544  16.414  0.00  0.00    +0.000 HD
ENDROOT
BRANCH   1   6
ATOM      5  C   UNL     1       8.527  10.277  17.874  0.00  0.00    +0.000 C 
ATOM      6  N   UNL     1       8.409   9.029  18.205  0.00  0.00    +0.000 NA
BRANCH   5  11
ATOM      7  C   UNL     1      10.282  13.366  19.237  0.00  0.00    +0.000 A 
ATOM      8  C   UNL     1      10.525  12.938  20.552  0.00  0.00    +0.000 A 
ATOM      9  C   UNL     1      10.124  11.668  20.977  0.00  0.00    +0.000 A 
ATOM     10  C   UNL     1       9.478  10.803  20.093  0.00  0.00    +0.000 A 
ATOM     11  C   UNL     1       9.236  11.212  18.776  0.00  0.00    +0.000 A 
ATOM     12  C   UNL     1       9.648  12.486  18.350  0.00  0.00    +0.000 A 
BRANCH  12  13
ATOM     13  O   UNL     1       9.445  12.928  17.067  0.00  0.00    +0.000 OA
ATOM     14  H   UNL     1       8.936  12.247  16.570  0.00  0.00    +0.000 HD
ENDBRANCH  12  13
BRANCH   7  15
ATOM     15  C   UNL     1      10.704  14.754  18.806  0.00  0.00    +0.000 C 
BRANCH  15  17
ATOM     16  C   UNL     1      12.333  16.297  19.942  0.00  0.00    +0.000 C 
ATOM     17  C   UNL     1      12.062  15.144  19.317  0.00  0.00    +0.000 C 
ENDBRANCH  15  17
ENDBRANCH   7  15
ENDBRANCH   5  11
ENDBRANCH   1   6
BRANCH   2  18
ATOM     18  C   UNL     1       6.673   6.050  16.721  0.00  0.00    +0.000 C 
ATOM     19  C   UNL     1       5.328   6.697  16.385  0.00  0.00    +0.000 C 
BRANCH  18  20
ATOM     20  N   UNL     1       7.497   5.833  15.507  0.00  0.00    +0.000 N 
ATOM     21  H   UNL     1       8.405   5.440  15.768  0.00  0.00    +0.000 HD
BRANCH  20  22
ATOM     22  C   UNL     1       6.969   5.066  14.449  0.00  0.00    +0.000 A 
ATOM     23  C   UNL     1       7.534   5.008  13.173  0.00  0.00    +0.000 A 
ATOM     24  C   UNL     1       7.025   4.164  12.178  0.00  0.00    +0.000 A 
ATOM     25  C   UNL     1       5.934   3.337  12.436  0.00  0.00    +0.000 A 
ATOM     26  C   UNL     1       5.388   2.436  11.368  0.00  0.00    +0.000 C 
ATOM     27  C   UNL     1       5.375   3.353  13.716  0.00  0.00    +0.000 A 
ATOM     28  C   UNL     1       5.901   4.193  14.710  0.00  0.00    +0.000 A 
ENDBRANCH  20  22
ENDBRANCH  18  20
ENDBRANCH   2  18
TORSDOF 8
ENDMDL
MODEL 8
REMARK VINA RESULT:      -7.3      1.920      3.136
REMARK  Name = 
REMARK  10 active torsions:
REMARK  status: ('A' for Active; 'I' for Inactive)
REMARK    1  A    between atoms: C_2  and  C_3
REMARK    2  A    between atoms: C_3  and  C_4
REMARK    3  A    between atoms: C_8  and  C_9
REMARK    4  A    between atoms: N_10  and  N_11
REMARK    5  A    between atoms: C_12  and  C_14
REMARK    6  A    between atoms: C_14  and  C_15
REMARK    7  A    between atoms: C_14  and  N_16
REMARK    8  A    between atoms: N_16  and  C_17
REMARK    9  A    between atoms: C_20  and  C_21
REMARK   10  A    between atoms: C_24  and  O_25
REMARK                            x       y       z     vdW  Elec       q    Type
REMARK                         _______ _______ _______ _____ _____    ______ ____
ROOT
ATOM      1  N   UNL     1       2.257   6.087  20.798  0.00  0.00    +0.000 N 
ATOM      2  C   UNL     1       1.769   4.803  20.564  0.00  0.00    +0.000 C 
ATOM      3  O   UNL     1       0.582   4.563  20.341  0.00  0.00    +0.000 OA
ATOM      4  H   UNL     1       3.213   6.244  21.092  0.00  0.00    +0.000 HD
ENDROOT
BRANCH   1   6
ATOM      5  C   UNL     1       1.551   8.132  21.481  0.00  0.00    +0.000 C 
ATOM      6  N   UNL     1       1.415   7.141  20.656  0.00  0.00    +0.000 NA
BRANCH   5  11
ATOM      7  C   UNL     1      -0.528  10.990  20.070  0.00  0.00    +0.000 A 
ATOM      8  C   UNL     1      -1.100  11.474  21.258  0.00  0.00    +0.000 A 
ATOM      9  C   UNL     1      -0.808  10.876  22.488  0.00  0.00    +0.000 A 
ATOM     10  C   UNL     1       0.064   9.789  22.552  0.00  0.00    +0.000 A 
ATOM     11  C   UNL     1       0.649   9.301  21.378  0.00  0.00    +0.000 A 
ATOM     12  C   UNL     1       0.361   9.908  20.144  0.00  0.00    +0.000 A 
BRANCH  12  13
ATOM     13  O   UNL     1       0.918   9.475  18.967  0.00  0.00    +0.000 OA
ATOM     14  H   UNL     1       1.747   8.983  19.168  0.00  0.00    +0.000 HD
ENDBRANCH  12  13
BRANCH   7  15
ATOM     15  C   UNL     1      -0.877  11.637  18.747  0.00  0.00    +0.000 C 
BRANCH  15  17
ATOM     16  C   UNL     1      -1.977  10.103  17.085  0.00  0.00    +0.000 C 
ATOM     17  C   UNL     1      -2.061  11.003  18.074  0.00  0.00    +0.000 C 
ENDBRANCH  15  17
ENDBRANCH   7  15
ENDBRANCH   5  11
ENDBRANCH   1   6
BRANCH   2  18
ATOM     18  C   UNL     1       2.807   3.654  20.682  0.00  0.00    +0.000 C 
ATOM     19  C   UNL     1       2.403   2.652  21.765  0.00  0.00    +0.000 C 
BRANCH  18  20
ATOM     20  N   UNL     1       2.967   3.000  19.361  0.00  0.00    +0.000 N 
ATOM     21  H   UNL     1       2.073   2.996  18.863  0.00  0.00    +0.000 HD
BRANCH  20  22
ATOM     22  C   UNL     1       3.964   3.467  18.481  0.00  0.00    +0.000 A 
ATOM     23  C   UNL     1       3.802   3.555  17.096  0.00  0.00    +0.000 A 
ATOM     24  C   UNL     1       4.789   4.107  16.271  0.00  0.00    +0.000 A 
ATOM     25  C   UNL     1       5.972   4.604  16.812  0.00  0.00    +0.000 A 
ATOM     26  C   UNL     1       7.030   5.193  15.926  0.00  0.00    +0.000 C 
ATOM     27  C   UNL     1       6.141   4.559  18.198  0.00  0.00    +0.000 A 
ATOM     28  C   UNL     1       5.139   4.015  19.018  0.00  0.00    +0.000 A 
ENDBRANCH  20  22
ENDBRANCH  18  20
ENDBRANCH   2  18
TORSDOF 8
ENDMDL
MODEL 9
REMARK VINA RESULT:      -7.3      2.190      3.968
REMARK  Name = 
REMARK  10 active torsions:
REMARK  status: ('A' for Active; 'I' for Inactive)
REMARK    1  A    between atoms: C_2  and  C_3
REMARK    2  A    between atoms: C_3  and  C_4
REMARK    3  A    between atoms: C_8  and  C_9
REMARK    4  A    between atoms: N_10  and  N_11
REMARK    5  A    between atoms: C_12  and  C_14
REMARK    6  A    between atoms: C_14  and  C_15
REMARK    7  A    between atoms: C_14  and  N_16
REMARK    8  A    between atoms: N_16  and  C_17
REMARK    9  A    between atoms: C_20  and  C_21
REMARK   10  A    between atoms: C_24  and  O_25
REMARK                            x       y       z     vdW  Elec       q    Type
REMARK                         _______ _______ _______ _____ _____    ______ ____
ROOT
ATOM      1  N   UNL     1       4.338   6.543  16.941  0.00  0.00    +0.000 N 
ATOM      2  C   UNL     1       5.384   5.827  17.518  0.00  0.00    +0.000 C 
ATOM      3  O   UNL     1       5.843   6.084  18.633  0.00  0.00    +0.000 OA
ATOM      4  H   UNL     1       4.057   6.387  15.981  0.00  0.00    +0.000 HD
ENDROOT
BRANCH   1   6
ATOM      5  C   UNL     1       2.670   7.125  18.364  0.00  0.00    +0.000 C 
ATOM      6  N   UNL     1       3.709   7.491  17.681  0.00  0.00    +0.000 NA
BRANCH   5  11
ATOM      7  C   UNL     1       0.791  10.261  19.421  0.00  0.00    +0.000 A 
ATOM      8  C   UNL     1       0.521   9.934  20.760  0.00  0.00    +0.000 A 
ATOM      9  C   UNL     1       0.947   8.717  21.299  0.00  0.00    +0.000 A 
ATOM     10  C   UNL     1       1.654   7.808  20.511  0.00  0.00    +0.000 A 
ATOM     11  C   UNL     1       1.939   8.123  19.177  0.00  0.00    +0.000 A 
ATOM     12  C   UNL     1       1.516   9.351  18.639  0.00  0.00    +0.000 A 
BRANCH  12  13
ATOM     13  O   UNL     1       1.780   9.711  17.342  0.00  0.00    +0.000 OA
ATOM     14  H   UNL     1       1.547  10.660  17.220  0.00  0.00    +0.000 HD
ENDBRANCH  12  13
BRANCH   7  15
ATOM     15  C   UNL     1       0.299  11.574  18.852  0.00  0.00    +0.000 C 
BRANCH  15  17
ATOM     16  C   UNL     1      -2.208  11.684  19.027  0.00  0.00    +0.000 C 
ATOM     17  C   UNL     1      -1.098  11.493  18.302  0.00  0.00    +0.000 C 
ENDBRANCH  15  17
ENDBRANCH   7  15
ENDBRANCH   5  11
ENDBRANCH   1   6
BRANCH   2  18
ATOM     18  C   UNL     1       6.010   4.714  16.635  0.00  0.00    +0.000 C 
ATOM     19  C   UNL     1       7.470   4.459  17.018  0.00  0.00    +0.000 C 
BRANCH  18  20
ATOM     20  N   UNL     1       5.191   3.483  16.741  0.00  0.00    +0.000 N 
ATOM     21  H   UNL     1       5.798   2.673  16.892  0.00  0.00    +0.000 HD
BRANCH  20  22
ATOM     22  C   UNL     1       4.144   3.436  17.683  0.00  0.00    +0.000 A 
ATOM     23  C   UNL     1       2.791   3.538  17.350  0.00  0.00    +0.000 A 
ATOM     24  C   UNL     1       1.782   3.398  18.310  0.00  0.00    +0.000 A 
ATOM     25  C   UNL     1       2.097   3.136  19.641  0.00  0.00    +0.000 A 
ATOM     26  C   UNL     1       1.015   2.989  20.669  0.00  0.00    +0.000 C 
ATOM     27  C   UNL     1       3.442   2.995  19.991  0.00  0.00    +0.000 A 
ATOM     28  C   UNL     1       4.446   3.124  19.018  0.00  0.00    +0.000 A 
ENDBRANCH  20  22
ENDBRANCH  18  20
ENDBRANCH   2  18
TORSDOF 8
ENDMDL
